data_jmw_el1_mo2
_audit_creation_date               2021-03-17
_audit_creation_method
;
Olex2 1.3
(compiled 2020.11.12 svn.r5f609507 for OlexSys, GUI svn.r6272)
;
_shelx_SHELXL_version_number       '2018/3'
_audit_contact_author_address      ?
_audit_contact_author_email        ?
_audit_contact_author_name         ''
_audit_contact_author_phone        ?
_publ_contact_author_id_orcid      ?
_publ_section_references
;
Dolomanov, O.V., Bourhis, L.J., Gildea, R.J, Howard, J.A.K. & Puschmann, H.
 (2009), J. Appl. Cryst. 42, 339-341.

Sheldrick, G.M. (2015). Acta Cryst. A71, 3-8.

Sheldrick, G.M. (2015). Acta Cryst. C71, 3-8.
;
_chemical_name_common              ?
_chemical_name_systematic          ?
_chemical_formula_moiety           'C11.5 H10 N2 O0.5 Se0.5'
_chemical_formula_sum              'C23 H20 N4 O Se'
_chemical_formula_weight           447.39
_chemical_melting_point            ?
loop_
  _atom_type_symbol
  _atom_type_description
  _atom_type_scat_dispersion_real
  _atom_type_scat_dispersion_imag
  _atom_type_scat_source
 'C' 'C' 0.0033 0.0016 'International Tables Vol C Tables 4.2.6.8 and 6.1.1.4'
 'H' 'H' 0.0000 0.0000 'International Tables Vol C Tables 4.2.6.8 and 6.1.1.4'
 'N' 'N' 0.0061 0.0033 'International Tables Vol C Tables 4.2.6.8 and 6.1.1.4'
 'O' 'O' 0.0106 0.0060 'International Tables Vol C Tables 4.2.6.8 and 6.1.1.4'
 'Se' 'Se' -0.0929 2.2259
 'International Tables Vol C Tables 4.2.6.8 and 6.1.1.4'

_shelx_space_group_comment
;
The symmetry employed for this shelxl refinement is uniquely defined
by the following loop, which should always be used as a source of
symmetry information in preference to the above space-group names.
They are only intended as comments.
;
_space_group_crystal_system        'triclinic'
_space_group_IT_number             2
_space_group_name_H-M_alt          'P -1'
_space_group_name_Hall             '-P 1'
loop_
  _space_group_symop_operation_xyz
 'x, y, z'
 '-x, -y, -z'

_cell_length_a                     9.7432(4)
_cell_length_b                     9.7525(4)
_cell_length_c                     12.2261(4)
_cell_angle_alpha                  110.327(3)
_cell_angle_beta                   112.660(3)
_cell_angle_gamma                  90.219(3)
_cell_volume                       992.49(7)
_cell_formula_units_Z              4
_cell_measurement_reflns_used      ?
_cell_measurement_temperature      293(2)
_cell_measurement_theta_max        ?
_cell_measurement_theta_min        ?
_shelx_estimated_absorpt_T_max     ?
_shelx_estimated_absorpt_T_min     ?
_exptl_absorpt_coefficient_mu      3.828
_exptl_absorpt_correction_T_max    ?
_exptl_absorpt_correction_T_min    ?
_exptl_absorpt_correction_type     ?
_exptl_absorpt_process_details     ?
_exptl_absorpt_special_details     ?
_exptl_crystal_colour              ?
_exptl_crystal_density_diffrn      2.994
_exptl_crystal_density_meas        ?
_exptl_crystal_density_method      ?
_exptl_crystal_description         ?
_exptl_crystal_F_000               912
_exptl_crystal_size_max            0.549
_exptl_crystal_size_mid            0.339
_exptl_crystal_size_min            0.152
_exptl_transmission_factor_max     ?
_exptl_transmission_factor_min     ?
_diffrn_reflns_av_R_equivalents    0.0341
_diffrn_reflns_av_unetI/netI       0.0485
_diffrn_reflns_Laue_measured_fraction_full  0.994
_diffrn_reflns_Laue_measured_fraction_max  0.897
_diffrn_reflns_limit_h_max         16
_diffrn_reflns_limit_h_min         -16
_diffrn_reflns_limit_k_max         15
_diffrn_reflns_limit_k_min         -15
_diffrn_reflns_limit_l_max         20
_diffrn_reflns_limit_l_min         -20
_diffrn_reflns_number              22193
_diffrn_reflns_point_group_measured_fraction_full  0.994
_diffrn_reflns_point_group_measured_fraction_max  0.897
_diffrn_reflns_theta_full          25.242
_diffrn_reflns_theta_max           37.301
_diffrn_reflns_theta_min           2.256
_diffrn_ambient_temperature        293(2)
_diffrn_detector_area_resol_mean   ?
_diffrn_measured_fraction_theta_full  0.994
_diffrn_measured_fraction_theta_max  0.897
_diffrn_measurement_device_type    ?
_diffrn_measurement_method         ?
_diffrn_radiation_type             MoK\a
_diffrn_radiation_wavelength       0.71073
_diffrn_source                     ?
_reflns_Friedel_coverage           0.000
_reflns_Friedel_fraction_full      .
_reflns_Friedel_fraction_max       .
_reflns_number_gt                  7367
_reflns_number_total               9250
_reflns_special_details
;
 Reflections were merged by SHELXL according to the crystal
 class for the calculation of statistics and refinement.
 
 _reflns_Friedel_fraction is defined as the number of unique
 Friedel pairs measured divided by the number that would be
 possible theoretically, ignoring centric projections and
 systematic absences.
;
_reflns_threshold_expression       'I > 2\s(I)'
_computing_cell_refinement         ?
_computing_data_collection         ?
_computing_data_reduction          ?
_computing_molecular_graphics      'Olex2 1.3 (Dolomanov et al., 2009)'
_computing_publication_material    'Olex2 1.3 (Dolomanov et al., 2009)'
_computing_structure_refinement    'ShelXL 2018/3 (Sheldrick, 2015)'
_computing_structure_solution      'SHELXT 2018/2 (Sheldrick, 2018)'
_refine_diff_density_max           1.024
_refine_diff_density_min           -0.612
_refine_diff_density_rms           0.090
_refine_ls_extinction_coef         .
_refine_ls_extinction_method       none
_refine_ls_goodness_of_fit_ref     1.037
_refine_ls_hydrogen_treatment      constr
_refine_ls_matrix_type             full
_refine_ls_number_parameters       262
_refine_ls_number_reflns           9250
_refine_ls_number_restraints       0
_refine_ls_R_factor_all            0.0547
_refine_ls_R_factor_gt             0.0369
_refine_ls_restrained_S_all        1.037
_refine_ls_shift/su_max            0.002
_refine_ls_shift/su_mean           0.000
_refine_ls_structure_factor_coef   Fsqd
_refine_ls_weighting_details      
 'w=1/[\s^2^(Fo^2^)+(0.0492P)^2^] where P=(Fo^2^+2Fc^2^)/3'
_refine_ls_weighting_scheme        calc
_refine_ls_wR_factor_gt            0.0848
_refine_ls_wR_factor_ref           0.0899
_refine_special_details            ?
_olex2_refinement_description
;
1.a Secondary CH2 refined with riding coordinates:
 C23(H23A,H23B), C20(H20A,H20B), C21(H21A,H21B), C22(H22A,H22B)
1.b Aromatic/amide H refined with riding coordinates:
 C9(H9), C16(H16), C18(H18), C19(H19), C10(H10), C6(H6), C12(H12), C15(H15),
 C13(H13), C5(H5), C3(H3), C4(H4)
;
_atom_sites_solution_hydrogens     geom
_atom_sites_solution_primary       dual
_atom_sites_solution_secondary     ?
loop_
  _atom_site_label
  _atom_site_type_symbol
  _atom_site_fract_x
  _atom_site_fract_y
  _atom_site_fract_z
  _atom_site_U_iso_or_equiv
  _atom_site_adp_type
  _atom_site_occupancy
  _atom_site_site_symmetry_order
  _atom_site_calc_flag
  _atom_site_refinement_flags_posn
  _atom_site_refinement_flags_adp
  _atom_site_refinement_flags_occupancy
  _atom_site_disorder_assembly
  _atom_site_disorder_group
 Se1 Se 0.43255(2) 0.70388(2) 0.42886(2) 0.01583(4) Uani 1 1 d . . . . .
 O1 O 0.71346(12) 0.41963(12) 0.33933(10) 0.0258(2) Uani 1 1 d . . . . .
 N1 N 0.61612(12) 0.60605(13) 0.45289(10) 0.0169(2) Uani 1 1 d . . . . .
 N3 N 0.21121(13) 0.79769(13) 0.38423(11) 0.0186(2) Uani 1 1 d . . . . .
 N4 N -0.21129(12) 0.92914(13) 0.29364(11) 0.0177(2) Uani 1 1 d . . . . .
 C8 C 0.73327(14) 0.64961(14) 0.57536(12) 0.0159(2) Uani 1 1 d . . . . .
 C17 C -0.07426(14) 0.88964(14) 0.32570(12) 0.0152(2) Uani 1 1 d . . . . .
 C9 C 0.88077(15) 0.62292(15) 0.59560(13) 0.0182(2) Uani 1 1 d . . . . .
 H9 H 0.902735 0.572162 0.525919 0.022 Uiso 1 1 calc R U . . .
 N2 N 1.17846(17) 0.85774(18) 1.04987(13) 0.0341(3) Uani 1 1 d . . . . .
 C7 C 0.61594(15) 0.49886(15) 0.34560(13) 0.0181(2) Uani 1 1 d . . . . .
 C16 C 0.04219(15) 0.95468(16) 0.30852(14) 0.0207(2) Uani 1 1 d . . . . .
 H16 H 0.026300 1.030642 0.277673 0.025 Uiso 1 1 calc R U . . .
 C18 C -0.03729(15) 0.78005(16) 0.37851(14) 0.0205(2) Uani 1 1 d . . . . .
 H18 H -0.107756 0.735534 0.394952 0.025 Uiso 1 1 calc R U . . .
 C11 C 0.96199(15) 0.75044(16) 0.82349(13) 0.0192(2) Uani 1 1 d . . . . .
 C19 C 0.10327(16) 0.73942(16) 0.40554(14) 0.0213(3) Uani 1 1 d . . . . .
 H19 H 0.125007 0.667303 0.440666 0.026 Uiso 1 1 calc R U . . .
 C1 C 0.37262(15) 0.57867(15) 0.25413(12) 0.0177(2) Uani 1 1 d . . . . .
 C10 C 0.99438(15) 0.67149(15) 0.71863(13) 0.0196(2) Uani 1 1 d . . . . .
 H10 H 1.091447 0.651708 0.731329 0.024 Uiso 1 1 calc R U . . .
 C23 C -0.33314(15) 0.86690(17) 0.31331(13) 0.0207(3) Uani 1 1 d . . . . .
 H23A H -0.300696 0.877392 0.401835 0.025 Uiso 1 1 calc R U . . .
 H23B H -0.366968 0.762893 0.258645 0.025 Uiso 1 1 calc R U . . .
 C6 C 0.23912(17) 0.57165(17) 0.15126(13) 0.0234(3) Uani 1 1 d . . . . .
 H6 H 0.168279 0.631445 0.164241 0.028 Uiso 1 1 calc R U . . .
 C12 C 0.81613(15) 0.77775(16) 0.80460(13) 0.0203(2) Uani 1 1 d . . . . .
 H12 H 0.794809 0.829958 0.874327 0.024 Uiso 1 1 calc R U . . .
 C15 C 0.17853(15) 0.90536(16) 0.33749(14) 0.0207(2) Uani 1 1 d . . . . .
 H15 H 0.252593 0.948838 0.324047 0.025 Uiso 1 1 calc R U . . .
 C2 C 0.47743(15) 0.48756(15) 0.23278(12) 0.0183(2) Uani 1 1 d . . . . .
 C13 C 0.70274(15) 0.72719(16) 0.68197(12) 0.0186(2) Uani 1 1 d . . . . .
 H13 H 0.605235 0.744781 0.670013 0.022 Uiso 1 1 calc R U . . .
 C5 C 0.21468(19) 0.47342(19) 0.02932(14) 0.0287(3) Uani 1 1 d . . . . .
 H5 H 0.126478 0.468148 -0.039772 0.034 Uiso 1 1 calc R U . . .
 C14 C 1.08199(17) 0.80848(18) 0.95020(14) 0.0242(3) Uani 1 1 d . . . . .
 C20 C -0.25932(16) 1.03511(18) 0.23087(16) 0.0253(3) Uani 1 1 d . . . . .
 H20A H -0.227719 1.016562 0.161548 0.030 Uiso 1 1 calc R U . . .
 H20B H -0.218653 1.136174 0.291490 0.030 Uiso 1 1 calc R U . . .
 C3 C 0.45156(17) 0.38993(17) 0.10964(14) 0.0241(3) Uani 1 1 d . . . . .
 H3 H 0.522240 0.330382 0.095771 0.029 Uiso 1 1 calc R U . . .
 C4 C 0.31864(19) 0.38318(19) 0.00828(14) 0.0284(3) Uani 1 1 d . . . . .
 H4 H 0.299245 0.317742 -0.074189 0.034 Uiso 1 1 calc R U . . .
 C21 C -0.43115(17) 1.00657(19) 0.18012(15) 0.0262(3) Uani 1 1 d . . . . .
 H21A H -0.473247 1.095857 0.177157 0.031 Uiso 1 1 calc R U . . .
 H21B H -0.475379 0.929266 0.095204 0.031 Uiso 1 1 calc R U . . .
 C22 C -0.45714(16) 0.95798(19) 0.27738(14) 0.0243(3) Uani 1 1 d . . . . .
 H22A H -0.448907 1.043040 0.351776 0.029 Uiso 1 1 calc R U . . .
 H22B H -0.555813 0.898646 0.239809 0.029 Uiso 1 1 calc R U . . .

loop_
  _atom_site_aniso_label
  _atom_site_aniso_U_11
  _atom_site_aniso_U_22
  _atom_site_aniso_U_33
  _atom_site_aniso_U_23
  _atom_site_aniso_U_13
  _atom_site_aniso_U_12
 Se1 0.01338(6) 0.01625(6) 0.01720(6) 0.00523(4) 0.00657(4) 0.00593(4)
 O1 0.0219(5) 0.0264(5) 0.0255(5) 0.0038(4) 0.0114(4) 0.0130(4)
 N1 0.0144(5) 0.0178(5) 0.0190(5) 0.0059(4) 0.0082(4) 0.0075(4)
 N3 0.0153(5) 0.0194(5) 0.0230(5) 0.0090(4) 0.0087(4) 0.0076(4)
 N4 0.0129(4) 0.0190(5) 0.0253(5) 0.0112(4) 0.0093(4) 0.0057(4)
 C8 0.0138(5) 0.0150(5) 0.0195(6) 0.0068(4) 0.0073(4) 0.0050(4)
 C17 0.0133(5) 0.0152(5) 0.0175(5) 0.0056(4) 0.0073(4) 0.0043(4)
 C9 0.0155(5) 0.0176(6) 0.0232(6) 0.0077(5) 0.0098(5) 0.0062(4)
 N2 0.0280(7) 0.0370(8) 0.0284(7) 0.0122(6) 0.0026(5) 0.0057(6)
 C7 0.0171(5) 0.0167(6) 0.0223(6) 0.0064(5) 0.0109(5) 0.0065(4)
 C16 0.0155(5) 0.0215(6) 0.0328(7) 0.0158(5) 0.0127(5) 0.0076(5)
 C18 0.0174(6) 0.0226(6) 0.0282(7) 0.0150(5) 0.0115(5) 0.0066(5)
 C11 0.0169(6) 0.0188(6) 0.0218(6) 0.0101(5) 0.0058(5) 0.0039(4)
 C19 0.0183(6) 0.0222(6) 0.0271(7) 0.0132(5) 0.0097(5) 0.0076(5)
 C1 0.0169(5) 0.0173(6) 0.0188(6) 0.0058(4) 0.0082(4) 0.0043(4)
 C10 0.0143(5) 0.0186(6) 0.0277(6) 0.0109(5) 0.0085(5) 0.0058(4)
 C23 0.0142(5) 0.0260(7) 0.0246(6) 0.0095(5) 0.0107(5) 0.0042(5)
 C6 0.0214(6) 0.0234(7) 0.0215(6) 0.0070(5) 0.0062(5) 0.0081(5)
 C12 0.0189(6) 0.0220(6) 0.0209(6) 0.0085(5) 0.0089(5) 0.0049(5)
 C15 0.0151(5) 0.0224(6) 0.0307(7) 0.0130(5) 0.0129(5) 0.0066(5)
 C2 0.0175(6) 0.0172(6) 0.0200(6) 0.0051(4) 0.0092(5) 0.0045(4)
 C13 0.0143(5) 0.0217(6) 0.0210(6) 0.0082(5) 0.0086(4) 0.0058(4)
 C5 0.0264(7) 0.0296(8) 0.0197(6) 0.0046(6) 0.0032(5) 0.0055(6)
 C14 0.0216(6) 0.0239(7) 0.0280(7) 0.0129(5) 0.0082(5) 0.0059(5)
 C20 0.0182(6) 0.0259(7) 0.0400(8) 0.0205(6) 0.0131(6) 0.0097(5)
 C3 0.0254(7) 0.0226(7) 0.0213(6) 0.0026(5) 0.0116(5) 0.0055(5)
 C4 0.0296(8) 0.0296(8) 0.0176(6) 0.0014(5) 0.0078(6) 0.0062(6)
 C21 0.0180(6) 0.0336(8) 0.0309(7) 0.0164(6) 0.0100(5) 0.0110(6)
 C22 0.0149(6) 0.0337(8) 0.0246(7) 0.0091(6) 0.0099(5) 0.0085(5)

_geom_special_details
;
 All esds (except the esd in the dihedral angle between two l.s. planes)
 are estimated using the full covariance matrix.  The cell esds are taken
 into account individually in the estimation of esds in distances, angles
 and torsion angles; correlations between esds in cell parameters are only
 used when they are defined by crystal symmetry.  An approximate (isotropic)
 treatment of cell esds is used for estimating esds involving l.s. planes.
;
loop_
  _geom_bond_atom_site_label_1
  _geom_bond_atom_site_label_2
  _geom_bond_distance
  _geom_bond_site_symmetry_2
  _geom_bond_publ_flag
 Se1 N1 1.9996(11) . ?
 Se1 N3 2.2893(11) . ?
 Se1 C1 1.9018(13) . ?
 O1 C7 1.2355(16) . ?
 N1 C8 1.4010(16) . ?
 N1 C7 1.3634(16) . ?
 N3 C19 1.3439(18) . ?
 N3 C15 1.3453(19) . ?
 N4 C17 1.3380(16) . ?
 N4 C23 1.4668(17) . ?
 N4 C20 1.4677(19) . ?
 C8 C9 1.4028(18) . ?
 C8 C13 1.4054(18) . ?
 C17 C16 1.4159(18) . ?
 C17 C18 1.4114(19) . ?
 C9 H9 0.9300 . ?
 C9 C10 1.3893(19) . ?
 N2 C14 1.143(2) . ?
 C7 C2 1.4815(19) . ?
 C16 H16 0.9300 . ?
 C16 C15 1.3719(19) . ?
 C18 H18 0.9300 . ?
 C18 C19 1.374(2) . ?
 C11 C10 1.4014(19) . ?
 C11 C12 1.3916(19) . ?
 C11 C14 1.441(2) . ?
 C19 H19 0.9300 . ?
 C1 C6 1.3990(19) . ?
 C1 C2 1.3970(19) . ?
 C10 H10 0.9300 . ?
 C23 H23A 0.9700 . ?
 C23 H23B 0.9700 . ?
 C23 C22 1.521(2) . ?
 C6 H6 0.9300 . ?
 C6 C5 1.389(2) . ?
 C12 H12 0.9300 . ?
 C12 C13 1.3847(18) . ?
 C15 H15 0.9300 . ?
 C2 C3 1.3951(18) . ?
 C13 H13 0.9300 . ?
 C5 H5 0.9300 . ?
 C5 C4 1.384(2) . ?
 C20 H20A 0.9700 . ?
 C20 H20B 0.9700 . ?
 C20 C21 1.530(2) . ?
 C3 H3 0.9300 . ?
 C3 C4 1.387(2) . ?
 C4 H4 0.9300 . ?
 C21 H21A 0.9700 . ?
 C21 H21B 0.9700 . ?
 C21 C22 1.525(2) . ?
 C22 H22A 0.9700 . ?
 C22 H22B 0.9700 . ?

loop_
  _geom_angle_atom_site_label_1
  _geom_angle_atom_site_label_2
  _geom_angle_atom_site_label_3
  _geom_angle
  _geom_angle_site_symmetry_1
  _geom_angle_site_symmetry_3
  _geom_angle_publ_flag
 N1 Se1 N3 174.77(4) . . ?
 C1 Se1 N1 83.14(5) . . ?
 C1 Se1 N3 91.98(5) . . ?
 C8 N1 Se1 119.26(8) . . ?
 C7 N1 Se1 115.93(9) . . ?
 C7 N1 C8 124.81(11) . . ?
 C19 N3 Se1 117.27(9) . . ?
 C19 N3 C15 116.78(12) . . ?
 C15 N3 Se1 125.94(9) . . ?
 C17 N4 C23 123.57(12) . . ?
 C17 N4 C20 124.34(11) . . ?
 C23 N4 C20 112.06(11) . . ?
 N1 C8 C9 122.64(11) . . ?
 N1 C8 C13 118.62(11) . . ?
 C9 C8 C13 118.70(11) . . ?
 N4 C17 C16 122.17(12) . . ?
 N4 C17 C18 121.87(12) . . ?
 C18 C17 C16 115.95(12) . . ?
 C8 C9 H9 119.6 . . ?
 C10 C9 C8 120.70(12) . . ?
 C10 C9 H9 119.6 . . ?
 O1 C7 N1 126.86(13) . . ?
 O1 C7 C2 123.24(12) . . ?
 N1 C7 C2 109.90(11) . . ?
 C17 C16 H16 120.1 . . ?
 C15 C16 C17 119.82(13) . . ?
 C15 C16 H16 120.1 . . ?
 C17 C18 H18 120.1 . . ?
 C19 C18 C17 119.71(13) . . ?
 C19 C18 H18 120.1 . . ?
 C10 C11 C14 119.50(13) . . ?
 C12 C11 C10 120.13(12) . . ?
 C12 C11 C14 120.32(13) . . ?
 N3 C19 C18 123.90(13) . . ?
 N3 C19 H19 118.0 . . ?
 C18 C19 H19 118.0 . . ?
 C6 C1 Se1 126.59(10) . . ?
 C2 C1 Se1 113.53(10) . . ?
 C2 C1 C6 119.88(12) . . ?
 C9 C10 C11 119.68(12) . . ?
 C9 C10 H10 120.2 . . ?
 C11 C10 H10 120.2 . . ?
 N4 C23 H23A 111.0 . . ?
 N4 C23 H23B 111.0 . . ?
 N4 C23 C22 103.88(12) . . ?
 H23A C23 H23B 109.0 . . ?
 C22 C23 H23A 111.0 . . ?
 C22 C23 H23B 111.0 . . ?
 C1 C6 H6 120.7 . . ?
 C5 C6 C1 118.56(14) . . ?
 C5 C6 H6 120.7 . . ?
 C11 C12 H12 120.0 . . ?
 C13 C12 C11 120.00(13) . . ?
 C13 C12 H12 120.0 . . ?
 N3 C15 C16 123.74(13) . . ?
 N3 C15 H15 118.1 . . ?
 C16 C15 H15 118.1 . . ?
 C1 C2 C7 117.42(11) . . ?
 C3 C2 C7 121.70(12) . . ?
 C3 C2 C1 120.88(13) . . ?
 C8 C13 H13 119.6 . . ?
 C12 C13 C8 120.77(12) . . ?
 C12 C13 H13 119.6 . . ?
 C6 C5 H5 119.2 . . ?
 C4 C5 C6 121.51(14) . . ?
 C4 C5 H5 119.2 . . ?
 N2 C14 C11 178.02(18) . . ?
 N4 C20 H20A 111.1 . . ?
 N4 C20 H20B 111.1 . . ?
 N4 C20 C21 103.38(12) . . ?
 H20A C20 H20B 109.1 . . ?
 C21 C20 H20A 111.1 . . ?
 C21 C20 H20B 111.1 . . ?
 C2 C3 H3 120.6 . . ?
 C4 C3 C2 118.87(14) . . ?
 C4 C3 H3 120.6 . . ?
 C5 C4 C3 120.30(13) . . ?
 C5 C4 H4 119.9 . . ?
 C3 C4 H4 119.9 . . ?
 C20 C21 H21A 111.1 . . ?
 C20 C21 H21B 111.1 . . ?
 H21A C21 H21B 109.1 . . ?
 C22 C21 C20 103.23(12) . . ?
 C22 C21 H21A 111.1 . . ?
 C22 C21 H21B 111.1 . . ?
 C23 C22 C21 104.16(11) . . ?
 C23 C22 H22A 110.9 . . ?
 C23 C22 H22B 110.9 . . ?
 C21 C22 H22A 110.9 . . ?
 C21 C22 H22B 110.9 . . ?
 H22A C22 H22B 108.9 . . ?

loop_
  _geom_torsion_atom_site_label_1
  _geom_torsion_atom_site_label_2
  _geom_torsion_atom_site_label_3
  _geom_torsion_atom_site_label_4
  _geom_torsion
  _geom_torsion_site_symmetry_1
  _geom_torsion_site_symmetry_2
  _geom_torsion_site_symmetry_3
  _geom_torsion_site_symmetry_4
  _geom_torsion_publ_flag
 Se1 N1 C8 C9 -159.83(11) . . . . ?
 Se1 N1 C8 C13 18.15(16) . . . . ?
 Se1 N1 C7 O1 -176.20(12) . . . . ?
 Se1 N1 C7 C2 3.14(15) . . . . ?
 Se1 N3 C19 C18 -177.26(11) . . . . ?
 Se1 N3 C15 C16 177.88(11) . . . . ?
 Se1 C1 C6 C5 179.64(12) . . . . ?
 Se1 C1 C2 C7 0.72(16) . . . . ?
 Se1 C1 C2 C3 -179.37(12) . . . . ?
 O1 C7 C2 C1 176.83(14) . . . . ?
 O1 C7 C2 C3 -3.1(2) . . . . ?
 N1 C8 C9 C10 178.32(12) . . . . ?
 N1 C8 C13 C12 -177.41(13) . . . . ?
 N1 C7 C2 C1 -2.54(18) . . . . ?
 N1 C7 C2 C3 177.54(13) . . . . ?
 N4 C17 C16 C15 -177.00(13) . . . . ?
 N4 C17 C18 C19 177.62(13) . . . . ?
 N4 C23 C22 C21 27.92(15) . . . . ?
 N4 C20 C21 C22 31.05(16) . . . . ?
 C8 N1 C7 O1 3.3(2) . . . . ?
 C8 N1 C7 C2 -177.31(12) . . . . ?
 C8 C9 C10 C11 -1.2(2) . . . . ?
 C17 N4 C23 C22 173.55(12) . . . . ?
 C17 N4 C20 C21 163.65(13) . . . . ?
 C17 C16 C15 N3 -1.0(2) . . . . ?
 C17 C18 C19 N3 -0.3(2) . . . . ?
 C9 C8 C13 C12 0.7(2) . . . . ?
 C7 N1 C8 C9 20.6(2) . . . . ?
 C7 N1 C8 C13 -161.38(13) . . . . ?
 C7 C2 C3 C4 179.11(14) . . . . ?
 C16 C17 C18 C19 -2.2(2) . . . . ?
 C18 C17 C16 C15 2.8(2) . . . . ?
 C11 C12 C13 C8 -0.7(2) . . . . ?
 C19 N3 C15 C16 -1.5(2) . . . . ?
 C1 C6 C5 C4 0.2(3) . . . . ?
 C1 C2 C3 C4 -0.8(2) . . . . ?
 C10 C11 C12 C13 -0.2(2) . . . . ?
 C23 N4 C17 C16 -178.31(12) . . . . ?
 C23 N4 C17 C18 1.9(2) . . . . ?
 C23 N4 C20 C21 -14.30(16) . . . . ?
 C6 C1 C2 C7 -179.39(13) . . . . ?
 C6 C1 C2 C3 0.5(2) . . . . ?
 C6 C5 C4 C3 -0.5(3) . . . . ?
 C12 C11 C10 C9 1.1(2) . . . . ?
 C15 N3 C19 C18 2.2(2) . . . . ?
 C2 C1 C6 C5 -0.2(2) . . . . ?
 C2 C3 C4 C5 0.8(3) . . . . ?
 C13 C8 C9 C10 0.3(2) . . . . ?
 C14 C11 C10 C9 -176.21(13) . . . . ?
 C14 C11 C12 C13 177.16(14) . . . . ?
 C20 N4 C17 C16 4.0(2) . . . . ?
 C20 N4 C17 C18 -175.87(13) . . . . ?
 C20 N4 C23 C22 -8.47(15) . . . . ?
 C20 C21 C22 C23 -36.75(16) . . . . ?

_shelx_res_file
;
TITL jmw_el1_mo2_a.res in P-1
    jmw_el1_mo2.res
    created by SHELXL-2018/3 at 13:57:29 on 09-Dec-2019
REM Old TITL jmw_EL1_Mo2 in P-1
REM SHELXT solution in P-1: R1 0.077, Rweak 0.010, Alpha 0.034
REM <I/s> 0.000 for 0 systematic absences, Orientation as input
REM Formula found by SHELXT: C23 N4 O Se
CELL 0.71073 9.7432 9.7525 12.2261 110.327 112.66 90.219
ZERR 4 0.0004 0.0004 0.0004 0.003 0.003 0.003
LATT 1
SFAC C H N O Se
UNIT 92 80 16 4 4

L.S. 4
PLAN  5
CONF
BOND
list 4
fmap 2
MORE -1
ACTA
BOND $H
OMIT -4 -5 4
OMIT 1 0 0
OMIT -5 -3 3
REM <olex2.extras>
REM <HklSrc "%./jmw_EL1_Mo2.hkl">
REM </olex2.extras>

WGHT    0.049200
FVAR       0.49020
SE1   5    0.432549    0.703880    0.428859    11.00000    0.01338    0.01625 =
         0.01720    0.00523    0.00657    0.00593
O1    4    0.713465    0.419627    0.339334    11.00000    0.02188    0.02639 =
         0.02554    0.00380    0.01139    0.01299
N1    3    0.616116    0.606045    0.452885    11.00000    0.01436    0.01778 =
         0.01898    0.00588    0.00818    0.00749
N3    3    0.211205    0.797692    0.384227    11.00000    0.01525    0.01943 =
         0.02295    0.00900    0.00869    0.00760
N4    3   -0.211295    0.929135    0.293641    11.00000    0.01289    0.01896 =
         0.02531    0.01124    0.00927    0.00568
C8    1    0.733268    0.649612    0.575356    11.00000    0.01383    0.01503 =
         0.01952    0.00680    0.00726    0.00503
C17   1   -0.074264    0.889635    0.325702    11.00000    0.01325    0.01519 =
         0.01753    0.00558    0.00731    0.00432
C9    1    0.880766    0.622916    0.595597    11.00000    0.01549    0.01763 =
         0.02325    0.00772    0.00980    0.00619
AFIX  43
H9    2    0.902735    0.572162    0.525919    11.00000   -1.20000
AFIX   0
N2    3    1.178460    0.857745    1.049868    11.00000    0.02802    0.03700 =
         0.02836    0.01224    0.00260    0.00570
C7    1    0.615936    0.498861    0.345597    11.00000    0.01709    0.01671 =
         0.02234    0.00641    0.01091    0.00649
C16   1    0.042191    0.954684    0.308517    11.00000    0.01548    0.02152 =
         0.03282    0.01576    0.01269    0.00757
AFIX  43
H16   2    0.026300    1.030642    0.277673    11.00000   -1.20000
AFIX   0
C18   1   -0.037292    0.780051    0.378514    11.00000    0.01738    0.02262 =
         0.02823    0.01496    0.01146    0.00658
AFIX  43
H18   2   -0.107756    0.735534    0.394952    11.00000   -1.20000
AFIX   0
C11   1    0.961987    0.750441    0.823494    11.00000    0.01689    0.01877 =
         0.02182    0.01011    0.00580    0.00392
C19   1    0.103271    0.739421    0.405537    11.00000    0.01828    0.02217 =
         0.02711    0.01323    0.00967    0.00757
AFIX  43
H19   2    0.125007    0.667303    0.440666    11.00000   -1.20000
AFIX   0
C1    1    0.372621    0.578671    0.254131    11.00000    0.01686    0.01733 =
         0.01884    0.00580    0.00815    0.00427
C10   1    0.994375    0.671490    0.718626    11.00000    0.01430    0.01856 =
         0.02770    0.01091    0.00845    0.00578
AFIX  43
H10   2    1.091447    0.651708    0.731329    11.00000   -1.20000
AFIX   0
C23   1   -0.333139    0.866899    0.313314    11.00000    0.01415    0.02604 =
         0.02461    0.00953    0.01070    0.00417
AFIX  23
H23A  2   -0.300696    0.877392    0.401835    11.00000   -1.20000
H23B  2   -0.366968    0.762893    0.258645    11.00000   -1.20000
AFIX   0
C6    1    0.239124    0.571647    0.151264    11.00000    0.02136    0.02344 =
         0.02147    0.00699    0.00620    0.00813
AFIX  43
H6    2    0.168279    0.631445    0.164241    11.00000   -1.20000
AFIX   0
C12   1    0.816129    0.777751    0.804596    11.00000    0.01890    0.02199 =
         0.02090    0.00847    0.00886    0.00494
AFIX  43
H12   2    0.794809    0.829958    0.874327    11.00000   -1.20000
AFIX   0
C15   1    0.178533    0.905361    0.337487    11.00000    0.01514    0.02235 =
         0.03071    0.01304    0.01294    0.00660
AFIX  43
H15   2    0.252593    0.948838    0.324047    11.00000   -1.20000
AFIX   0
C2    1    0.477428    0.487564    0.232777    11.00000    0.01750    0.01717 =
         0.02001    0.00513    0.00921    0.00450
C13   1    0.702735    0.727193    0.681966    11.00000    0.01432    0.02170 =
         0.02104    0.00819    0.00858    0.00576
AFIX  43
H13   2    0.605235    0.744781    0.670013    11.00000   -1.20000
AFIX   0
C5    1    0.214684    0.473416    0.029318    11.00000    0.02635    0.02963 =
         0.01970    0.00459    0.00318    0.00553
AFIX  43
H5    2    0.126478    0.468148   -0.039772    11.00000   -1.20000
AFIX   0
C14   1    1.081988    0.808485    0.950198    11.00000    0.02156    0.02392 =
         0.02797    0.01285    0.00820    0.00587
C20   1   -0.259318    1.035113    0.230875    11.00000    0.01819    0.02586 =
         0.04004    0.02046    0.01311    0.00967
AFIX  23
H20A  2   -0.227719    1.016562    0.161548    11.00000   -1.20000
H20B  2   -0.218653    1.136174    0.291490    11.00000   -1.20000
AFIX   0
C3    1    0.451556    0.389927    0.109644    11.00000    0.02538    0.02263 =
         0.02135    0.00258    0.01158    0.00548
AFIX  43
H3    2    0.522240    0.330382    0.095771    11.00000   -1.20000
AFIX   0
C4    1    0.318637    0.383180    0.008285    11.00000    0.02955    0.02960 =
         0.01760    0.00141    0.00783    0.00618
AFIX  43
H4    2    0.299245    0.317742   -0.074189    11.00000   -1.20000
AFIX   0
C21   1   -0.431149    1.006574    0.180116    11.00000    0.01797    0.03356 =
         0.03089    0.01639    0.01004    0.01102
AFIX  23
H21A  2   -0.473247    1.095857    0.177157    11.00000   -1.20000
H21B  2   -0.475379    0.929266    0.095204    11.00000   -1.20000
AFIX   0
C22   1   -0.457144    0.957985    0.277379    11.00000    0.01489    0.03367 =
         0.02460    0.00910    0.00993    0.00855
AFIX  23
H22A  2   -0.448907    1.043040    0.351776    11.00000   -1.20000
H22B  2   -0.555813    0.898646    0.239809    11.00000   -1.20000
AFIX   0
HKLF 4




REM  jmw_el1_mo2_a.res in P-1
REM wR2 = 0.0899, GooF = S = 1.037, Restrained GooF = 1.037 for all data
REM R1 = 0.0369 for 7367 Fo > 4sig(Fo) and 0.0547 for all 9250 data
REM 262 parameters refined using 0 restraints

END

WGHT      0.0492      0.0000

REM Highest difference peak  1.024,  deepest hole -0.612,  1-sigma level  0.090
Q1    1   0.4199  0.7633  0.4774  11.00000  0.05    1.02
Q2    1   0.4151  0.6738  0.3631  11.00000  0.05    0.85
Q3    1   0.3784  0.6572  0.4341  11.00000  0.05    0.77
Q4    1   0.4814  0.7475  0.4216  11.00000  0.05    0.65
Q5    1   0.7222  0.6851  0.6295  11.00000  0.05    0.64
;
_shelx_res_checksum                76953
_shelx_hkl_file
;
   0   0   2  172.83    4.38
   0   0   2  180.53    4.49
   0   0  -3  831.71   20.80
   0   0   3  875.67   21.01
   0   0   3  885.73   20.85
   0   0  -4   89.56    2.48
   0   0   4   91.33    2.76
   0   0  -4   89.04    2.69
   0   0   4   92.52    2.55
   0   0   4   86.07    2.31
   0   0   5  275.19    7.27
   0   0   5  279.43    7.00
   0   0   5  272.55    6.68
   0   0  -5  278.87    7.16
   0   0  -5  255.96    6.89
   0   0  -6  149.70    4.19
   0   0   6  159.05    4.34
   0   0   6  157.01    4.65
   0   0   6  156.72    3.89
   0   0   7  483.72   12.62
   0   0  -7  477.72   12.02
   0   0   8  487.18   12.01
   0   0   8  465.73   12.48
   0   0  -8  451.69   11.75
   0   0   8  463.13   11.91
   0   0  -9   89.96    3.86
   0   0   9   90.12    3.30
   0   0   9   97.21    3.95
   0   0  10   12.74    2.54
   0   0 -10   12.12    2.53
   0   0  10    9.30    1.95
   0   0  11   22.68    2.28
   0   0  11   22.79    3.11
   0   0 -11   24.91    3.07
   0   0 -12   59.37    4.13
   0   0  12   53.83    2.90
   0   0  12   60.01    4.28
   0   0 -13   74.87    4.82
   0   0  13   79.62    4.97
   0   0 -14   12.82    3.86
   0   0  14   21.90    4.30
   0   0 -15   34.65    4.67
   0   0  15   28.84    4.79
   0   0 -16   11.69    4.55
   0   0  16    5.75    4.86
   0   0  17   -3.19    5.14
   0  -1  17   12.66    5.12
   0   1 -17   12.75    4.92
   0  -1  16   15.01    4.82
   0   1 -16   17.30    4.50
   0  -1  15    5.72    4.18
   0  -1  14   24.07    4.15
   0  -1  13   88.99    5.01
   0  -1  12   72.56    3.10
   0  -1  12   80.63    4.40
   0  -1  11  108.20    4.74
   0  -1  11  101.64    3.65
   0  -1  11  107.26    4.73
   0  -1  10   23.74    2.61
   0  -1  10   20.15    2.52
   0  -1  10   17.58    1.84
   0  -1   9    4.53    2.01
   0  -1   9    2.96    1.43
   0  -1   9    2.39    1.88
   0  -1   8  145.46    4.76
   0  -1   8  146.42    4.21
   0  -1   8  142.20    4.80
   0  -1   7    8.92    1.11
   0  -1   7    9.14    1.48
   0  -1   7    9.71    0.99
   0  -1   7   12.09    1.55
   0  -1   6  344.39    8.64
   0  -1   6  343.13    8.57
   0  -1   6  340.02    9.11
   0  -1   5  950.31   23.02
   0  -1   5  925.44   23.05
   0  -1   5  996.66   23.68
   0  -1   5 1022.04   23.27
   0  -1   5  992.93   23.24
   0  -1   4  572.62   14.17
   0  -1   4  589.62   14.33
   0  -1   4  587.81   14.62
   0   1  -4  605.44   14.19
   0  -1   4  584.82   14.27
   0  -1   3  615.77   15.35
   0   1  -3  668.89   15.35
   0  -1   3  624.94   15.33
   0  -1   3  629.42   15.54
   0  -1   3  638.40   15.33
   0  -1   3  634.87   15.45
   0  -1   2  232.27    5.69
   0  -1   2  228.06    5.76
   0  -1   2  239.07    5.77
   0  -1   2  231.58    5.70
   0  -1   1   36.08    1.01
   0   1  -1   35.61    1.01
   0  -1   1   35.49    1.01
   0   1  -1   36.87    1.02
   0   1   0  124.94    3.10
   0   1   1  457.59   10.98
   0   1   1  440.37   10.85
   0   1   1  450.43   10.85
   0   1   2 4972.45  118.25
   0  -1  -2 4930.46  118.03
   0   1   2 4924.70  118.05
   0  -1  -2 4945.33  118.02
   0   1   2 4954.65  118.22
   0   1   2 4897.37  118.05
   0   1   3 1697.70   40.46
   0  -1  -3 1679.64   40.14
   0   1   3 1702.01   40.45
   0   1   3 1652.76   40.17
   0  -1  -3 1666.15   40.47
   0  -1  -4  264.88    6.47
   0  -1  -4  269.70    6.46
   0   1   4  266.81    6.91
   0  -1  -4  270.92    6.98
   0  -1  -4  259.36    6.48
   0   1   4  259.83    6.49
   0  -1  -4  282.22    6.97
   0  -1  -4  274.91    6.79
   0   1   4  270.81    6.93
   0  -1  -5   16.92    1.11
   0   1   5   17.25    1.29
   0  -1  -5   16.88    1.31
   0   1   5   16.62    1.31
   0  -1  -5   17.80    1.28
   0   1   6   -0.45    1.25
   0  -1  -6   -0.07    1.00
   0  -1  -6    0.69    1.19
   0  -1  -7  105.34    3.85
   0  -1  -7  113.98    3.71
   0   1   7  113.78    3.68
   0  -1  -7  113.56    3.42
   0  -1  -8   16.03    2.01
   0   1   8   15.93    1.87
   0   1   9  232.38    6.74
   0  -1  -9  234.60    7.16
   0  -1 -10  229.62    7.19
   0   1  10  210.36    6.49
   0   1  10  226.50    7.29
   0   1  11  114.85    5.14
   0  -1 -11  116.49    5.00
   0   1  11  102.18    4.11
   0  -1 -12    1.08    3.14
   0   1  12    2.15    3.44
   0   1  12   -0.56    2.37
   0  -1 -13   -2.16    3.53
   0   1  13    5.39    3.90
   0   1  14   -0.23    4.14
   0  -1 -14    6.41    4.08
   0   1  15    5.83    4.65
   0  -1 -15    9.91    4.37
   0  -1 -16    4.66    4.67
   0   1  16    9.49    5.17
   0  -2  17   24.43    5.19
   0  -2  16   58.93    5.39
   0  -2  15   25.01    4.34
   0  -2  14   14.46    3.83
   0  -2  13    2.51    3.15
   0  -2  13    2.14    3.24
   0  -2  12    2.98    1.75
   0  -2  12    0.34    2.74
   0  -2  12   -3.33    2.91
   0  -2  11   70.90    3.84
   0  -2  11   70.49    3.83
   0  -2  10    0.98    2.12
   0  -2  10    3.36    2.13
   0  -2  10    2.63    1.40
   0  -2   9    6.78    1.93
   0  -2   9    4.62    1.25
   0  -2   9    3.98    1.84
   0  -2   8  256.91    6.47
   0  -2   8  258.04    6.49
   0  -2   8  306.26    6.89
   0  -2   8  299.96    7.75
   0  -2   8  251.95    6.51
   0  -2   8  293.98    7.60
   0  -2   8  296.60    6.97
   0  -2   7  314.06    7.51
   0  -2   7  296.98    8.19
   0  -2   7  302.20    7.65
   0  -2   7  284.24    7.37
   0   2  -7  296.92    8.20
   0  -2   7  297.06    7.33
   0   2  -7  308.19    7.37
   0  -2   7  285.88    7.31
   0  -2   6  322.84    8.80
   0  -2   6  322.51    8.15
   0   2  -6  317.46    8.78
   0  -2   6  331.79    8.40
   0   2  -6  342.83    8.20
   0  -2   6  332.34    8.19
   0  -2   6  328.24    8.66
   0  -2   5   35.38    1.17
   0   2  -5   34.30    1.65
   0  -2   5   36.52    1.57
   0  -2   5   36.96    1.23
   0   2  -5   39.44    1.31
   0  -2   5   37.47    1.49
   0  -2   5   34.96    1.24
   0   2  -4  548.67   13.21
   0  -2   4  538.15   13.17
   0  -2   4  529.56   13.32
   0   2  -4  511.56   13.46
   0  -2   4  534.42   13.19
   0  -2   4  535.70   13.41
   0  -2   4  551.43   13.37
   0   2  -4  559.35   13.20
   0   2  -3  285.56    6.91
   0   2  -3  282.30    6.93
   0  -2   3  277.85    6.92
   0  -2   3  265.93    7.03
   0  -2   3  275.94    6.96
   0  -2   3  278.11    6.94
   0  -2   3  276.77    7.02
   0  -2   2  221.13    5.60
   0  -2   2  224.85    5.66
   0  -2   2  219.24    5.61
   0  -2   2  225.73    5.55
   0   2   0  161.45    4.19
   0  -2   0  162.05    4.16
   0   2   0  158.08    4.14
   0   2   0  171.16    4.22
   0   2   1 2643.03   62.84
   0   2   1 2619.08   62.83
   0   2   1 2575.59   62.75
   0   2   1 2660.23   63.01
   0   2   2 1975.14   47.18
   0   2   2 1980.18   47.38
   0  -2  -2 1967.60   47.12
   0   2   2 1919.72   47.06
   0  -2  -2 1985.03   47.36
   0   2   2 1912.69   47.17
   0  -2  -2 2015.15   47.15
   0   2   2 1982.36   47.43
   0  -2  -3    2.14    0.59
   0   2   3    1.09    0.67
   0  -2  -3    2.33    0.58
   0   2   3    1.53    0.92
   0   2   3    1.94    0.46
   0   2   3    2.29    0.99
   0   2   4 2419.67   55.74
   0  -2  -4 2462.65   55.22
   0   2   4 2425.98   55.28
   0  -2  -4 2454.88   55.47
   0  -2  -4 2501.14   55.67
   0  -2  -5 1070.73    5.10
   0   2   5 1086.08    7.66
   0  -2  -5 1090.13    6.59
   0  -2  -5 1080.25    4.94
   0  -2  -5 1090.61    7.60
   0   2   6  445.10   10.85
   0  -2  -6  464.55   10.92
   0  -2  -6  410.26    9.98
   0  -2  -6  389.33    9.99
   0  -2  -6  403.89    9.95
   0   2   6  402.63   10.04
   0  -2  -6  442.45   10.50
   0  -2  -6  467.10   10.81
   0   2   7  123.01    4.18
   0  -2  -7  123.47    4.27
   0   2   8  141.64    4.73
   0  -2  -8  138.12    4.87
   0   2   9    2.05    2.22
   0  -2  -9   -1.16    2.09
   0  -2 -10   13.85    2.73
   0   2  10   15.53    2.55
   0   2  11   99.47    5.05
   0   2  11   92.39    4.14
   0  -2 -11   99.43    4.75
   0   2  12   43.00    4.36
   0  -2 -12   40.78    3.97
   0  -2 -13   83.20    5.17
   0   2  13   96.92    5.73
   0  -2 -14   33.52    4.67
   0   2  14   37.11    4.97
   0  -2 -15   13.10    4.56
   0   2  15    1.32    4.88
   0  -3  18   14.84    5.16
   0  -3  17   13.11    4.81
   0  -3  16    0.23    4.21
   0  -3  15    0.32    3.77
   0   3 -15    4.60    4.08
   0  -3  15    2.48    3.85
   0  -3  14   72.69    4.78
   0   3 -14   66.48    4.85
   0  -3  14   80.81    4.89
   0  -3  13   71.85    4.46
   0  -3  13   72.01    4.38
   0  -3  12  198.07    6.81
   0  -3  12  193.79    6.89
   0  -3  11    7.89    2.54
   0  -3  11    4.81    2.30
   0  -3  10  168.09    4.32
   0  -3  10  200.50    6.04
   0  -3  10  204.27    5.88
   0  -3  10  154.50    4.34
   0  -3  10  194.16    4.72
   0  -3   9   21.53    1.16
   0  -3   9   23.57    2.27
   0  -3   9   22.73    1.79
   0  -3   9   24.41    1.28
   0  -3   9   20.64    1.09
   0   3  -9   20.29    1.19
   0  -3   9   19.29    1.18
   0  -3   9   22.03    2.12
   0  -3   8  104.49    2.79
   0  -3   8   97.99    3.75
   0  -3   8   95.90    2.79
   0  -3   8   99.23    2.83
   0  -3   8  103.57    3.58
   0   3  -8  103.93    2.92
   0  -3   8  101.02    3.23
   0  -3   7  114.90    3.04
   0  -3   7  111.77    3.19
   0   3  -7  115.25    3.28
   0  -3   7  116.69    3.53
   0  -3   6  118.24    3.33
   0  -3   6  115.45    3.10
   0  -3   6  119.77    3.29
   0   3  -6  124.79    3.41
   0  -3   6  121.54    3.57
   0  -3   6  120.96    3.60
   0  -3   5  275.39    7.16
   0   3  -5  286.30    7.21
   0  -3   5  274.25    7.12
   0  -3   5  292.16    7.32
   0  -3   5  285.98    7.38
   0  -3   5  281.09    7.35
   0  -3   4  750.14   18.30
   0  -3   4  733.52   18.40
   0   3  -4  766.19   18.33
   0   3  -4  762.02   18.20
   0  -3   4  728.92   18.24
   0  -3   4  729.56   18.29
   0   3  -4  769.27   18.31
   0  -3   4  735.58   18.40
   0  -3   3  414.40   10.27
   0  -3   3  401.27   10.15
   0  -3   3  399.17   10.20
   0   3  -3  414.80   10.02
   0  -3   2  234.02    5.98
   0  -3   2  225.56    5.92
   0   3  -2  232.82    5.99
   0   3  -1 1605.36   38.79
   0  -3   0  434.00   11.11
   0   3   0  438.69   11.11
   0   3   0  460.22   11.22
   0   3   0  468.45   11.18
   0   3   1  294.49    7.27
   0   3   1  283.18    7.47
   0  -3  -1  284.32    7.16
   0   3   1  275.94    7.12
   0   3   1  280.34    7.22
   0  -3  -2  573.41   13.86
   0  -3  -2  593.62   14.18
   0   3   2  566.15   14.27
   0  -3  -2  562.07   13.91
   0   3   2  583.11   13.96
   0   3   2  572.80   13.98
   0   3   2  527.78   13.79
   0  -3  -3 1854.70   43.19
   0   3   3 1723.91   42.75
   0  -3  -3 1801.51   42.89
   0  -3  -3 1798.88   42.83
   0   3   3 1789.80   42.95
   0   3   3 1724.12   43.30
   0   3   4  371.29   10.06
   0   3   4  380.91    9.58
   0  -3  -4  366.69    9.67
   0  -3  -4  390.60    9.48
   0  -3  -5    5.48    0.88
   0   3   5    4.83    1.08
   0   3   5    4.22    1.67
   0  -3  -5    5.51    1.36
   0   3   6  380.51   10.08
   0   3   6  370.35    9.28
   0  -3  -6  397.43   10.03
   0  -3  -6  379.82    9.12
   0  -3  -6  375.94    9.17
   0  -3  -7  908.24   21.57
   0  -3  -7  844.18   21.58
   0  -3  -7 1031.23   22.74
   0   3   7  884.66   21.66
   0   3   7 1009.93   22.71
   0  -3  -7  880.35   21.52
   0   3   8  177.47    5.88
   0  -3  -8  183.92    5.96
   0  -3  -9  102.01    4.30
   0   3   9   89.26    4.12
   0  -3 -10   37.75    3.37
   0  -3 -11   21.79    3.31
   0   3  11   21.36    3.84
   0  -3 -12    3.01    3.42
   0   3  12    2.28    3.82
   0   3  13   17.77    4.57
   0  -3 -13   26.82    4.14
   0  -3 -14   48.58    5.03
   0   3  14   44.87    5.43
   0  -3 -15   46.93    5.28
   0   3  15   50.21    5.87
   0  -4  18    0.13    4.76
   0  -4  17   22.48    4.70
   0  -4  16   49.43    4.85
   0  -4  16   57.64    5.06
   0  -4  15   73.57    5.06
   0  -4  15   89.10    5.38
   0  -4  14   21.59    3.76
   0  -4  14   25.53    3.77
   0  -4  13    1.57    3.04
   0  -4  13   -0.17    2.96
   0  -4  12   73.67    4.15
   0  -4  12   71.01    3.97
   0  -4  11  100.11    4.07
   0  -4  11  100.27    4.27
   0  -4  11   81.42    2.66
   0  -4  11   82.67    2.54
   0  -4  11   85.41    2.59
   0  -4  10  252.76    7.39
   0  -4  10  251.73    6.88
   0  -4  10  248.65    6.39
   0  -4  10  252.02    7.68
   0  -4  10  250.06    6.23
   0  -4  10  232.00    6.31
   0   4 -10  259.07    6.49
   0  -4  10  226.82    6.45
   0  -4   9  173.20    5.77
   0  -4   9  175.33    5.47
   0   4  -9  182.74    4.90
   0  -4   9  160.42    4.83
   0  -4   9  175.38    5.18
   0  -4   9  172.10    4.77
   0  -4   9  170.06    4.71
   0  -4   9  180.29    4.50
   0  -4   8   62.42    1.82
   0  -4   8   66.53    2.64
   0   4  -8   62.75    2.34
   0  -4   8   59.89    2.23
   0   4  -7  135.03    3.77
   0  -4   7  124.02    3.92
   0  -4   7  131.57    3.67
   0  -4   7  127.47    3.59
   0  -4   7  118.61    3.24
   0  -4   7  126.59    3.92
   0  -4   6   33.11    1.64
   0  -4   6   33.29    1.57
   0  -4   6   30.49    1.78
   0  -4   6   33.02    1.73
   0   4  -6   31.76    1.69
   0  -4   6   31.48    1.50
   0   4  -5   37.22    1.73
   0  -4   5   34.97    1.61
   0   4  -5   39.31    1.63
   0   4  -5   36.10    1.36
   0  -4   5   38.06    1.73
   0  -4   5   35.15    1.56
   0  -4   5   34.40    1.52
   0  -4   5   35.20    1.79
   0   4  -4    8.14    0.69
   0   4  -4    8.82    1.06
   0  -4   4    7.85    1.14
   0  -4   4    7.32    0.99
   0  -4   4    6.94    1.00
   0  -4   3  841.08   20.88
   0  -4   3  844.85   20.81
   0   4  -3  855.51   20.62
   0  -4   2   94.84    3.02
   0   4  -2   89.12    2.81
   0   4  -1  340.34    8.73
   0   4  -1  348.36    8.81
   0  -4   1  331.57    8.73
   0  -4   1  337.35    8.58
   0   4  -1  344.82    8.69
   0   4   0   58.47    2.10
   0   4   0   60.75    2.03
   0  -4   0   53.98    1.94
   0   4   0   57.37    2.16
   0   4   1   29.52    1.58
   0   4   1   29.98    1.51
   0   4   1   29.02    1.38
   0  -4  -1   26.66    1.37
   0  -4  -1   26.89    1.37
   0  -4  -1   27.77    1.44
   0  -4  -2  501.42    3.60
   0  -4  -2  507.56    3.85
   0   4   2  465.72    3.41
   0   4   2  485.64    3.93
   0   4   2  478.44    5.07
   0   4   2  476.22    4.11
   0  -4  -3   80.67    2.37
   0   4   3   79.13    2.63
   0  -4  -3   80.11    2.45
   0  -4  -4   58.11    2.11
   0   4   4   58.96    2.87
   0   4   4   62.28    2.37
   0   4   5  477.11   12.72
   0   4   5  481.63   12.06
   0  -4  -5  471.40   11.89
   0   4   6  116.85    4.36
   0  -4  -6  115.27    3.26
   0  -4  -6  103.21    3.24
   0  -4  -6  108.34    3.12
   0   4   6  110.71    3.44
   0  -4  -7   30.03    1.51
   0   4   7   31.37    1.84
   0  -4  -7   30.51    1.38
   0  -4  -7   36.87    2.62
   0  -4  -7   33.27    1.55
   0   4   7   36.59    2.99
   0  -4  -8    0.97    0.88
   0  -4  -8    0.82    0.91
   0  -4  -8    1.53    0.98
   0  -4  -8   -0.20    2.27
   0  -4  -9  129.27    5.16
   0  -4 -10  105.69    4.96
   0  -4 -11   33.58    3.73
   0  -4 -12   61.65    4.62
   0  -4 -13   20.47    4.36
   0   4  13   25.09    4.94
   0  -4 -14    2.26    4.43
   0   4  14   -1.59    5.02
   0  -5  18    3.25    4.66
   0  -5  18    5.10    4.89
   0  -5  17    1.30    4.26
   0  -5  17    4.14    4.58
   0  -5  16    1.43    3.86
   0  -5  16    1.28    4.14
   0  -5  15    9.24    3.73
   0  -5  15   15.07    4.02
   0  -5  14   92.23    5.17
   0  -5  14   91.25    4.90
   0  -5  13  138.90    5.67
   0  -5  13  142.33    5.98
   0   5 -12   97.53    3.18
   0  -5  12  108.30    4.95
   0  -5  12   95.91    3.08
   0  -5  12  103.33    4.48
   0  -5  11   43.86    2.23
   0  -5  11   49.95    3.54
   0  -5  11   50.74    2.27
   0  -5  11   49.10    2.11
   0  -5  11   52.15    3.20
   0  -5  10   22.93    1.77
   0  -5  10   22.80    0.95
   0  -5  10   21.78    2.35
   0  -5  10   28.55    2.41
   0  -5  10   17.58    1.73
   0  -5  10   24.94    1.61
   0  -5   9  107.67    3.89
   0  -5   9  104.75    3.41
   0  -5   9  105.72    2.76
   0  -5   9  104.16    3.81
   0  -5   8   72.53    2.86
   0  -5   8   67.21    1.97
   0  -5   8   72.50    2.56
   0  -5   8   73.17    2.99
   0  -5   8   73.76    2.67
   0  -5   7   22.04    1.61
   0  -5   7   24.38    1.65
   0  -5   7   23.98    1.55
   0  -5   7   24.86    1.94
   0   5  -6  608.50   14.58
   0  -5   6  626.25   15.00
   0  -5   6  574.76   14.81
   0  -5   6  579.37   14.75
   0  -5   6  583.26   14.86
   0  -5   6  564.92   15.00
   0   5  -5   23.30    1.09
   0  -5   5   22.97    1.50
   0  -5   5   21.51    1.70
   0  -5   5   22.22    1.45
   0  -5   4    3.69    1.16
   0   5  -4    3.82    0.72
   0  -5   4    3.62    1.11
   0  -5   3  190.87    5.52
   0  -5   3  195.58    5.43
   0   5  -2   53.38    2.10
   0  -5   2   47.71    1.79
   0  -5   1  291.53    7.66
   0   5  -1  298.50    7.80
   0  -5   1  300.87    7.75
   0  -5   0  144.43    4.09
   0   5   0  142.31    4.12
   0  -5   0  138.21    4.03
   0  -5  -1  573.04   14.29
   0   5   1  550.06   14.29
   0  -5  -1  562.35   14.32
   0  -5  -2  212.44    5.73
   0  -5  -2  222.04    6.21
   0  -5  -2  206.63    5.83
   0  -5  -3   -0.52    1.28
   0  -5  -3    0.88    1.17
   0   5   4    1.24    1.64
   0  -5  -4    2.89    1.32
   0  -5  -5    4.15    1.36
   0   5   5    2.58    1.69
   0  -5  -6   12.27    1.52
   0   5   6    9.70    1.86
   0  -5  -6    9.55    1.27
   0   5   7  319.04    8.43
   0  -5  -7  317.70    8.07
   0  -5  -7  294.11    8.19
   0  -5  -7  322.10    8.19
   0  -5  -8  302.24    7.74
   0   5   8  311.92    7.98
   0  -5  -8  282.20    7.74
   0  -5  -8  300.05    7.64
   0  -5  -9   62.12    1.93
   0  -5  -9   98.64    4.33
   0  -5 -10   -0.17    3.19
   0  -5 -11   19.34    3.74
   0  -5 -12   16.14    4.06
   0  -5 -13   16.47    4.37
   0  -5 -14   39.51    5.16
   0  -6  18   20.85    5.08
   0  -6  18   27.75    4.97
   0  -6  17   39.43    4.77
   0  -6  17   35.24    5.13
   0  -6  16   43.27    4.91
   0  -6  16   35.62    4.40
   0  -6  15    0.11    3.94
   0  -6  15   -3.22    3.49
   0  -6  14    1.60    3.15
   0  -6  14    1.16    3.56
   0  -6  13   27.44    3.24
   0  -6  13   20.46    1.87
   0  -6  13   19.59    3.61
   0  -6  12   37.42    3.60
   0  -6  12   29.37    3.00
   0  -6  12   29.84    2.16
   0   6 -12   35.12    2.34
   0  -6  11  276.87    8.25
   0   6 -11  283.91    7.70
   0  -6  11  270.29    7.53
   0   6 -10  254.98    7.16
   0  -6  10  251.43    7.41
   0  -6  10  248.25    7.43
   0  -6  10  249.43    6.98
   0  -6   9  229.00    5.90
   0   6  -9  231.05    6.06
   0  -6   9  223.11    6.26
   0  -6   9  215.02    6.11
   0   6  -8   15.27    2.01
   0  -6   8   13.46    1.82
   0  -6   8   15.65    2.12
   0  -6   8   13.90    1.70
   0   6  -7    2.34    1.75
   0  -6   7    2.22    1.80
   0  -6   7    1.25    1.56
   0   6  -6  151.45    4.01
   0  -6   6  145.82    4.55
   0  -6   6  138.13    4.66
   0   6  -6  144.85    4.69
   0  -6   5  479.14   12.25
   0  -6   5  460.00   12.30
   0   6  -5  476.64   11.74
   0  -6   4  244.69    6.98
   0  -6   4  238.20    6.56
   0   6  -4  258.64    6.51
   0  -6   3  471.70   11.68
   0  -6   3  424.43   11.07
   0   6  -2    4.97    1.57
   0  -6   2    4.88    1.12
   0  -6   1  161.34    4.74
   0   6  -1  182.33    5.27
   0   6   0   25.71    2.06
   0  -6   0   28.15    1.88
   0  -6  -1   54.11    2.41
   0   6   1   51.06    2.64
   0   6   2  160.75    5.28
   0  -6  -2  178.56    5.10
   0  -6  -3  397.68   10.22
   0   6   3  379.39   10.46
   0  -6  -4  351.22    9.21
   0   6   4  343.57    9.48
   0  -6  -5   50.61    2.42
   0   6   5   50.80    2.84
   0   6   6    6.36    2.16
   0  -6  -6    8.04    1.75
   0   6   7   -3.82    2.14
   0  -6  -7    0.67    1.61
   0  -6  -8   20.23    1.78
   0  -6  -8   24.08    3.19
   0  -6  -9   75.37    4.41
   0  -6 -10  128.38    5.81
   0  -6 -11   56.56    4.55
   0   6  11   47.85    5.06
   0  -6 -12   32.08    4.44
   0   6  12   39.59    5.12
   0   6  13    4.76    5.01
   0  -6 -13   -1.98    4.39
   0  -7  18    0.13    4.90
   0  -7  17   47.46    5.39
   0  -7  17   32.33    4.50
   0  -7  16   44.23    5.08
   0  -7  16   41.80    4.41
   0  -7  15   32.80    4.55
   0  -7  15   31.93    3.90
   0  -7  14   18.49    3.87
   0  -7  14   16.56    3.31
   0   7 -14   16.23    2.24
   0  -7  13   33.68    3.94
   0  -7  13   33.92    3.32
   0  -7  13   28.89    2.37
   0   7 -13   29.68    2.57
   0   7 -12   14.55    2.39
   0  -7  12   15.69    2.73
   0  -7  12   16.67    2.25
   0  -7  11    3.59    2.20
   0  -7  11    4.18    2.06
   0   7 -11    4.91    2.22
   0  -7  10   70.81    3.22
   0  -7  10   77.51    3.40
   0   7 -10   80.87    3.50
   0  -7   9  273.73    7.68
   0  -7   9  274.42    7.32
   0   7  -9  285.32    7.57
   0   7  -8  366.74    9.45
   0  -7   8  359.65    9.24
   0  -7   8  356.70    9.49
   0  -7   7  209.59    5.80
   0   7  -7  240.89    6.78
   0   7  -7  230.06    5.86
   0  -7   7  221.42    6.71
   0  -7   7  228.51    6.56
   0  -7   6   11.83    1.20
   0   7  -6   15.73    2.19
   0  -7   6   14.38    2.16
   0   7  -6   13.84    1.07
   0  -7   6   13.87    1.94
   0  -7   5   36.01    1.72
   0   7  -5   37.41    1.52
   0  -7   5   35.94    2.37
   0   7  -4   23.08    1.31
   0  -7   4   25.41    2.08
   0  -7   4   21.90    1.50
   0  -7   3  224.07    6.20
   0   7  -3  237.69    6.90
   0   7  -2  137.37    4.76
   0   7  -1  112.56    4.22
   0  -7   0   92.33    3.49
   0   7   0   92.02    3.82
   0  -7  -1   69.67    3.01
   0   7   1   69.05    3.36
   0  -7  -2   23.65    2.13
   0   7   2   26.71    2.63
   0   7   3    2.13    2.33
   0  -7  -3    4.89    1.85
   0   7   4   65.15    3.49
   0  -7  -4   63.10    2.92
   0   7   5    8.64    2.46
   0  -7  -5   10.44    2.01
   0   7   6   73.12    3.56
   0  -7  -6   72.02    3.12
   0   7   7   50.68    3.14
   0  -7  -7   48.02    2.59
   0  -7  -8   40.64    3.67
   0  -7  -8   29.39    2.20
   0  -7  -9   -0.35    3.32
   0   7  10   10.20    4.21
   0  -7 -10    5.00    3.67
   0   7  11    4.44    4.55
   0  -7 -11    6.26    3.98
   0  -7 -12   46.25    4.89
   0   7  12   46.76    5.65
   0  -8  18   24.97    5.32
   0  -8  17   -2.93    4.77
   0  -8  16    5.38    4.54
   0  -8  15    1.15    3.27
   0  -8  15   -0.12    4.19
   0   8 -14   55.24    3.33
   0  -8  14   56.50    3.95
   0   8 -13   79.32    3.83
   0  -8  13   83.98    3.70
   0   8 -12   47.08    3.28
   0  -8  12   46.61    3.06
   0   8 -11   62.18    3.55
   0  -8  11   67.75    3.40
   0  -8  10    7.42    2.30
   0   8 -10    9.73    2.65
   0  -8   9   49.11    1.79
   0   8  -9   54.27    3.33
   0  -8   9   54.15    3.06
   0  -8   8   28.40    1.49
   0   8  -8   27.93    2.94
   0  -8   8   31.50    2.60
   0  -8   7  152.75    5.20
   0   8  -7  154.61    5.48
   0   8  -7  163.39    4.25
   0  -8   7  161.42    5.40
   0   8  -6  341.25    9.77
   0   8  -6  351.49    8.59
   0  -8   6  321.14    8.73
   0  -8   6  337.68    9.47
   0   8  -5  352.67    8.68
   0  -8   5  332.71    8.83
   0  -8   5  320.73    9.47
   0  -8   4  200.71    6.30
   0   8  -4  207.30    6.67
   0   8  -3   89.44    4.05
   0   8  -2    0.78    2.38
   0  -8   1   14.93    2.21
   0   8  -1   13.30    2.66
   0  -8   0   24.12    2.37
   0   8   0   20.25    2.78
   0   8   1  146.46    5.38
   0  -8  -1  137.99    4.84
   0   8   2   50.91    3.56
   0  -8  -2   52.41    2.97
   0  -8  -3   76.09    3.55
   0   8   3   82.66    4.09
   0  -8  -4  116.83    4.32
   0   8   4  113.06    4.74
   0   8   5  139.81    5.25
   0  -8  -5  132.29    4.72
   0   8   6    8.13    2.90
   0  -8  -6    7.84    2.28
   0  -8  -7   26.33    2.53
   0  -8  -8   79.19    4.74
   0  -8  -9    9.66    3.77
   0   8  10   37.03    4.98
   0  -8 -10   32.17    4.36
   0  -8 -11   21.61    4.46
   0   8  11   16.32    5.07
   0  -9  18    9.23    5.33
   0  -9  17    4.02    5.04
   0  -9  16   22.19    4.96
   0   9 -15   36.71    3.26
   0  -9  15   45.24    5.21
   0   9 -14   -2.36    2.91
   0  -9  14   -3.94    4.23
   0  -9  14   -0.10    2.70
   0  -9  13    1.39    2.72
   0   9 -13    2.68    2.91
   0  -9  12   24.20    2.99
   0   9 -12   23.17    3.19
   0  -9  11   29.93    2.96
   0   9 -11   29.70    3.25
   0   9 -10   88.82    4.42
   0  -9  10   85.46    4.05
   0   9  -9  195.31    6.64
   0  -9   9  181.70    6.18
   0  -9   8   97.74    4.23
   0   9  -8   98.06    4.66
   0  -9   7  112.32    4.50
   0  -9   7  104.09    3.45
   0   9  -7  111.91    3.22
   0   9  -6   19.22    1.30
   0  -9   6   19.77    2.69
   0   9  -5   68.42    2.36
   0  -9   5   60.81    3.46
   0   9  -4  356.62   10.59
   0   9  -3   77.68    4.21
   0   9  -2  232.38    7.67
   0   9  -1  232.87    7.97
   0  -9   1  254.80    7.54
   0  -9   0   70.70    3.69
   0   9   0   76.86    4.32
   0  -9  -1    9.44    2.52
   0   9   1    8.73    3.19
   0   9   2    2.52    3.06
   0  -9  -2   -0.94    2.52
   0   9   3   63.68    4.13
   0  -9  -3   62.07    3.53
   0   9   4  132.87    5.55
   0  -9  -4  135.88    5.00
   0  -9  -5   58.51    3.44
   0   9   5   54.22    3.99
   0   9   6   54.25    3.91
   0  -9  -6   47.34    3.19
   0  -9  -7   10.42    2.55
   0  -9  -8   -1.30    3.71
   0   9   9    3.46    4.35
   0  -9  -9    7.39    3.93
   0   9  10   19.91    4.93
   0  -9 -10   21.11    4.43
   0 -10  17    9.62    5.12
   0 -10  16    3.08    5.07
   0  10 -15    3.22    3.16
   0 -10  15    6.27    4.74
   0  10 -14   13.55    3.34
   0 -10  14    8.83    3.13
   0  10 -13   94.05    4.86
   0 -10  13   92.77    4.57
   0  10 -12   89.89    4.71
   0 -10  12   84.27    4.45
   0  10 -11    1.56    3.24
   0 -10  11   -1.03    2.87
   0 -10  10   28.17    3.27
   0  10 -10   33.13    3.73
   0 -10   9   20.73    3.14
   0  10  -9   24.21    3.69
   0 -10   8   59.33    3.77
   0  10  -8   59.38    4.35
   0 -10   7   39.31    3.40
   0  10  -7   38.68    1.69
   0 -10   6   99.66    4.57
   0  10  -6  101.83    3.08
   0  10  -5   99.01    3.13
   0 -10   5   90.51    4.44
   0  10  -5   99.07    5.17
   0  10  -4  109.34    5.34
   0  10  -3    0.35    3.31
   0  10  -2   38.14    4.00
   0  10  -1  115.73    5.68
   0 -10   1  124.50    5.08
   0 -10   0  167.93    6.02
   0  10   0  164.53    6.65
   0  10   1   76.20    4.82
   0 -10  -1   76.93    4.07
   0  10   2   75.32    4.77
   0 -10  -2   74.82    4.04
   0  10   3    1.21    3.55
   0 -10  -3   -3.38    2.90
   0  10   4    4.95    3.59
   0 -10  -4   -2.20    2.87
   0 -10  -5   14.03    3.03
   0  10   5   14.37    3.72
   0 -10  -6   13.62    2.91
   0 -10  -7    6.80    3.73
   0 -10  -8   14.77    4.12
   0  10   8   11.31    4.46
   0  10   9   51.36    5.56
   0 -10  -9   54.08    5.03
   0 -11  17   20.12    5.75
   0 -11  16    0.59    5.26
   0  11 -15   -2.39    3.53
   0 -11  14    2.83    3.44
   0  11 -14    4.29    3.61
   0 -11  13    8.72    3.44
   0  11 -13    5.76    3.70
   0  11 -12   21.99    3.90
   0 -11  12   22.64    3.59
   0  11 -11   52.63    4.48
   0 -11  11   49.30    4.01
   0 -11  10   20.58    3.50
   0  11 -10   23.64    4.00
   0 -11   9   51.17    3.96
   0  11  -9   55.43    4.60
   0 -11   8    7.40    3.21
   0  11  -8   11.29    3.92
   0 -11   7    3.87    3.12
   0  11  -7    0.87    3.85
   0 -11   6   41.32    3.74
   0  11  -5    6.80    3.93
   0  11  -4   59.08    4.85
   0 -11   4   60.46    4.12
   0  11  -3  135.76    6.44
   0 -11   2  267.10    8.65
   0  11  -2  273.44    9.46
   0 -11   1    1.76    3.18
   0  11  -1   14.74    4.15
   0 -11   0   19.16    3.45
   0  11   0   14.10    4.22
   0 -11  -1   12.59    3.42
   0  11   1   13.06    4.07
   0  11   2   41.12    4.66
   0 -11  -2   51.22    3.97
   0 -11  -3   63.47    4.20
   0  11   3   53.58    4.85
   0 -11  -4   70.13    4.35
   0  11   4   74.05    5.13
   0  11   5   12.09    4.07
   0 -11  -5   13.89    3.36
   0 -11  -7    6.49    3.97
   0  11   7    4.25    4.31
   0  11   8    2.98    4.62
   0 -12  16   76.53    6.94
   0  12 -15    9.86    4.01
   0 -12  14   10.66    3.85
   0  12 -14    4.91    4.03
   0 -12  13    2.80    3.73
   0  12 -13    9.41    4.17
   0  12 -12    2.04    4.01
   0 -12  12   -1.27    3.69
   0 -12  11    8.64    3.72
   0  12 -11   -0.77    4.08
   0 -12  10   -0.66    3.66
   0  12 -10   -3.45    4.19
   0  12  -9   71.19    5.35
   0 -12   9   69.78    4.77
   0  12  -8   66.29    5.44
   0 -12   8   71.27    4.77
   0 -12   7   25.95    3.94
   0 -12   6   41.17    4.18
   0  12  -5    1.11    4.50
   0  12  -4    1.90    4.44
   0  12  -3   10.48    4.67
   0 -12   2  136.80    5.95
   0  12  -2  114.08    6.77
   0  12  -1   47.35    5.21
   0 -12   1   54.30    4.44
   0  12   0   44.56    5.14
   0 -12   0   45.08    4.22
   0 -12  -1   36.22    4.13
   0  12   1   32.69    4.93
   0  12   2    8.20    4.51
   0 -12  -2   10.50    3.78
   0  12   3   -0.39    4.51
   0 -12  -3    7.97    3.69
   0 -12  -4    7.72    3.62
   0  12   4    1.67    4.45
   0 -12  -5   25.24    3.83
   0  12   6   46.25    4.92
   0  13 -15    0.71    4.27
   0 -13  14   33.31    4.56
   0  13 -14   31.02    4.82
   0 -13  13   34.69    4.63
   0  13 -13   40.36    5.06
   0  13 -12    0.72    4.59
   0 -13  12    7.15    4.18
   0 -13  11   -0.89    4.10
   0  13 -11   -1.92    4.59
   0 -13  10   24.56    4.36
   0  13 -10   16.40    4.91
   0 -13   9    1.82    3.96
   0  13  -9   10.87    4.84
   0 -13   8    4.59    4.07
   0  13  -8    3.71    4.71
   0 -13   7   26.05    4.42
   0  13  -6   31.27    5.38
   0  13  -5   70.36    6.09
   0 -13   5   79.06    5.22
   0  13  -4   18.40    5.19
   0  13  -3   -2.05    4.92
   0 -13   3   -1.27    3.98
   0 -13   2    9.24    4.11
   0  13  -2    6.45    4.92
   0 -13   1   15.06    4.10
   0  13  -1    5.53    5.00
   0  13   0   -1.73    4.96
   0 -13   0   -1.89    4.02
   0 -13  -1   40.33    4.58
   0  13   1   34.97    5.38
   0 -13  -2   56.91    4.90
   0  13   2   54.82    5.69
   0  13   3   29.11    5.13
   0 -13  -3   34.67    4.36
   0 -13  -4    8.30    3.87
   0  14 -15   18.65    5.00
   0  14 -14    9.57    4.99
   0 -14  14   18.25    4.64
   0  14 -13   -3.35    4.91
   0 -14  13   -2.06    4.43
   0  14 -12    0.11    4.93
   0 -14  12    9.95    4.55
   0  14 -11   37.78    5.59
   0 -14  11   34.98    4.94
   0 -14  10   41.04    5.06
   0  14 -10   45.10    5.88
   0  14  -9    6.62    5.28
   0 -14   9    5.24    4.46
   0  14  -8    3.58    5.43
   0 -14   8   12.95    4.58
   0 -14   7    3.31    4.33
   0  14  -6    0.66    5.35
   0  14  -5    2.25    5.33
   0 -14   4    0.89    4.48
   0  14  -4   -0.79    5.46
   0  14  -3   15.82    5.57
   0 -14   3   24.00    4.74
   0  14  -2   23.88    5.82
   0 -14   2   28.50    4.82
   0  14  -1   29.45    5.85
   0 -14   1   31.40    4.87
   0  14   0    9.53    5.47
   0 -14   0   19.34    4.63
   0 -14  -1    2.96    4.42
   0  14   1   -3.92    5.31
   0  14   2    4.21    5.20
   0 -14  -2    1.11    4.34
   0 -14  -3    2.64    4.21
   0 -15  13   23.62    5.23
   0  15 -13   20.28    5.62
   0 -15  12   36.22    5.47
   0  15 -12   34.29    5.94
   0 -15  11    8.28    4.84
   0  15 -11    7.02    5.51
   0  15 -10   18.40    5.90
   0 -15  10   21.43    5.13
   0 -15   9   29.26    5.25
   0  15  -9   38.23    6.30
   0 -15   8   -4.28    4.86
   0 -15   7   -3.24    4.88
   0  15  -6    7.66    5.99
   0  15  -5   18.59    6.24
   0 -15   4    5.70    4.83
   0  15  -4   13.69    6.09
   0 -15   3    3.44    4.84
   0  15  -3   -3.77    5.92
   0  15  -2    3.16    5.85
   0 -15   2   -2.56    4.80
   0  15  -1   10.37    6.00
   0 -15   1    9.28    4.93
  -1  15   0    2.15    5.92
   1 -15   0    7.22    4.83
  -1  15  -1    2.21    5.89
   1 -15   1    2.19    4.78
   1 -15   2   -4.26    4.79
  -1  15  -2    6.35    5.91
  -1  15  -3   10.50    6.03
   1 -15   3    1.75    4.71
   1 -15   4    6.27    4.78
  -1  15  -4    6.84    6.10
  -1  15  -5   29.62    6.52
  -1  15  -6  120.60    8.17
   1 -15   7   39.31    5.29
   1 -15   8   -3.57    4.80
  -1  15  -8   -0.56    5.82
   1 -15   9   14.95    5.04
  -1  15  -9   17.42    5.92
   1 -15  10   24.59    5.08
  -1  15 -10   12.20    5.87
   1 -15  11   21.11    5.13
  -1  15 -11   29.35    5.90
   1 -15  12    9.96    4.89
  -1  15 -12    3.19    5.59
   1 -14  -3    6.15    4.30
  -1  14   3   -9.15    5.39
   1 -14  -2    4.79    4.33
  -1  14   2    2.62    5.30
  -1  14   1    5.59    5.56
   1 -14  -1   13.24    4.47
  -1  14   0   37.43    6.02
   1 -14   0   41.12    4.87
   1 -14   1   40.09    4.93
  -1  14  -1   35.34    5.97
  -1  14  -2   15.81    5.68
   1 -14   2   18.29    4.60
  -1  14  -3    1.50    5.68
   1 -14   3   13.86    4.58
  -1  14  -4    0.14    5.46
  -1  14  -5    2.59    5.47
   1 -14   6    5.42    4.45
  -1  14  -6   -4.62    5.63
   1 -14   7   31.03    4.86
   1 -14   8   88.23    5.85
  -1  14  -8   90.67    6.87
  -1  14  -9   79.30    6.78
   1 -14   9   99.03    5.94
   1 -14  10   34.65    4.87
  -1  14 -10   30.86    5.72
  -1  14 -11   11.80    5.20
   1 -14  11    6.10    4.44
   1 -14  12   30.44    4.85
  -1  14 -12   27.62    5.44
  -1  14 -13   16.87    5.22
   1 -14  13   20.38    4.74
   1 -14  14    6.56    4.53
  -1  14 -14    7.86    4.90
   1 -13  -4    3.20    3.89
   1 -13  -3   21.33    4.23
  -1  13   3   27.90    5.29
   1 -13  -2   22.51    4.24
  -1  13   2   25.70    5.25
  -1  13   1   15.53    5.16
   1 -13  -1   18.00    4.19
  -1  13   0    0.96    5.13
   1 -13   0    9.46    4.08
  -1  13  -1    4.18    5.01
   1 -13   1    9.28    4.07
   1 -13   2   11.25    4.12
  -1  13  -2    9.07    5.12
   1 -13   3   42.63    4.66
  -1  13  -3   47.53    5.72
  -1  13  -4   50.25    5.78
  -1  13  -5   16.46    5.13
   1 -13   6    1.65    4.03
   1 -13   7    7.16    4.00
   1 -13   8   40.57    4.59
  -1  13  -8   43.80    5.49
   1 -13   9   -0.36    4.09
  -1  13  -9    0.81    4.75
  -1  13 -10  151.29    7.45
   1 -13  10  145.14    6.61
   1 -13  11   74.74    5.23
  -1  13 -11   78.68    5.92
  -1  13 -12   27.70    5.00
   1 -13  12   31.09    4.42
   1 -13  13    0.25    3.99
  -1  13 -13   -0.79    4.64
   1 -13  14    5.50    4.06
  -1  13 -14    8.70    4.47
  -1  13 -15    8.86    4.29
  -1  12   7   52.62    5.23
  -1  12   6   51.27    4.91
   1 -12  -5    7.99    3.50
  -1  12   5    2.32    3.84
  -1  12   4   -4.69    4.61
   1 -12  -4    3.39    3.56
  -1  12   4    5.14    3.51
  -1  12   3   15.08    4.66
   1 -12  -3   17.05    3.81
   1 -12  -2   27.54    4.00
  -1  12   2   26.79    4.82
  -1  12   1   42.07    5.11
   1 -12  -1   42.79    4.17
  -1  12   0    8.39    4.60
   1 -12   0   13.85    3.73
   1 -12   1   55.26    4.43
  -1  12  -1   45.13    5.27
  -1  12  -2   51.15    5.22
   1 -12   2   46.14    4.31
  -1  12  -3    1.93    4.43
   1 -12   4   -2.52    3.66
  -1  12  -4   -3.51    4.30
  -1  12  -5    5.76    4.50
   1 -12   6   34.92    4.09
   1 -12   7   89.27    5.08
  -1  12  -7   91.63    5.94
  -1  12  -8   57.82    5.27
   1 -12   8   64.97    4.62
   1 -12   9   28.71    3.96
  -1  12  -9   25.79    4.63
   1 -12  10    2.49    3.57
  -1  12 -10    4.95    4.18
   1 -12  11    4.32    3.67
  -1  12 -11    3.69    4.13
   1 -12  12   35.02    4.13
  -1  12 -12   33.85    4.66
   1 -12  13   81.44    5.00
  -1  12 -13   81.55    5.47
   1 -12  14   47.12    4.43
  -1  12 -14   54.80    4.82
  -1  12 -15   14.29    4.03
   1 -12  16   -6.89    5.83
  -1  11   8    0.76    4.51
   1 -11  -8   -2.15    4.19
  -1  11   7   15.37    4.30
   1 -11  -6   14.67    3.28
  -1  11   6   17.02    4.01
  -1  11   5   69.98    5.04
   1 -11  -5   70.60    4.24
  -1  11   4   93.90    5.49
   1 -11  -4   88.26    4.64
   1 -11  -3   41.83    3.82
  -1  11   3   44.04    4.74
  -1  11   2    4.25    4.17
   1 -11  -2    7.04    3.29
  -1  11   1   24.00    4.24
   1 -11  -1   25.51    3.52
  -1  11   0    0.20    3.86
   1 -11   0    1.24    3.19
  -1  11  -1    3.31    4.04
   1 -11   1    7.52    3.32
  -1  11  -2   16.14    4.11
  -1  11  -3  164.04    7.12
  -1  11  -4   93.86    5.60
  -1  11  -5   53.52    1.61
   1 -11   5   87.84    4.45
   1 -11   6    1.99    3.08
   1 -11   7   10.56    3.21
  -1  11  -7   10.15    3.91
  -1  11  -8  140.87    6.51
   1 -11   8  146.98    5.86
   1 -11   9   33.58    3.71
  -1  11  -9   30.15    4.24
  -1  11 -10    3.77    3.73
   1 -11  10    1.95    3.25
  -1  11 -11   48.45    4.40
   1 -11  11   42.20    3.91
  -1  11 -12   47.30    4.41
   1 -11  12   39.10    3.92
  -1  11 -13   26.52    4.02
   1 -11  13   20.24    3.63
  -1  11 -14   24.00    3.90
   1 -11  14   22.99    3.69
   1 -11  15   53.87    6.07
   1 -11  16   58.59    6.33
   1 -10  -9   38.99    4.84
  -1  10   9   42.90    5.21
   1 -10  -8   20.40    4.16
  -1  10   8   29.53    4.68
  -1  10   7   59.41    4.89
   1 -10  -7   50.94    3.52
   1 -10  -6   18.87    3.05
  -1  10   6   15.39    3.84
  -1  10   5    5.25    3.73
   1 -10  -5    8.55    2.96
  -1  10   4   23.38    3.96
   1 -10  -4   18.24    3.09
   1 -10  -3   75.75    4.08
  -1  10   3   84.24    4.95
   1 -10  -2   90.92    4.35
  -1  10   2   86.70    5.02
   1 -10  -1   48.97    3.60
  -1  10   1   50.02    4.26
   1 -10   0  346.51    9.86
  -1  10   0  315.42   10.38
   1 -10   1   42.54    3.43
  -1  10  -1   42.69    4.16
  -1  10  -2    8.27    3.54
  -1  10  -3   32.10    3.94
  -1  10  -4   52.68    4.28
  -1  10  -4   50.42    1.86
   1 -10   5   76.18    3.91
  -1  10  -5   63.50    1.90
   1 -10   6   44.81    3.51
   1 -10   7   97.79    4.58
  -1  10  -7  103.60    5.18
   1 -10   8   29.47    3.22
   1 -10   8   28.62    3.56
  -1  10  -8   27.88    3.76
   1 -10   9    6.07    3.31
   1 -10   9    7.88    2.93
  -1  10  -9   10.58    3.37
   1 -10  10    4.52    2.90
  -1  10 -10    6.47    3.35
   1 -10  11   12.56    3.09
  -1  10 -11   14.24    3.57
  -1  10 -12   50.15    4.01
   1 -10  12   43.85    3.62
   1 -10  13   26.31    3.31
  -1  10 -13   20.59    3.58
  -1  10 -14   33.54    3.68
   1 -10  15   41.74    5.49
   1 -10  16   -1.38    5.07
   1 -10  17   26.08    5.55
  -1   9  10    9.47    4.79
   1  -9 -10    2.79    4.08
  -1   9   9   23.72    4.61
   1  -9  -9   17.05    4.14
  -1   9   8    9.87    4.08
   1  -9  -7   27.80    2.85
  -1   9   6   31.49    3.66
   1  -9  -6   31.92    2.92
  -1   9   5  148.42    5.85
   1  -9  -5  142.94    5.13
  -1   9   4  125.87    5.47
   1  -9  -4  128.97    4.84
  -1   9   3   63.32    4.15
   1  -9  -3   61.09    3.50
  -1   9   2    0.91    3.07
   1  -9  -2   -1.98    2.54
   1  -9  -1   45.83    3.19
  -1   9   1   49.44    3.78
  -1   9   0  484.28   13.62
   1  -9   0  482.18   13.06
   1  -9   1  314.72    9.08
  -1   9  -1  309.53    9.59
  -1   9  -2  110.66    5.08
  -1   9  -3   16.80    3.10
   1  -9   3   19.09    2.61
   1  -9   4   21.39    2.74
  -1   9  -4   25.79    1.25
  -1   9  -4   20.25    3.22
  -1   9  -5   33.15    1.22
   1  -9   5   36.94    2.87
   1  -9   6   16.18    2.54
  -1   9  -6   14.64    3.08
   1  -9   7  116.99    4.81
   1  -9   7  111.71    4.58
  -1   9  -7  114.31    5.10
   1  -9   8   54.07    3.66
  -1   9  -8   60.95    3.84
   1  -9   8   52.26    3.41
   1  -9   9  134.63    5.40
   1  -9   9  126.12    4.95
  -1   9  -9  133.19    5.36
   1  -9  10  117.20    5.11
  -1   9 -10  117.68    5.03
   1  -9  10  105.31    4.53
   1  -9  11   56.04    4.07
  -1   9 -11   60.07    3.82
   1  -9  11   54.40    3.39
  -1   9 -12    1.22    2.93
   1  -9  12    0.05    2.61
   1  -9  13    3.07    2.71
  -1   9 -13    0.48    2.95
   1  -9  14   26.09    4.74
  -1   9 -14   25.10    3.18
   1  -9  15   38.29    5.15
   1  -9  16   33.69    5.28
   1  -9  17   36.26    5.54
  -1   8  11   62.34    5.63
   1  -8 -11   55.03    5.12
  -1   8  10   13.26    4.51
   1  -8 -10   10.72    3.94
   1  -8  -9    2.73    3.61
  -1   8   9    3.27    4.00
   1  -8  -8    5.47    2.17
   1  -8  -7   15.71    2.39
  -1   8   7   16.30    3.11
  -1   8   6    5.72    2.89
   1  -8  -6   10.11    2.29
   1  -8  -5   17.75    2.41
  -1   8   5   20.53    3.09
   1  -8  -4   82.37    3.67
  -1   8   4   88.55    4.27
   1  -8  -3  119.64    4.45
  -1   8   3  127.84    5.02
  -1   8   2  318.16    9.44
   1  -8  -2  320.98    9.00
   1  -8  -1  208.58    6.37
  -1   8   1  205.75    6.86
   1  -8   0   11.21    2.12
  -1   8   0   10.62    2.64
  -1   8  -1   -1.31    2.55
   1  -8   2   94.64    3.73
  -1   8  -2   92.47    4.30
  -1   8  -3  123.63    4.95
  -1   8  -4  593.05   14.53
   1  -8   4  603.22   15.59
   1  -8   5  122.87    4.43
  -1   8  -5  117.56    3.11
   1  -8   6  127.12    4.66
  -1   8  -6  135.57    5.07
  -1   8  -7   13.01    2.59
   1  -8   7   16.48    2.32
   1  -8   7   16.62    2.69
   1  -8   8    2.32    2.18
   1  -8   8   -0.74    2.47
  -1   8  -8   -1.67    2.55
  -1   8  -9    8.78    2.63
   1  -8   9    8.87    2.77
   1  -8   9    5.77    2.27
   1  -8  10   66.14    3.36
  -1   8 -10   72.60    3.75
   1  -8  10   74.70    4.00
   1  -8  11  123.74    4.65
   1  -8  11  136.11    5.36
  -1   8 -11  138.50    5.04
   1  -8  12   90.17    4.11
   1  -8  12   95.03    4.00
   1  -8  13   21.26    2.90
   1  -8  13   17.47    2.57
  -1   8 -13   18.35    2.78
   1  -8  13   21.11    4.08
   1  -8  14    8.72    4.06
   1  -8  14   11.54    3.06
   1  -8  15    4.30    4.27
   1  -8  16   -3.51    4.49
   1  -8  17   11.47    4.92
   1  -8  18   16.84    5.27
  -1   7  12   28.42    5.25
   1  -7 -12   23.42    4.43
   1  -7 -11    5.02    3.92
  -1   7  11    2.49    4.45
   1  -7 -10    5.75    3.67
  -1   7  10    7.99    4.15
   1  -7  -9    0.62    3.19
  -1   7   9    6.99    3.71
   1  -7  -8   84.90    3.27
  -1   7   7  100.21    4.14
   1  -7  -7   96.28    3.54
  -1   7   6   56.91    3.43
   1  -7  -6   59.19    2.80
  -1   7   5   53.58    3.23
   1  -7  -5   52.15    2.74
  -1   7   4    2.44    2.42
   1  -7  -4    1.59    1.95
   1  -7  -3    2.52    1.89
  -1   7   3    1.07    2.26
   1  -7  -2    6.37    1.86
  -1   7   2    5.88    2.32
   1  -7  -1  209.48    6.15
  -1   7   1  205.42    6.54
   1  -7   0  763.44   18.74
   1  -7   0  730.64   18.95
  -1   7   0  743.30   19.30
   1  -7   1  465.52   11.91
  -1   7  -1  445.38   12.36
  -1   7  -2  192.32    6.29
   1  -7   2  204.63    5.92
  -1   7  -3   68.40    3.37
   1  -7   4   43.95    2.56
   1  -7   4   44.80    2.59
  -1   7  -4   43.84    1.40
   1  -7   5  203.19    6.22
  -1   7  -5  217.31    6.60
   1  -7   6  215.99    6.68
  -1   7  -6  228.91    6.85
   1  -7   6  220.33    6.51
  -1   7  -7  328.78    9.14
   1  -7   7  314.72    8.79
   1  -7   7  315.57    9.05
   1  -7   8  241.11    7.02
   1  -7   8  247.82    7.39
  -1   7  -8  244.34    7.32
   1  -7   9   79.45    3.84
   1  -7   9   77.10    3.13
   1  -7   9   85.23    3.41
  -1   7  -9   82.60    3.70
  -1   7 -10    1.15    2.27
   1  -7  10    5.87    2.09
   1  -7  10    2.97    1.88
   1  -7  10    3.28    2.63
   1  -7  11    7.63    2.23
   1  -7  11    9.33    2.12
   1  -7  11   11.20    2.81
   1  -7  11    8.10    1.01
  -1   7 -11   11.03    2.40
   1  -7  12    2.25    2.85
   1  -7  12    1.55    2.37
   1  -7  12    0.11    2.04
  -1   7 -12   -3.70    2.31
  -1   7 -13   24.83    2.50
   1  -7  13   23.75    3.07
   1  -7  13   28.07    3.99
   1  -7  13   22.01    2.34
   1  -7  14   59.61    4.82
   1  -7  14   57.92    4.08
   1  -7  15   57.13    4.37
   1  -7  15   60.21    5.14
   1  -7  16   42.88    5.02
   1  -7  17   -2.85    4.73
   1  -7  18   -3.80    5.02
  -1   6  13   46.34    5.64
   1  -6 -13   37.79    4.83
  -1   6  12   31.65    4.99
   1  -6 -12   34.21    4.48
  -1   6  11   -0.11    4.11
   1  -6 -11    0.10    3.69
   1  -6 -10   51.62    4.19
  -1   6  10   48.17    4.58
  -1   6   9   38.27    4.02
   1  -6  -9   43.57    1.96
   1  -6  -9   38.39    3.64
   1  -6  -8    9.59    1.66
  -1   6   8    9.85    2.20
  -1   6   7   40.69    2.70
   1  -6  -7   37.19    2.14
  -1   6   6  204.68    7.08
  -1   6   6  198.79    6.09
   1  -6  -6  199.05    5.68
  -1   6   5  109.72    4.85
   1  -6  -5  112.51    3.77
  -1   6   5  117.78    4.16
   1  -6  -4   78.56    3.00
  -1   6   4   80.49    3.37
  -1   6   4   71.46    3.93
   1  -6  -3  230.77    6.37
  -1   6   3  223.52    6.67
  -1   6   3  219.78    7.16
  -1   6   2   44.08    2.94
  -1   6   2   44.38    2.66
   1  -6  -2   46.31    2.29
  -1   6   1    7.16    1.87
   1  -6  -1    7.45    1.55
   1  -6  -1    6.01    1.37
   1  -6   0   15.40    1.55
  -1   6   0   12.08    1.92
   1  -6   1   23.65    1.71
  -1   6  -1   22.60    2.06
   1  -6   2 1085.56   27.04
  -1   6  -3  644.58   16.01
   1  -6   3  657.25   16.71
  -1   6  -4  375.15    9.27
   1  -6   4  403.07   10.22
   1  -6   4  376.43   10.04
  -1   6  -5  237.65    6.69
   1  -6   5  217.27    6.57
   1  -6   5  225.88    6.42
   1  -6   6    1.66    1.55
   1  -6   6    1.89    1.78
  -1   6  -6    1.15    1.71
   1  -6   7  175.59    5.34
   1  -6   7  169.90    5.14
   1  -6   7  181.54    5.51
  -1   6  -7  172.92    5.36
   1  -6   7  162.17    4.84
   1  -6   8   65.82    3.01
   1  -6   8   68.71    3.23
   1  -6   8   68.32    2.72
  -1   6  -8   72.19    3.10
   1  -6   8   63.87    2.78
  -1   6  -9  145.78    4.74
   1  -6   9  150.19    4.99
   1  -6   9  146.05    4.62
   1  -6   9  136.76    4.48
   1  -6   9  138.89    4.65
   1  -6  10  183.35    6.08
   1  -6  10  204.69    5.98
  -1   6 -10  236.97    6.28
   1  -6  10  206.73    6.35
   1  -6  10  209.85    5.44
   1  -6  10  224.36    6.58
  -1   6 -11   97.68    3.57
   1  -6  11   99.95    4.06
   1  -6  11   91.49    3.32
   1  -6  11   91.07    3.95
   1  -6  11   87.48    2.67
  -1   6 -12  111.74    3.64
   1  -6  12   98.10    4.41
   1  -6  12   91.41    3.45
   1  -6  12  100.48    4.29
   1  -6  12  107.60    5.09
   1  -6  13    0.39    3.33
   1  -6  13    5.56    2.82
   1  -6  14    0.52    3.56
   1  -6  14    4.89    3.13
   1  -6  15    3.10    3.52
   1  -6  15    1.42    3.89
   1  -6  16   41.96    4.91
   1  -6  16   31.65    4.31
   1  -6  17   40.06    5.17
   1  -6  17   39.24    4.73
   1  -6  18   24.72    5.20
   1  -5 -14   34.11    4.85
  -1   5  14   30.73    5.61
  -1   5  13    1.02    4.77
   1  -5 -13    7.11    4.00
  -1   5  12   34.43    4.86
   1  -5 -12   30.50    4.07
   1  -5 -11    6.53    3.40
  -1   5  11   10.59    4.06
  -1   5  10   45.22    4.25
   1  -5 -10   44.95    3.79
  -1   5   9   13.29    3.48
   1  -5  -9    7.14    1.22
   1  -5  -9   10.99    2.88
   1  -5  -9    7.83    1.35
   1  -5  -8   92.41    4.05
   1  -5  -8   77.71    2.56
   1  -5  -8   79.52    2.73
  -1   5   8   93.67    4.60
   1  -5  -8   81.73    2.72
  -1   5   7    4.66    2.78
   1  -5  -7    3.08    1.39
  -1   5   7    4.87    1.83
  -1   5   6   70.11    3.88
  -1   5   6   73.87    3.07
   1  -5  -6   77.19    2.67
   1  -5  -5    0.19    1.36
   1  -5  -5   -0.05    1.23
  -1   5   5    0.34    1.73
  -1   5   5    1.56    2.26
   1  -5  -4   62.66    2.22
  -1   5   4   65.02    3.13
  -1   5   4   65.39    2.55
   1  -5  -4   63.56    2.10
   1  -5  -3  102.43    3.20
  -1   5   3   96.86    3.94
   1  -5  -3  103.03    3.30
   1  -5  -2  122.51    3.75
   1  -5  -2  122.66    3.63
   1  -5  -1   67.35    2.28
   1  -5  -1   61.99    2.32
  -1   5   1   60.54    2.80
   1  -5  -1   64.07    2.49
   1  -5  -1   65.66    2.37
   1  -5   0  112.59    3.43
   1  -5   1  130.06    3.96
   1  -5   2  312.07    8.39
   1  -5   3   84.58    2.88
   1  -5   3   91.16    3.13
  -1   5  -3   87.47    2.28
   1  -5   3   84.87    2.96
   1  -5   4  150.82    4.44
   1  -5   4  143.23    4.19
   1  -5   4  143.31    4.42
   1  -5   4  139.04    4.28
   1  -5   5  674.17    5.27
   1  -5   5  683.81    5.81
   1  -5   6  289.27    3.33
   1  -5   6  281.90    3.47
   1  -5   6  284.00    3.73
   1  -5   6  279.13    4.18
   1  -5   7  209.61    5.83
   1  -5   7  210.47    5.83
   1  -5   7  209.78    6.17
   1  -5   7  209.06    5.72
   1  -5   8  221.82    6.10
   1  -5   8  214.40    6.28
   1  -5   8  232.92    6.57
   1  -5   8  229.64    6.34
   1  -5   8  217.75    6.00
   1  -5   9    0.17    1.43
   1  -5   9    1.12    1.34
   1  -5   9    0.27    1.99
   1  -5   9    2.05    1.03
   1  -5   9   -0.17    1.41
   1  -5   9   -2.57    1.77
   1  -5  10   24.44    2.49
   1  -5  10   21.52    2.31
   1  -5  10   23.28    1.78
   1  -5  10   23.19    1.73
   1  -5  10   27.96    2.87
   1  -5  10   24.28    1.40
   1  -5  11  188.76    5.39
   1  -5  11  203.56    6.11
   1  -5  11  199.13    5.23
   1  -5  11  200.34    6.40
   1  -5  11  200.83    6.86
   1  -5  12   56.15    2.24
   1  -5  12   65.59    3.70
   1  -5  12   62.01    2.22
   1  -5  12   58.84    2.48
   1  -5  12   66.48    3.30
   1  -5  12   63.93    4.05
   1  -5  13   68.32    4.46
   1  -5  13   71.95    4.18
   1  -5  14   30.78    4.00
   1  -5  14   27.28    3.64
   1  -5  15   43.50    4.51
   1  -5  15   48.05    4.35
   1  -5  16    2.58    4.09
   1  -5  16    2.13    4.21
   1  -5  17   -1.61    4.33
   1  -5  17    2.23    4.52
   1  -5  18   16.38    4.76
   1  -4 -15    9.96    4.60
   1  -4 -14   23.30    4.70
   1  -4 -13   70.25    4.99
   1  -4 -12  114.77    5.63
   1  -4 -11   98.24    4.93
  -1   4  11   88.85    4.93
  -1   4  10    1.21    3.18
   1  -4 -10    7.74    2.99
  -1   4   9   28.15    3.32
   1  -4  -9   27.70    2.97
   1  -4  -9   19.97    1.06
   1  -4  -9   18.59    0.87
   1  -4  -9   22.45    1.01
   1  -4  -9   21.00    0.95
  -1   4   8    8.43    2.78
   1  -4  -8   11.03    1.12
   1  -4  -8   10.02    2.38
   1  -4  -8    8.73    1.01
   1  -4  -8    9.48    1.15
  -1   4   7    3.47    1.46
   1  -4  -7    3.88    1.13
  -1   4   7    5.11    2.40
   1  -4  -7    4.21    1.12
   1  -4  -6  137.60    4.00
  -1   4   6  140.61    5.02
  -1   4   6  135.70    4.21
   1  -4  -6  145.52    3.91
   1  -4  -6  142.33    3.97
  -1   4   5  395.59   10.45
   1  -4  -5  392.85   10.30
   1  -4  -5  419.17   10.26
  -1   4   5  392.97   11.06
   1  -4  -5  416.41   10.18
  -1   4   4  122.83    4.42
   1  -4  -4  133.10    3.69
   1  -4  -4  132.48    3.81
  -1   4   4  123.95    3.92
   1  -4  -4  131.37    3.78
  -1   4   3  113.70    3.98
  -1   4   3  112.17    3.59
   1  -4  -3  118.11    3.45
   1  -4  -3  115.61    3.36
   1  -4  -2    1.13    0.97
  -1   4   2    0.72    1.36
  -1   4   2   -0.35    1.15
   1  -4  -2   -0.95    0.80
   1  -4  -2   -0.52    0.96
  -1   4   1   89.51    3.01
   1  -4  -1   88.86    2.79
   1  -4  -1   93.43    2.73
  -1   4   1   86.35    3.09
   1  -4   0   35.58    1.57
  -1   4   0   36.62    1.74
   1  -4   1  351.16    9.16
   1  -4   2  117.30    3.64
  -1   4  -2  125.73    3.16
   1  -4   2  131.21    3.80
   1  -4   2  126.38    3.64
  -1   4  -2  128.75    3.80
   1  -4   3  610.01   15.48
   1  -4   3  602.70   15.40
  -1   4  -4  655.14   15.91
   1  -4   4  639.62   15.51
   1  -4   4  661.13   15.86
   1  -4   4  612.83   15.90
   1  -4   4  627.87   15.72
   1  -4   4  609.96   15.77
   1  -4   5    3.74    1.29
   1  -4   5    3.68    0.82
   1  -4   5    4.44    1.07
  -1   4  -5    2.82    1.20
   1  -4   5    3.84    1.04
   1  -4   6   91.95    3.03
  -1   4  -6   93.90    3.08
   1  -4   6   92.56    2.93
   1  -4   6   91.06    2.90
   1  -4   6   90.51    3.21
   1  -4   6   90.67    2.83
   1  -4   7  390.25   10.07
  -1   4  -7  412.18   10.09
   1  -4   7  387.89   10.26
   1  -4   7  380.31    9.86
   1  -4   7  385.30    9.93
   1  -4   7  392.77   10.16
   1  -4   8  365.24    9.49
   1  -4   8  377.09    9.93
   1  -4   8  367.71    9.38
   1  -4   8  381.43    9.67
   1  -4   8  371.34    9.95
  -1   4  -8  402.52    9.69
   1  -4   8  364.52    9.43
   1  -4   9  219.81    5.95
  -1   4  -9  232.80    5.98
   1  -4   9  232.86    6.40
   1  -4   9  210.14    5.80
   1  -4   9  218.86    5.77
   1  -4   9  211.04    6.48
   1  -4   9  216.17    6.83
   1  -4  10   81.50    3.74
   1  -4  10   77.80    2.49
   1  -4  10   73.60    3.17
   1  -4  10   66.69    2.36
   1  -4  10   72.58    3.39
   1  -4  10   69.86    2.48
   1  -4  11   35.02    1.67
   1  -4  11   41.18    2.56
   1  -4  11   39.87    1.88
   1  -4  11   37.58    2.95
   1  -4  11   44.17    3.23
   1  -4  11   31.41    1.48
   1  -4  12    7.84    1.60
   1  -4  12    5.31    2.96
   1  -4  12    5.12    2.73
   1  -4  13    7.37    3.10
   1  -4  13   11.21    3.21
   1  -4  14   56.33    4.38
   1  -4  14   61.69    4.56
   1  -4  15  100.60    5.67
   1  -4  15  101.64    5.54
   1  -4  16   36.35    4.70
   1  -4  16   32.96    4.56
   1  -4  17    2.99    4.48
   1  -4  18    9.53    4.83
  -1   3  15   20.10    5.15
   1  -3 -15   11.45    4.57
  -1   3  14   -3.54    4.67
   1  -3 -14    3.33    4.08
  -1   3  13   18.15    4.52
   1  -3 -13   19.57    3.85
  -1   3  12   15.19    3.34
  -1   3  12    8.15    3.84
   1  -3 -12    6.25    3.33
  -1   3  11  116.19    5.04
   1  -3 -11  117.61    5.13
  -1   3  10  426.19   12.11
   1  -3 -10  437.59   12.21
   1  -3  -9  305.71    8.92
  -1   3   9  301.38    8.96
   1  -3  -8   91.16    2.38
  -1   3   8  102.23    4.06
   1  -3  -8   77.31    2.28
   1  -3  -8   89.65    2.42
   1  -3  -8   83.05    2.36
   1  -3  -8  106.37    3.80
   1  -3  -7   59.40    1.89
  -1   3   7   63.34    3.23
   1  -3  -7   59.02    1.94
   1  -3  -6  136.81    3.81
  -1   3   6  131.99    3.98
  -1   3   6  147.00    4.83
   1  -3  -6  154.53    3.79
   1  -3  -6  138.09    3.86
   1  -3  -5    3.06    1.12
   1  -3  -5    3.18    0.89
   1  -3  -5    3.29    0.84
  -1   3   5    1.34    1.56
   1  -3  -5    2.72    0.87
   1  -3  -5    3.59    1.33
  -1   3   5    3.55    1.11
  -1   3   4    8.67    1.52
  -1   3   4   10.15    1.15
   1  -3  -4   10.29    0.97
   1  -3  -4   10.25    1.13
   1  -3  -4   10.01    1.01
   1  -3  -4   10.36    0.94
  -1   3   3  739.88   18.73
   1  -3  -3  738.92   18.33
   1  -3  -3  758.23   18.28
   1  -3  -3  742.37   18.22
  -1   3   3  745.17   18.36
  -1   3   2  296.66    7.98
   1  -3  -2  310.41    7.48
   1  -3  -2  290.56    7.59
   1  -3  -2  292.97    7.64
  -1   3   2  303.99    7.75
   1  -3  -1   45.96    1.63
  -1   3   1   55.89    1.90
   1  -3   0  433.24   11.07
   1  -3   0  419.75   11.13
   1  -3   1  336.59    8.61
   1  -3   2  318.62    8.03
   1  -3   2  304.58    7.96
   1  -3   2  322.58    8.04
   1  -3   3  125.71    3.20
   1  -3   3  124.90    3.47
   1  -3   3  122.19    3.48
   1  -3   3  120.16    3.42
  -1   3  -4  394.99    9.83
   1  -3   4  378.68    9.69
   1  -3   4  381.42    9.74
   1  -3   4  395.21    9.65
   1  -3   5   79.72    2.46
  -1   3  -5   83.06    2.55
   1  -3   5   74.50    2.50
   1  -3   5   77.79    2.42
   1  -3   5   78.92    2.69
   1  -3   5   78.90    2.39
  -1   3  -6  114.48    3.52
   1  -3   6  121.28    3.54
   1  -3   6  126.56    3.42
   1  -3   6  126.49    3.78
   1  -3   6  124.53    3.46
   1  -3   6  127.06    3.71
   1  -3   7   47.05    1.82
  -1   3  -7   48.97    1.87
   1  -3   7   46.32    1.69
   1  -3   7   47.11    1.72
   1  -3   7   49.05    2.19
   1  -3   7   49.99    1.75
   1  -3   8   56.76    2.55
   1  -3   8   52.78    1.94
   1  -3   8   52.10    2.36
   1  -3   8   51.45    1.81
   1  -3   8   53.31    1.90
   1  -3   8   52.20    2.69
   1  -3   8   52.87    1.78
   1  -3   9  152.91    4.17
   1  -3   9  140.48    3.92
   1  -3   9  142.40    3.98
   1  -3   9  144.16    4.86
   1  -3   9  146.13    5.03
   1  -3   9  144.52    3.85
   1  -3  10   59.88    1.65
   1  -3  10   83.45    3.57
   1  -3  10   61.32    1.70
   1  -3  10   54.23    1.62
   1  -3  10   80.76    2.46
   1  -3  10   51.81    1.56
   1  -3  10   82.94    2.80
   1  -3  10   85.82    3.47
   1  -3  11  184.60    4.49
   1  -3  11  186.05    5.58
   1  -3  11  175.11    5.57
   1  -3  11  176.40    4.34
   1  -3  12  149.61    4.61
   1  -3  12  150.57    5.93
   1  -3  12  158.39    5.88
   1  -3  13   65.94    4.28
   1  -3  13   68.92    4.32
   1  -3  14    1.25    3.52
   1  -3  14    3.32    3.48
   1  -3  15    8.45    3.91
   1  -3  16   13.79    4.51
   1  -3  17   10.79    4.76
   1  -2 -16   23.89    4.84
  -1   2  16   18.38    5.33
  -1   2  15   28.85    5.10
   1  -2 -15   27.70    4.69
   1  -2 -14   75.40    5.15
  -1   2  14   77.91    5.62
   1  -2 -13   33.99    3.98
  -1   2  13   23.79    4.35
  -1   2  12   39.99    4.20
  -1   2  12   33.87    3.43
   1  -2 -12   39.64    3.67
   1  -2 -11   61.12    3.82
  -1   2  11   65.20    3.76
  -1   2  11   65.43    4.29
  -1   2  10    2.00    2.52
   1  -2 -10    2.34    2.41
  -1   2  10    1.15    2.72
  -1   2   9  213.22    6.87
  -1   2   9  212.05    6.61
   1  -2  -9  202.63    6.53
   1  -2  -8  134.20    4.63
  -1   2   8  136.04    4.69
   1  -2  -7  399.11   10.19
   1  -2  -7  433.25   10.24
  -1   2   7  433.59   11.26
   1  -2  -7  429.76   10.23
   1  -2  -6  148.19    4.48
   1  -2  -6  139.25    4.13
  -1   2   6  146.69    4.64
   1  -2  -6  146.24    3.81
   1  -2  -6  150.26    3.75
   1  -2  -6  145.28    3.77
  -1   2   5    9.50    1.43
  -1   2   5    8.36    0.90
   1  -2  -5   10.40    0.75
   1  -2  -5    8.43    0.77
   1  -2  -5   10.98    0.78
   1  -2  -5    9.83    1.03
   1  -2  -4   50.00    1.76
  -1   2   4   46.41    1.64
  -1   2   4   46.43    2.05
   1  -2  -4   47.25    1.58
   1  -2  -4   49.26    1.55
   1  -2  -4   50.37    1.57
   1  -2  -3    0.62    0.63
   1  -2  -3    0.09    0.57
  -1   2   3    0.69    0.68
  -1   2   3   -0.12    0.92
   1  -2  -3    0.62    0.39
   1  -2  -3    0.48    0.61
   1  -2  -2   17.97    0.75
  -1   2   2   20.18    1.13
   1  -2  -2   17.20    0.88
  -1   2   2   17.64    0.95
   1  -2  -2   19.81    0.91
  -1   2   1 1459.92   35.28
  -1   2   0  246.01    6.22
   1  -2   0  238.70    6.20
  -1   2  -1  348.36    8.76
   1  -2   1  356.43    8.74
   1  -2   1  347.02    8.72
   1  -2   2   61.15    1.86
   1  -2   2   60.92    1.77
   1  -2   2   57.51    1.80
   1  -2   3   61.23    1.92
  -1   2  -3   63.38    1.92
   1  -2   3   61.13    1.86
  -1   2  -4   31.21    1.22
   1  -2   4   28.64    1.14
   1  -2   4   28.51    1.16
   1  -2   4   28.60    1.18
   1  -2   5  379.78    9.48
   1  -2   5  371.98    9.41
   1  -2   5  373.59    9.46
   1  -2   5  384.74    9.39
  -1   2  -5  391.78    9.48
   1  -2   6   13.88    1.05
   1  -2   6   13.28    1.43
   1  -2   6   14.48    0.86
   1  -2   6   14.69    0.90
   1  -2   6   14.12    0.85
   1  -2   7  424.91   11.26
   1  -2   7  422.84   10.44
   1  -2   7  442.25   10.46
   1  -2   7  420.86   10.52
   1  -2   7  414.30   10.54
   1  -2   7  437.15   10.88
   1  -2   7  434.09   10.74
   1  -2   8  420.03   10.35
   1  -2   8  439.81   10.42
   1  -2   8  476.75   11.57
   1  -2   8  497.25   11.51
   1  -2   8  515.03   11.01
   1  -2   8  433.98   10.40
   1  -2   8  494.42   10.89
   1  -2   8  381.47   10.35
   1  -2   9   93.30    3.79
  -1   2  -9   90.19    4.03
   1  -2   9   93.36    3.76
   1  -2   9   89.85    3.09
   1  -2   9   96.61    3.12
   1  -2  10   12.30    1.20
   1  -2  10   10.31    2.36
   1  -2  10   14.54    1.76
   1  -2  10   10.42    1.61
   1  -2  10   10.31    2.32
  -1   2 -10   11.54    2.69
  -1   2 -11    6.88    2.88
   1  -2  11    2.55    1.81
   1  -2  11    3.51    2.65
   1  -2  11    7.37    2.59
  -1   2 -12   40.21    3.81
   1  -2  12   43.77    3.62
   1  -2  12   42.71    3.69
  -1   2 -13   24.40    3.92
   1  -2  13   30.52    3.71
   1  -2  13   30.57    3.76
   1  -2  14   54.14    4.61
  -1   2 -14   49.46    4.70
  -1   2 -15   41.09    4.94
   1  -2  15   49.10    4.86
  -1   2 -16    9.11    4.67
   1  -2  16   15.83    4.65
   1  -2  17   15.73    5.01
   1  -1 -16   39.91    5.12
  -1   1  16   48.51    5.68
  -1   1  15    9.35    4.57
   1  -1 -15    7.10    4.17
  -1   1  14   16.55    4.38
  -1   1  13   30.47    3.20
  -1   1  13   30.15    4.11
  -1   1  12   66.05    4.47
  -1   1  12   65.25    3.65
  -1   1  11   88.78    4.61
  -1   1  11   90.27    4.00
  -1   1  10   75.10    3.51
  -1   1  10   73.69    3.96
  -1   1   9  535.23   14.19
  -1   1   9  553.96   14.62
  -1   1   8  454.34   11.81
  -1   1   8  435.68   11.45
   1  -1  -8  423.58   10.96
   1  -1  -7    6.16    1.07
  -1   1   7    3.40    1.48
   1  -1  -6  447.56   10.91
   1  -1  -6  453.45   11.26
   1  -1  -6  457.96   10.89
   1  -1  -6  454.26   10.88
   1  -1  -5 1958.50   46.35
   1  -1  -5 1920.32   46.87
   1  -1  -5 1920.26   46.32
   1  -1  -5 1934.75   46.36
   1  -1  -5 1934.86   46.33
   1  -1  -5 1892.02   46.57
   1  -1  -4 1681.15   39.95
   1  -1  -4 1648.11   40.09
   1  -1  -4 1661.80   39.96
   1  -1  -4 1654.36   39.92
   1  -1  -3   10.77    0.58
  -1   1   3    9.82    0.63
   1  -1  -3   11.16    0.58
  -1   1   2   48.07    1.46
  -1   1   2   51.52    1.48
  -1   1   1 1193.82   28.25
  -1   1   1 1150.06   28.24
  -1   1   0  531.53   12.93
   1  -1   1  779.33   18.59
   1  -1   1  761.24   18.68
   1  -1   1  768.45   18.66
   1  -1   2   46.13    1.34
   1  -1   2   44.82    1.43
   1  -1   2   45.35    1.35
  -1   1  -2   42.91    1.47
   1  -1   3  200.87    5.47
   1  -1   3  215.38    5.29
  -1   1  -3  208.54    5.56
   1  -1   3  212.23    5.26
   1  -1   4  874.75   21.30
   1  -1   4  873.21   21.61
   1  -1   4  903.24   21.27
   1  -1   4  870.95   21.42
  -1   1  -4  861.47   21.73
   1  -1   4  878.21   21.29
   1  -1   5  656.45   15.82
  -1   1  -5  643.24   16.48
   1  -1   5  663.17   16.09
   1  -1   5  665.36   15.81
   1  -1   5  650.63   16.34
   1  -1   5  648.98   15.84
   1  -1   5  644.04   15.83
   1  -1   6   61.70    1.71
   1  -1   6   69.65    2.25
   1  -1   6   66.58    1.69
   1  -1   6   68.27    2.54
  -1   1  -6   70.16    2.72
  -1   1  -7    1.26    1.57
   1  -1   7    0.91    0.88
   1  -1   7    1.46    1.42
   1  -1   8  247.11    6.28
   1  -1   8  246.57    6.53
   1  -1   8  244.87    7.00
   1  -1   8  224.21    6.16
  -1   1  -8  244.22    7.20
   1  -1   9    8.21    1.30
  -1   1  -9    8.66    2.31
   1  -1   9    8.17    1.69
   1  -1   9    6.48    2.02
   1  -1   9    8.02    1.26
   1  -1  10  170.71    5.24
   1  -1  10  192.25    4.68
   1  -1  10  173.79    5.92
   1  -1  10  186.06    6.04
  -1   1 -10  177.40    6.19
  -1   1 -11  106.64    4.93
   1  -1  11  114.96    4.82
   1  -1  12   81.30    4.61
  -1   1 -12   75.81    4.69
  -1   1 -13    0.93    3.51
   1  -1  13   -2.95    3.48
   1  -1  14    3.14    3.95
  -1   1 -14    3.44    3.91
  -1   1 -15    6.76    4.22
   1  -1  15   16.27    4.51
  -1   1 -16   17.75    4.71
   1  -1  16   10.59    4.78
   1  -1  17   29.48    5.50
  -1   0  17   16.65    5.39
  -1   0  16   25.40    4.99
  -1   0  15   65.19    5.36
  -1   0  14   78.39    5.26
  -1   0  13   84.49    3.90
  -1   0  13   75.62    4.93
  -1   0  12   21.26    2.65
  -1   0  12   20.42    3.46
  -1   0  11   28.72    3.25
  -1   0  11   28.19    2.58
  -1   0  10  206.38    6.76
  -1   0  10  201.25    6.10
  -1   0   9  541.35   13.75
   1   0  -9  496.11   12.73
  -1   0   8  447.44   12.14
   1   0  -8  444.67   11.27
  -1   0   8  466.15   12.12
   1   0  -7  398.65   10.21
   1   0  -7  420.95   10.74
  -1   0   7  404.99   10.93
  -1   0   7  425.21   10.90
  -1   0   6  640.07    5.60
   1   0  -6  644.01    5.01
   1   0  -5    9.98    0.75
  -1   0   5    8.93    1.14
   1   0  -5    8.85    0.45
   1   0  -5    8.97    1.00
  -1   0   5    9.59    0.49
   1   0  -5    9.39    0.44
  -1   0   4  671.80   16.38
   1   0  -4  639.11   16.67
  -1   0   4  669.92   16.84
   1   0  -4  690.95   16.33
   1   0  -4  678.58   16.35
   1   0  -4  676.34   16.35
   1   0  -4  690.67   16.47
   1   0  -3 2664.02   63.41
  -1   0   3 2640.80   63.42
  -1   0   3 2633.84   63.42
  -1   0   3 2641.49   63.72
  -1   0   2  150.72    3.74
  -1   0   2  147.57    3.73
  -1   0   1  946.62   21.38
  -1   0   1  966.55   21.39
  -1   0   1  942.75   21.39
   1   0   0   10.15    0.39
   1   0   1   77.17    2.05
  -1   0  -1   80.26    2.12
   1   0   1   79.36    2.05
   1   0   2   68.97    1.79
   1   0   2   69.27    1.93
  -1   0  -2   66.87    1.79
  -1   0  -2   65.88    1.78
  -1   0  -2   69.06    2.01
   1   0   2   65.76    1.88
  -1   0  -3   94.92    2.42
   1   0   3   97.25    2.41
   1   0   3   93.94    2.68
   1   0   3   89.33    2.40
  -1   0  -3   93.72    2.80
   1   0   3   98.04    2.66
   1   0   3   93.87    2.46
  -1   0  -3   94.24    2.66
   1   0   4  241.56    5.94
  -1   0  -4  238.83    5.92
  -1   0  -4  257.44    6.53
   1   0   4  248.89    6.38
   1   0   4  253.42    6.29
   1   0   4  241.16    5.91
   1   0   4  251.94    6.09
   1   0   4  236.76    5.91
   1   0   5  248.18    6.70
   1   0   5  254.11    6.58
  -1   0  -5  256.85    6.87
   1   0   5  245.14    6.36
   1   0   6  188.60    5.08
   1   0   6  188.32    5.52
   1   0   7  157.54    4.44
  -1   0  -7  171.34    5.21
   1   0   7  158.08    5.01
   1   0   8    5.55    1.34
  -1   0  -8    5.63    1.94
   1   0   8    8.32    1.70
   1   0   8    6.42    0.99
   1   0   9  134.12    4.20
   1   0   9  131.45    4.61
  -1   0  -9  143.44    5.29
  -1   0 -10    1.15    2.48
   1   0  10   -0.09    2.04
   1   0  11    9.12    3.05
  -1   0 -11    4.79    2.99
  -1   0 -12   86.19    4.94
   1   0  12   93.73    4.98
   1   0  13   23.61    4.09
  -1   0 -13   32.69    4.17
  -1   0 -14   43.36    4.73
   1   0  14   43.58    4.80
   1   0  15   20.42    4.85
  -1   0 -15   14.89    4.50
  -1   0 -16    5.62    4.63
   1   0  16    2.36    4.95
  -1  -1  17   11.59    5.02
  -1  -1  16    9.40    4.54
   1   1 -16   -2.09    4.30
   1   1 -15    4.55    3.91
  -1  -1  15    7.52    4.16
   1   1 -14    0.30    3.49
  -1  -1  14    5.48    3.71
  -1  -1  13  117.81    4.40
   1   1 -13  110.72    5.47
  -1  -1  13  120.29    5.58
  -1  -1  12  215.95    6.67
  -1  -1  12  242.10    7.77
  -1  -1  11  338.25   10.08
  -1  -1  11  344.12   10.17
  -1  -1  10   42.64    2.91
  -1  -1  10   40.89    2.98
  -1  -1   9    3.85    1.89
  -1  -1   9    3.82    1.92
  -1  -1   8   42.56    2.36
   1   1  -8   36.85    1.54
  -1  -1   8   38.92    2.40
  -1  -1   7   87.39    3.19
   1   1  -7   81.11    2.43
  -1  -1   7   88.87    3.12
  -1  -1   6  471.33   11.99
  -1  -1   6  465.60   11.25
   1   1  -6  457.75   11.19
   1   1  -6  446.38   11.32
  -1  -1   6  473.73   11.24
   1   1  -6  462.94   11.19
   1   1  -5  441.96   11.03
  -1  -1   5  461.16   11.05
  -1  -1   5  436.17   11.35
  -1  -1   5  461.93   11.61
  -1  -1   5  473.83   11.55
   1   1  -5  449.29   11.00
   1   1  -5  453.65   11.00
   1   1  -5  461.80   11.10
  -1  -1   4  846.28   20.46
   1   1  -4  814.20   20.03
  -1  -1   4  819.25   20.26
  -1  -1   4  864.39   20.39
   1   1  -4  866.64   20.08
  -1  -1   4  814.01   20.05
   1   1  -4  828.09   19.97
  -1  -1   4  823.88   20.05
  -1  -1   3  712.93   17.46
  -1  -1   3  730.33   17.54
  -1  -1   3  708.91   17.45
  -1  -1   3  752.64   17.66
  -1  -1   2    8.03    0.52
  -1  -1   2    7.49    0.40
  -1  -1   2    7.65    0.47
  -1  -1   2    7.57    0.46
   1   1  -2    7.28    0.50
   1   1   0 1013.98   24.21
   1   1   0  994.81   24.21
   1   1   1  179.30    4.56
   1   1   1  185.70    4.58
   1   1   2  806.52   20.17
   1   1   2  860.66   20.39
  -1  -1  -2  836.23   20.17
  -1  -1  -2  833.31   20.29
  -1  -1  -2  877.91   20.29
  -1  -1  -2  837.11   20.19
  -1  -1  -2  819.69   20.36
   1   1   3   87.36    2.33
   1   1   3   94.93    2.70
  -1  -1  -3   87.94    2.34
  -1  -1  -3   87.07    2.58
  -1  -1  -3   87.23    2.35
   1   1   3   88.24    2.55
  -1  -1  -3   94.60    2.71
   1   1   4   75.27    2.40
  -1  -1  -4   81.49    2.47
   1   1   4   79.59    2.58
  -1  -1  -4   79.95    2.61
  -1  -1  -4   73.91    2.06
   1   1   4   75.26    2.06
  -1  -1  -4   78.25    2.47
   1   1   4   78.57    2.07
  -1  -1  -4   78.68    2.07
   1   1   5   48.09    1.32
  -1  -1  -5   51.57    2.13
  -1  -1  -5   49.14    1.30
   1   1   5   51.77    1.88
   1   1   5   44.70    1.31
  -1  -1  -5   48.67    1.92
  -1  -1  -5   53.40    1.96
  -1  -1  -5   40.82    1.30
  -1  -1  -6   36.46    1.81
   1   1   6   34.98    1.80
  -1  -1  -6   39.26    2.14
   1   1   7   11.94    1.71
  -1  -1  -7   10.69    1.80
  -1  -1  -7   10.85    1.55
   1   1   7   11.51    1.54
  -1  -1  -8   15.88    2.21
   1   1   8   13.42    1.71
   1   1   8   13.84    2.06
   1   1   8   12.46    0.61
   1   1   9  218.13    6.74
  -1  -1  -9  235.25    7.27
  -1  -1 -10  173.85    6.25
  -1  -1 -11   42.90    3.72
  -1  -1 -12   16.52    3.69
   1   1  12   21.11    3.85
  -1  -1 -13    0.93    3.63
   1   1  13   -2.41    3.94
   1   1  14   35.76    4.91
  -1  -1 -14   34.33    4.77
  -1  -1 -15   14.58    4.63
   1   1  15   21.17    5.11
  -1  -1 -16   21.80    5.03
   1   1  16   19.80    5.45
  -1  -2  18    6.63    5.12
  -1  -2  17   30.33    5.22
  -1  -2  16   27.92    4.83
  -1  -2  15   20.77    4.22
  -1  -2  14   32.59    4.11
  -1  -2  14   40.41    4.15
  -1  -2  13   -2.38    3.07
  -1  -2  13   -0.94    3.08
  -1  -2  12   11.40    2.97
  -1  -2  12   13.44    2.90
  -1  -2  11   35.51    3.03
  -1  -2  11   30.89    3.00
  -1  -2  10  117.26    4.53
  -1  -2  10  117.76    4.63
  -1  -2   9  791.19   15.68
  -1  -2   9  657.53   13.94
  -1  -2   9  772.28   15.49
  -1  -2   9  666.70   13.93
  -1  -2   8  255.63    7.26
  -1  -2   8  246.16    6.18
  -1  -2   8  253.29    7.11
   1   2  -8  244.52    6.16
  -1  -2   7   68.28    2.00
  -1  -2   7   68.58    2.03
  -1  -2   7   65.90    2.80
  -1  -2   7   68.95    2.52
   1   2  -7   68.90    1.96
   1   2  -7   68.82    2.00
  -1  -2   6   51.55    2.18
  -1  -2   6   50.85    1.94
  -1  -2   6   47.89    1.56
  -1  -2   6   46.87    1.59
   1   2  -6   50.13    1.53
   1   2  -6   49.25    1.57
  -1  -2   6   48.62    2.04
  -1  -2   5   19.19    1.10
  -1  -2   5   18.26    1.19
   1   2  -5   19.96    0.88
   1   2  -5   19.41    1.07
   1   2  -5   21.28    0.93
  -1  -2   5   19.76    0.98
  -1  -2   5   18.76    0.92
   1   2  -5   19.16    1.02
   1   2  -4  873.02   21.00
  -1  -2   4  864.15   21.01
  -1  -2   4  851.48   20.98
  -1  -2   4  855.00   21.07
   1   2  -4  879.71   20.97
  -1  -2   4  861.12   21.18
   1   2  -4  864.47   20.95
  -1  -2   3  150.31    3.91
  -1  -2   3  145.63    3.90
  -1  -2   3  150.03    4.02
  -1  -2   3  153.88    3.93
   1   2  -2 9892.58  238.04
  -1  -2   2 9999.00  238.05
  -1  -2   2 9943.77  237.87
  -1  -2   1 2735.37   65.62
   1   2   0   38.21    1.32
  -1  -2   0   41.46    1.33
   1   2   0   39.88    1.31
   1   2   0   39.83    1.35
   1   2   1  696.70   16.62
   1   2   1  656.00   16.59
  -1  -2  -1  685.68   16.73
  -1  -2  -1  691.77   16.60
  -1  -2  -2   14.72    0.79
  -1  -2  -2   14.49    1.01
   1   2   2   14.11    1.08
   1   2   2   14.63    0.85
   1   2   2   14.44    0.80
  -1  -2  -2   14.88    0.88
   1   2   3  393.63    9.97
   1   2   3  393.42    9.62
  -1  -2  -3  377.87    9.61
  -1  -2  -3  392.05    9.57
  -1  -2  -3  386.12    9.83
  -1  -2  -3  398.56    9.83
   1   2   3  383.80    9.60
   1   2   4  404.12    9.93
  -1  -2  -4  399.92    9.88
  -1  -2  -4  409.66   10.24
  -1  -2  -4  398.96    9.92
  -1  -2  -4  419.14   10.28
   1   2   4  388.68    9.91
  -1  -2  -4  415.90   10.39
  -1  -2  -5  282.21    7.62
   1   2   5  266.88    6.97
  -1  -2  -5  277.38    6.97
   1   2   5  301.43    7.70
  -1  -2  -5  280.29    7.40
  -1  -2  -5  304.23    7.46
   1   2   5  270.71    7.49
  -1  -2  -5  282.77    6.94
   1   2   5  276.95    6.96
  -1  -2  -6  269.50    6.90
  -1  -2  -6  283.97    6.66
   1   2   6  256.93    6.85
  -1  -2  -6  226.80    5.85
   1   2   6  223.95    5.89
  -1  -2  -6  236.82    5.86
   1   2   7  175.59    5.54
  -1  -2  -7  174.36    5.57
   1   2   8   18.15    2.42
  -1  -2  -8   17.89    2.38
  -1  -2  -9   12.74    2.62
  -1  -2 -10   62.56    3.95
  -1  -2 -11  137.37    5.86
  -1  -2 -12   48.42    4.29
   1   2  12   47.96    4.56
  -1  -2 -13   25.68    4.36
   1   2  13   36.13    4.66
  -1  -2 -14    9.22    4.35
   1   2  14   15.97    4.82
  -1  -2 -15    6.83    4.58
   1   2  15    8.92    5.20
  -1  -3  18    0.28    4.90
  -1  -3  17    1.17    4.57
  -1  -3  16    8.14    4.21
  -1  -3  15   57.37    4.83
  -1  -3  15   66.46    4.89
  -1  -3  14   63.63    4.49
  -1  -3  14   61.16    4.54
  -1  -3  13  107.50    5.20
  -1  -3  13  103.08    5.06
  -1  -3  12   30.62    3.27
  -1  -3  12   30.86    3.15
  -1  -3  11    1.17    2.28
  -1  -3  11    0.93    0.53
  -1  -3  11    2.80    2.38
  -1  -3  11    1.26    0.61
  -1  -3  11    0.77    0.52
   1   3 -10   25.14    1.24
  -1  -3  10   29.45    2.61
  -1  -3  10   26.69    2.51
  -1  -3  10   27.60    1.23
  -1  -3   9   10.86    1.88
  -1  -3   9   11.44    1.01
  -1  -3   9   12.21    1.11
   1   3  -9   13.09    1.12
  -1  -3   9   13.28    2.02
  -1  -3   8  298.48    7.73
  -1  -3   8  309.93    7.80
  -1  -3   8  303.01    8.44
  -1  -3   8  297.03    8.63
   1   3  -8  309.19    7.74
   1   3  -8  312.28    7.77
   1   3  -7 1333.21   31.83
  -1  -3   7 1323.53   31.86
   1   3  -7 1266.75   31.86
  -1  -3   7 1343.13   31.92
  -1  -3   7 1313.18   32.17
  -1  -3   6  417.35   10.65
  -1  -3   6  414.86   10.27
   1   3  -6  417.58   10.38
   1   3  -6  415.51   10.25
  -1  -3   6  396.32   10.47
  -1  -3   6  406.13   10.33
   1   3  -6  407.70   10.39
   1   3  -6  415.83   10.30
   1   3  -5  470.54   11.53
   1   3  -5  464.18   11.56
  -1  -3   5  461.57   11.59
   1   3  -5  456.13   11.60
   1   3  -5  472.23   11.59
  -1  -3   5  473.75   11.67
  -1  -3   5  450.98   11.76
  -1  -3   4   64.45    2.14
   1   3  -4   64.69    2.03
  -1  -3   4   64.44    2.04
   1   3  -4   67.61    2.03
  -1  -3   4   63.94    1.67
  -1  -3   4   62.30    2.08
   1   3  -3   52.16    1.73
  -1  -3   3   52.81    1.49
  -1  -3   3   52.41    1.79
   1   3  -2 5823.76  138.37
  -1  -3   2 5731.06  138.35
   1   3  -1   64.47    2.11
   1   3  -1   65.65    2.04
   1   3  -1   64.17    2.07
  -1  -3   1   67.08    2.11
  -1  -3   1   70.57    2.00
   1   3   0  701.50   17.06
  -1  -3   0  699.64   17.04
   1   3   0  684.60   17.09
  -1  -3  -1  673.86   16.78
   1   3   1  673.31   16.63
   1   3   1  667.57   16.59
  -1  -3  -1  689.12   16.62
  -1  -3  -2  501.13   12.44
   1   3   2  485.18   12.20
  -1  -3  -2  496.97   12.16
   1   3   2  484.54   12.24
  -1  -3  -2  493.79   12.22
  -1  -3  -3   19.17    1.19
   1   3   3   20.93    1.24
   1   3   3   20.81    1.16
  -1  -3  -3   19.64    1.08
  -1  -3  -3   20.07    1.46
  -1  -3  -4    1.81    0.82
  -1  -3  -4    0.43    0.92
   1   3   4    0.17    1.47
  -1  -3  -4    3.82    1.00
   1   3   4    0.95    0.89
   1   3   4    1.35    0.99
   1   3   5  138.09    3.95
  -1  -3  -5  145.34    4.54
  -1  -3  -5  157.10    4.39
   1   3   5  141.33    4.70
  -1  -3  -5  144.82    3.84
  -1  -3  -5  141.52    3.91
   1   3   5  143.40    3.75
   1   3   6  369.10    9.65
   1   3   6  349.31    8.66
  -1  -3  -6  359.85    8.61
  -1  -3  -6  356.07    8.55
  -1  -3  -6  387.28    9.55
  -1  -3  -7  134.86    3.38
  -1  -3  -7  167.87    4.82
  -1  -3  -7  104.57    3.33
   1   3   7  164.38    4.97
  -1  -3  -7  135.58    3.36
   1   3   7  126.75    3.48
  -1  -3  -8  127.95    4.79
  -1  -3  -9   34.45    3.06
  -1  -3 -10    1.52    2.95
  -1  -3 -11    3.97    3.29
  -1  -3 -12    8.06    3.81
   1   3  12    7.17    4.03
  -1  -3 -13   17.36    4.23
   1   3  13   19.54    4.67
  -1  -3 -14   16.34    4.63
   1   3  14   13.39    5.12
  -1  -4  19   25.88    5.37
  -1  -4  18   38.95    5.45
  -1  -4  17   26.77    4.95
  -1  -4  17   28.07    4.81
  -1  -4  16    3.30    4.08
  -1  -4  16    1.41    4.06
  -1  -4  15   -1.08    3.75
  -1  -4  15    2.21    3.73
   1   4 -14   -2.01    3.54
  -1  -4  14   -2.05    3.39
  -1  -4  14    0.89    3.28
  -1  -4  13   23.45    3.44
   1   4 -13   18.99    3.37
  -1  -4  13   26.65    3.43
  -1  -4  12   53.23    3.58
  -1  -4  12   48.45    3.37
   1   4 -12   50.57    3.59
  -1  -4  11   10.67    1.32
   1   4 -11    7.37    2.49
  -1  -4  11    5.45    1.23
  -1  -4  11    9.71    1.18
   1   4 -11    9.50    1.30
  -1  -4  11    7.29    2.55
  -1  -4  11    8.72    2.35
  -1  -4  10  257.71    7.63
  -1  -4  10  237.60    6.35
   1   4 -10  236.85    7.37
  -1  -4  10  237.21    6.29
   1   4 -10  242.38    6.38
  -1  -4  10  244.05    7.32
  -1  -4   9   86.85    3.74
  -1  -4   9   85.87    2.79
  -1  -4   9   83.31    2.67
   1   4  -9   82.05    2.76
  -1  -4   9   81.40    3.40
  -1  -4   8   87.48    2.84
   1   4  -8   87.11    2.70
   1   4  -8   83.62    2.77
  -1  -4   8   81.64    2.70
   1   4  -7    1.20    1.15
  -1  -4   7    0.54    1.15
  -1  -4   7    1.08    1.03
  -1  -4   7    1.29    1.16
   1   4  -7    1.16    0.97
   1   4  -7    2.14    0.96
   1   4  -6  232.85    3.58
   1   4  -6  226.42    3.55
  -1  -4   6  220.53    3.98
   1   4  -6  226.28    3.69
  -1  -4   6  234.37    3.83
  -1  -4   6  223.84    3.72
   1   4  -5  473.33   11.79
   1   4  -5  471.53   11.85
  -1  -4   5  467.00   11.45
  -1  -4   5  470.32   11.92
  -1  -4   5  492.76   11.92
   1   4  -5  474.08   11.91
   1   4  -4  291.59    7.31
  -1  -4   4  278.76    7.42
  -1  -4   4  282.22    7.04
  -1  -4   3    6.49    1.01
  -1  -4   3    6.51    0.99
  -1  -4   3    5.03    0.68
   1   4  -3    6.03    1.06
   1   4  -2  140.17    3.85
  -1  -4   2  134.21    3.70
   1   4  -1  279.82    7.30
  -1  -4   1  276.28    7.17
   1   4  -1  280.46    7.36
   1   4  -1  285.46    7.23
  -1  -4   0   58.60    2.06
   1   4   0   61.30    2.26
   1   4   0   63.85    2.18
   1   4   0   61.03    2.07
  -1  -4  -1   36.31    1.61
   1   4   1   32.06    1.50
   1   4   1   35.95    1.74
   1   4   1   36.33    1.65
  -1  -4  -1   33.30    1.58
   1   4   2  975.94   23.55
  -1  -4  -2  981.77   23.57
   1   4   2 1003.15   23.64
  -1  -4  -3  579.94   12.52
  -1  -4  -3  588.44   12.42
   1   4   3  565.76   12.32
   1   4   3  568.54   12.58
   1   4   3  546.01   13.01
   1   4   3  571.40   12.49
  -1  -4  -4  269.70    7.10
   1   4   4  269.78    7.18
   1   4   4  284.08    7.13
   1   4   4  262.37    6.91
  -1  -4  -4  285.28    7.50
  -1  -4  -4  271.06    6.99
   1   4   4  264.76    7.76
  -1  -4  -5   27.55    1.56
  -1  -4  -5   26.20    1.39
   1   4   5   25.77    2.47
   1   4   5   23.34    1.28
   1   4   5   26.85    1.75
  -1  -4  -6   63.10    2.23
   1   4   6   62.07    2.43
  -1  -4  -6   59.05    2.07
  -1  -4  -6   64.24    3.07
  -1  -4  -7   -0.39    1.04
  -1  -4  -7    2.31    2.18
  -1  -4  -7    1.01    1.14
  -1  -4  -7    0.62    0.98
   1   4   7   -1.35    1.41
  -1  -4  -8   11.85    0.88
  -1  -4  -8   10.57    0.86
  -1  -4  -8    9.18    0.89
   1   4   8   10.49    1.29
  -1  -4  -9  130.69    5.28
  -1  -4 -10   13.74    3.22
  -1  -4 -11   56.57    4.43
  -1  -4 -12   51.05    4.69
   1   4  12   61.41    5.30
  -1  -4 -13    9.71    4.33
   1   4  13   14.58    4.85
   1   4  14    4.83    5.17
  -1  -4 -14    8.51    4.53
  -1  -5  19    4.36    4.91
  -1  -5  18    5.31    4.71
  -1  -5  18    4.50    4.89
  -1  -5  17    4.89    4.56
  -1  -5  17   -3.90    4.26
  -1  -5  16   38.67    4.76
  -1  -5  16   34.19    4.55
  -1  -5  15   70.40    5.13
  -1  -5  15   69.24    4.81
  -1  -5  14   96.81    5.17
  -1  -5  14   97.63    5.41
   1   5 -13    5.69    1.42
  -1  -5  13    9.68    3.27
  -1  -5  13   12.06    3.06
  -1  -5  12  137.20    5.26
   1   5 -12  130.77    3.96
  -1  -5  12  127.60    3.95
  -1  -5  12  134.65    5.53
  -1  -5  11   16.82    2.52
  -1  -5  11   12.03    1.47
  -1  -5  11   12.63    1.67
  -1  -5  11   16.10    2.77
  -1  -5  10  181.70    5.90
  -1  -5  10  182.46    5.21
  -1  -5  10  176.16    5.05
  -1  -5  10  190.51    6.28
  -1  -5   9  243.42    6.60
  -1  -5   9  235.26    7.06
  -1  -5   9  240.37    6.47
  -1  -5   8   53.81    1.81
  -1  -5   8   56.86    2.03
  -1  -5   7   63.61    2.07
  -1  -5   7   58.99    2.04
  -1  -5   7   62.94    2.19
   1   5  -7   63.32    1.74
   1   5  -6  390.36    3.77
  -1  -5   6  383.74    4.32
  -1  -5   6  378.05    2.72
   1   5  -6  388.54    4.32
   1   5  -5  286.38    7.13
  -1  -5   5  265.76    6.85
  -1  -5   5  279.77    7.38
  -1  -5   4  178.25    4.83
   1   5  -4  192.05    5.06
  -1  -5   4  189.00    5.27
  -1  -5   4  189.95    5.19
  -1  -5   3  192.27    5.07
  -1  -5   2  841.85   20.75
  -1  -5   2  855.13   21.01
  -1  -5   1  903.30   22.55
   1   5  -1  939.70   22.65
   1   5   0  469.98   11.96
  -1  -5   0  471.26   11.95
  -1  -5   0  479.90   12.09
  -1  -5  -1  468.50   11.77
   1   5   1  430.60   11.33
  -1  -5  -1  456.81   11.49
  -1  -5  -2    4.78    1.32
   1   5   2    9.81    1.28
  -1  -5  -3    9.12    1.46
   1   5   3   10.03    1.45
  -1  -5  -3   10.41    1.29
   1   5   3   10.16    1.33
   1   5   3   11.01    1.74
  -1  -5  -4   92.90    3.12
  -1  -5  -4   94.15    2.95
   1   5   4   88.60    3.30
   1   5   4   90.27    2.88
   1   5   5  325.45    8.65
  -1  -5  -5  317.61    8.31
  -1  -5  -5  328.40    8.47
  -1  -5  -6  215.03    5.92
  -1  -5  -6  229.19    6.78
  -1  -5  -6  218.92    5.80
   1   5   6  211.95    6.11
   1   5   7  120.64    3.89
  -1  -5  -7  102.13    3.56
  -1  -5  -7  147.36    4.90
  -1  -5  -7  126.17    3.52
  -1  -5  -7  126.58    3.68
  -1  -5  -8   49.22    3.47
  -1  -5  -9   14.69    3.11
  -1  -5 -10    3.86    3.22
  -1  -5 -11   48.38    4.43
  -1  -5 -12   30.26    4.50
  -1  -5 -13   19.58    4.55
  -1  -6  19    8.30    4.85
  -1  -6  19    8.27    5.29
  -1  -6  18   37.57    5.45
  -1  -6  18   37.21    5.10
  -1  -6  17   86.19    5.87
  -1  -6  17   98.29    6.24
  -1  -6  16    7.65    4.21
  -1  -6  16    7.31    4.02
  -1  -6  15   -2.25    3.50
  -1  -6  15    3.11    3.98
   1   6 -14   83.49    2.90
  -1  -6  14   83.69    4.75
  -1  -6  14   86.64    5.17
  -1  -6  13   57.09    2.69
   1   6 -13   67.13    2.73
  -1  -6  13   58.29    4.00
  -1  -6  13   65.83    4.51
  -1  -6  12  204.84    6.83
  -1  -6  12  201.08    5.85
   1   6 -12  192.61    5.86
  -1  -6  11   54.24    2.68
   1   6 -11   50.79    2.69
  -1  -6  11   54.47    3.29
   1   6 -10   98.48    3.64
  -1  -6  10   89.59    3.97
  -1  -6   9   17.59    1.92
  -1  -6   9   13.31    1.97
   1   6  -9   14.81    1.95
  -1  -6   8   51.35    2.46
   1   6  -8   46.76    2.51
   1   6  -8   48.62    2.00
   1   6  -7   58.56    2.12
   1   6  -7   58.12    2.66
  -1  -6   7   59.81    2.59
  -1  -6   7   55.57    1.70
  -1  -6   6  128.74    3.56
   1   6  -6  131.36    4.35
   1   6  -6  138.12    3.85
  -1  -6   6  137.63    4.28
  -1  -6   5  295.20    7.97
  -1  -6   5  282.78    7.39
   1   6  -5  301.28    7.62
  -1  -6   4  578.81   14.30
  -1  -6   4  575.15   14.77
   1   6  -3    7.45    1.54
  -1  -6   3    8.46    1.14
   1   6  -2    0.67    1.38
   1   6  -2   -0.40    1.54
  -1  -6   2    1.73    1.07
  -1  -6   1   10.64    1.33
   1   6  -1    9.18    1.52
   1   6  -1    9.82    1.78
   1   6   0  203.81    6.00
   1   6   0  215.52    6.31
   1   6   1  339.88    9.38
  -1  -6  -1  351.74    9.25
   1   6   2  129.22    4.03
  -1  -6  -2  131.29    4.20
   1   6   2  135.41    4.45
  -1  -6  -3  246.07    6.76
   1   6   3  241.51    6.91
   1   6   3  236.24    6.52
  -1  -6  -4   49.68    2.45
   1   6   4   44.06    2.70
   1   6   5   48.54    2.82
  -1  -6  -5   50.84    2.49
   1   6   6   -2.03    2.12
  -1  -6  -6    1.27    2.28
  -1  -6  -6   -0.58    1.70
  -1  -6  -7   48.84    2.41
   1   6   7   45.25    2.73
  -1  -6  -8   75.44    4.19
  -1  -6  -9   61.86    4.21
  -1  -6 -10   27.64    3.92
  -1  -6 -11   23.27    4.13
   1   6  12    4.54    4.89
  -1  -6 -12   -1.90    4.20
  -1  -7  19   -3.38    5.18
  -1  -7  18    7.65    5.08
  -1  -7  18   11.51    4.58
  -1  -7  17   15.61    4.80
  -1  -7  17   16.51    4.36
  -1  -7  16   41.56    4.49
  -1  -7  16   57.19    5.22
  -1  -7  15   81.16    5.44
  -1  -7  15   67.03    4.74
  -1  -7  14   49.64    4.40
   1   7 -14   39.22    2.69
  -1  -7  14   42.78    3.86
  -1  -7  13    2.93    3.48
  -1  -7  13    6.41    2.17
  -1  -7  13   11.61    2.95
   1   7 -13    5.08    2.21
   1   7 -12    2.37    2.23
  -1  -7  12    6.11    2.55
  -1  -7  12    4.24    2.21
  -1  -7  11   71.10    3.30
   1   7 -11   70.92    3.37
   1   7 -10   91.14    3.83
  -1  -7  10   99.81    3.78
   1   7  -9   17.11    1.49
  -1  -7   9   23.18    2.21
   1   7  -9   17.81    2.26
   1   7  -8  358.36    8.61
  -1  -7   8  345.90    9.13
   1   7  -8  348.43    9.24
   1   7  -7  188.43    5.83
  -1  -7   7  175.84    5.62
  -1  -7   7  181.09    4.82
   1   7  -7  190.87    5.09
  -1  -7   6    9.21    1.11
   1   7  -6   11.03    1.21
  -1  -7   6    7.82    1.86
   1   7  -6    6.82    1.99
  -1  -7   5   47.79    1.94
  -1  -7   5   51.55    2.64
   1   7  -5   52.29    2.10
  -1  -7   4   34.97    2.29
   1   7  -4   32.69    2.50
  -1  -7   4   36.45    1.73
   1   7  -3  110.00    4.10
  -1  -7   3  106.07    3.38
   1   7  -2  132.84    4.66
   1   7  -1  256.78    7.55
  -1  -7   1  256.41    7.34
  -1  -7   0   86.11    3.44
   1   7   0   89.07    3.72
  -1  -7  -1   18.27    2.08
   1   7   1   16.05    2.38
  -1  -7  -2    2.89    1.86
   1   7   2    2.18    2.25
  -1  -7  -3   72.26    3.11
   1   7   3   67.13    3.46
   1   7   4   14.14    2.52
  -1  -7  -4   12.77    2.12
  -1  -7  -5  119.20    4.19
   1   7   5  121.94    4.58
   1   7   6  130.85    4.75
  -1  -7  -6  131.85    4.36
  -1  -7  -7   29.03    3.30
  -1  -7  -7   22.35    2.21
   1   7   7   23.90    2.69
  -1  -7  -8   -0.33    3.12
  -1  -7  -9    4.24    3.43
  -1  -7 -10   12.99    3.88
  -1  -7 -11   18.52    4.30
   1   7  11   23.24    5.02
  -1  -8  18   12.63    5.21
  -1  -8  17   -2.27    4.04
  -1  -8  17   -2.86    4.92
  -1  -8  16    0.91    4.40
  -1  -8  16   -6.25    3.63
   1   8 -15    8.56    2.50
  -1  -8  15   12.51    4.32
  -1  -8  15   14.87    3.52
   1   8 -14   41.86    3.10
  -1  -8  14   43.67    3.01
  -1  -8  13  150.29    5.21
   1   8 -13  145.66    5.20
   1   8 -12  130.67    4.96
  -1  -8  12  136.34    4.91
  -1  -8  11   71.76    3.58
   1   8 -11   69.69    3.70
  -1  -8  10    9.90    2.41
   1   8 -10    6.40    2.47
  -1  -8   9    0.86    0.80
   1   8  -9    0.97    2.32
   1   8  -9    1.24    1.23
  -1  -8   9    3.41    2.26
   1   8  -8   73.91    2.51
   1   8  -8   66.59    3.59
  -1  -8   8   74.72    3.46
  -1  -8   8   65.57    2.21
   1   8  -7  124.36    4.80
  -1  -8   7  124.79    3.67
  -1  -8   7  129.80    4.68
   1   8  -7  135.61    3.86
  -1  -8   6  253.33    7.56
   1   8  -6  266.43    6.89
  -1  -8   6  248.50    6.74
   1   8  -5  670.98   15.85
  -1  -8   5  634.16   16.36
   1   8  -4   63.05    3.46
   1   8  -3   -1.70    2.31
   1   8  -2    0.76    2.37
  -1  -8   1   60.22    3.06
   1   8  -1   57.92    3.44
  -1  -8   0  197.25    6.12
   1   8   0  193.24    6.48
   1   8   1  176.27    6.09
  -1  -8  -1  179.84    5.75
  -1  -8  -2  156.74    5.36
   1   8   2  166.30    5.81
  -1  -8  -3   85.32    3.78
   1   8   3   89.08    4.21
   1   8   4   -0.06    2.75
  -1  -8  -4    5.08    2.31
   1   8   5    9.29    2.83
  -1  -8  -5   14.33    2.42
   1   8   6   63.24    3.70
  -1  -8  -6   60.58    3.17
  -1  -8  -7   69.54    4.29
  -1  -8  -7   55.58    3.09
  -1  -8  -8   62.31    4.41
  -1  -8  -9   15.97    3.87
  -1  -8 -10   21.93    4.17
  -1  -9  18   56.35    6.19
  -1  -9  17   30.56    5.43
  -1  -9  16   23.17    4.98
   1   9 -15   -0.21    2.80
  -1  -9  15    4.16    4.40
  -1  -9  14    3.56    2.80
   1   9 -14   11.16    2.94
  -1  -9  14    5.06    4.12
  -1  -9  13    0.06    2.82
   1   9 -13    3.55    2.80
  -1  -9  12   51.53    3.52
   1   9 -12   46.33    3.58
  -1  -9  11  152.70    5.49
   1   9 -11  142.39    5.58
  -1  -9  10  186.16    6.30
   1   9 -10  189.49    6.56
  -1  -9   9  153.50    5.42
   1   9  -9  146.17    5.58
   1   9  -9  141.45    4.27
   1   9  -8   31.18    3.09
  -1  -9   8   27.84    2.89
   1   9  -8   24.71    1.64
   1   9  -7    1.39    2.75
  -1  -9   7    1.91    1.34
   1   9  -7   -0.11    1.25
  -1  -9   7   -0.06    2.29
   1   9  -6    1.60    1.35
  -1  -9   6    1.68    2.33
   1   9  -5  263.90    8.53
  -1  -9   5  276.22    8.28
   1   9  -5  280.73    7.52
   1   9  -4  148.42    5.66
   1   9  -3  214.86    7.19
   1   9  -2   64.25    3.96
   1   9  -1   21.95    3.21
  -1  -9   1   27.50    2.81
   1   9   0    2.48    2.92
  -1  -9   0    1.30    2.51
   1   9   1    6.98    3.11
  -1  -9  -1   10.94    2.62
   1   9   2   69.54    4.30
  -1  -9  -2   72.05    3.74
  -1  -9  -3   72.33    3.78
   1   9   3   72.39    4.32
  -1  -9  -4   20.11    2.85
   1   9   4   20.83    3.41
   1   9   5   41.83    3.73
  -1  -9  -5   37.31    3.10
  -1  -9  -6   13.35    2.64
  -1  -9  -7    3.94    3.50
  -1  -9  -8    5.44    3.68
  -1  -9  -9    9.27    4.05
  -1 -10  18    7.54    5.43
  -1 -10  17   -3.35    5.12
  -1 -10  16   23.54    5.27
  -1 -10  15   46.21    5.60
   1  10 -15   46.90    3.83
   1  10 -14   22.41    3.51
  -1 -10  14   17.52    3.31
   1  10 -13   58.53    4.14
  -1 -10  13   58.59    4.04
  -1 -10  12   12.15    3.26
   1  10 -12   14.77    3.45
   1  10 -11   -2.33    3.30
  -1 -10  11    1.28    3.05
  -1 -10  10    4.53    3.14
   1  10 -10    5.45    3.24
   1  10  -9   49.82    4.05
  -1 -10   9   53.74    3.75
   1  10  -8  148.97    4.35
   1  10  -8  143.23    6.01
  -1 -10   8  151.91    5.73
   1  10  -7  219.18    6.05
  -1 -10   7  218.57    7.27
   1  10  -6   44.18    2.19
  -1 -10   6   41.96    3.40
   1  10  -5   35.11    3.73
   1  10  -4   18.01    3.48
  -1 -10   4   10.10    2.90
   1  10  -3    5.58    3.32
   1  10  -2   38.13    3.97
  -1 -10   2   46.76    3.54
  -1 -10   1  166.45    5.94
   1  10  -1  145.18    6.33
  -1 -10   0   73.64    4.09
   1  10   0   65.73    4.60
   1  10   1   44.62    4.20
  -1 -10  -1   40.73    3.47
  -1 -10  -2   19.64    3.20
   1  10   2   28.62    3.91
  -1 -10  -3   83.24    4.27
   1  10   3   77.46    4.82
   1  10   4   11.26    3.62
  -1 -10  -4    7.88    3.03
   1  10   5   39.61    4.07
  -1 -10  -5   37.84    3.44
  -1 -10  -6   47.85    4.21
  -1 -10  -6   42.70    3.35
  -1 -10  -7    5.64    3.70
  -1 -10  -8   25.92    4.33
  -1 -11  17   21.07    5.71
  -1 -11  16    5.50    5.21
   1  11 -15    1.28    3.55
  -1 -11  14   11.37    3.64
   1  11 -14   11.87    3.68
  -1 -11  13   37.76    4.00
   1  11 -13   36.58    4.10
   1  11 -12   32.15    4.14
  -1 -11  12   33.56    3.93
   1  11 -11  103.05    5.47
  -1 -11  11   99.95    5.07
  -1 -11  10   84.22    4.80
   1  11 -10   85.03    5.12
   1  11  -9   19.27    3.95
  -1 -11   9   16.79    3.45
  -1 -11   8   -4.52    3.26
   1  11  -8   -1.93    3.66
  -1 -11   7   13.01    3.34
  -1 -11   6  150.43    6.03
   1  11  -5   86.29    5.32
   1  11  -4   87.70    5.39
   1  11  -3  156.32    6.80
  -1 -11   2  126.88    5.55
   1  11  -2  123.07    6.17
   1  11  -1   11.01    4.06
  -1 -11   1    8.20    3.35
   1  11   0   16.36    4.26
  -1 -11   0   17.21    3.44
   1  11   1   55.93    4.93
  -1 -11  -1   61.05    4.28
  -1 -11  -2  132.78    5.70
   1  11   2  129.69    6.32
   1  11   3   74.92    5.24
  -1 -11  -3   81.18    4.55
  -1 -11  -4   21.28    3.44
   1  11   4   13.99    4.12
  -1 -11  -5    4.36    3.19
  -1 -11  -6    1.79    3.71
  -1 -11  -7   -2.23    3.98
  -1 -12  16    1.71    5.48
   1  12 -15   20.98    4.20
  -1 -12  15   23.18    4.08
  -1 -12  14   36.39    4.33
   1  12 -14   31.44    4.44
  -1 -12  13    6.92    3.84
   1  12 -13   10.69    4.11
  -1 -12  12   17.06    4.04
   1  12 -12   15.94    4.34
  -1 -12  11   23.62    4.05
   1  12 -11   20.82    4.46
   1  12 -10   13.19    4.41
  -1 -12  10   19.16    3.97
   1  12  -9   71.30    5.46
  -1 -12   9   82.77    5.08
   1  12  -8   47.07    5.15
  -1 -12   8   62.35    4.69
  -1 -12   7   24.40    3.96
   1  12  -6    0.32    4.25
  -1 -12   5    4.14    3.68
   1  12  -5    1.95    4.32
   1  12  -4   26.37    4.70
   1  12  -3  101.79    6.24
  -1 -12   3  102.50    5.54
  -1 -12   2  124.74    5.86
   1  12  -2  113.78    6.48
   1  12  -1   41.25    5.02
  -1 -12   1   33.26    4.12
  -1 -12   0   51.78    4.50
   1  12   0   57.02    5.37
   1  12   1    8.34    4.38
  -1 -12  -1    0.08    3.76
  -1 -12  -2   10.78    3.85
   1  12   2   13.48    4.59
   1  12   3    2.34    4.40
  -1 -12  -3    5.12    3.65
  -1 -12  -4   17.48    3.71
  -1 -12  -6   10.85    4.10
   1  13 -16    1.17    4.14
  -1 -13  15    2.72    4.24
   1  13 -15    7.06    4.36
  -1 -13  14    8.38    4.20
   1  13 -14    5.86    4.48
  -1 -13  13    4.83    4.30
   1  13 -13    6.79    4.54
   1  13 -12   -2.34    4.41
  -1 -13  12    5.22    4.28
   1  13 -11   15.08    4.78
  -1 -13  11   22.58    4.41
  -1 -13  10    5.12    4.08
   1  13 -10   10.52    4.72
  -1 -13   9    4.78    4.04
   1  13  -9   -0.57    4.76
  -1 -13   8   12.68    4.25
  -1 -13   7   36.40    4.60
   1  13  -6   64.75    5.93
   1  13  -5   31.08    5.36
   1  13  -4   40.30    5.57
   1  13  -3    9.54    5.11
  -1 -13   3    0.65    4.16
  -1 -13   2   12.16    4.23
   1  13  -2   11.31    5.04
   1  13  -1   -6.23    4.97
  -1 -13   1    9.68    4.18
   1  13   0   11.53    5.00
  -1 -13   0   17.91    4.39
   1  13   1   20.04    5.03
  -1 -13  -1   19.11    4.36
  -1 -13  -2   56.85    4.95
   1  13   2   56.35    5.73
  -1 -13  -3   19.32    4.11
  -1 -14  15    2.06    4.46
   1  14 -15   14.17    4.72
   1  14 -14    6.85    4.78
  -1 -14  14    4.75    4.56
   1  14 -13    1.30    4.95
  -1 -14  13   -1.54    4.50
   1  14 -12   -6.07    5.02
  -1 -14  12    4.76    4.68
   1  14 -11   24.50    5.41
  -1 -14  11   31.94    5.00
   1  14 -10   50.71    6.05
  -1 -14  10   47.56    5.29
   1  14  -9   13.63    5.47
  -1 -14   9   21.89    4.71
  -1 -14   8   13.02    4.63
  -1 -14   7   -2.68    4.62
   1  14  -7   -0.26    5.40
   1  14  -6   -0.79    5.34
   1  14  -5   17.15    5.67
  -1 -14   4   81.70    5.89
   1  14  -4   78.50    6.73
  -1 -14   3   30.58    5.02
   1  14  -3   32.52    5.88
   1  14  -2   14.69    5.55
  -1 -14   2   12.87    4.75
   1  14  -1   22.56    5.57
  -1 -14   1   25.66    4.87
   1  14   0   15.97    5.42
  -1 -14   0    8.91    4.51
  -1 -14  -1    2.39    4.36
   1  14   1   15.90    5.33
   1  14   2   24.97    5.26
  -1 -14  -2   21.31    4.47
   1  15 -13    1.88    5.38
  -1 -15  13    4.85    5.01
   1  15 -12    3.54    5.48
  -1 -15  12    7.94    5.02
  -1 -15  11    3.24    4.96
   1  15 -11    0.13    5.49
   1  15 -10   -2.09    5.57
  -1 -15  10   -5.15    5.04
   1  15  -9    4.81    5.65
  -1 -15   9   13.63    5.18
  -1 -15   8   22.86    5.18
   1  15  -7    9.64    6.04
   1  15  -6   15.04    6.00
   1  15  -5   10.46    5.99
  -1 -15   5    1.10    5.24
  -1 -15   4    7.94    5.02
   1  15  -4    2.74    5.70
   1  15  -3    5.25    5.80
  -1 -15   3    1.39    4.93
  -1 -15   2    6.04    4.94
   1  15  -2    4.09    5.76
   1  15  -1   13.99    5.90
  -1 -15   1   23.22    5.13
   2 -15   0   -2.03    4.65
  -2  15   0    3.34    5.95
   2 -15   1    8.63    4.87
  -2  15  -1    5.89    6.20
  -2  15  -2   11.76    6.23
   2 -15   2    6.16    4.80
  -2  15  -3   88.87    7.57
   2 -15   3   69.04    5.98
  -2  15  -4   83.48    7.51
  -2  15  -5   38.45    6.68
   2 -15   6    9.11    4.73
   2 -15   7    4.69    4.80
   2 -15   8   -6.39    4.85
  -2  15  -8   -4.02    5.90
   2 -15   9   17.42    4.84
  -2  15  -9    4.04    5.78
   2 -15  10   21.20    5.01
  -2  15 -10   16.75    5.89
   2 -15  11   26.77    5.12
  -2  15 -11   21.45    5.96
   2 -14  -4   -4.15    4.13
   2 -14  -3    0.25    4.21
  -2  14   3   -0.83    5.28
   2 -14  -2   27.34    4.63
  -2  14   2   35.00    5.84
   2 -14  -1   27.12    4.67
  -2  14   1   23.15    5.84
   2 -14   0   19.21    4.53
  -2  14   0   14.96    5.83
   2 -14   1   28.23    4.70
  -2  14  -1   34.44    6.18
  -2  14  -2   17.49    5.90
   2 -14   2   19.15    4.66
   2 -14   3    4.96    4.44
  -2  14  -3   -0.84    5.66
  -2  14  -4    0.56    5.63
  -2  14  -5   85.16    7.02
   2 -14   6  117.28    6.38
   2 -14   7   17.52    4.49
  -2  14  -7   14.52    5.85
  -2  14  -8    7.31    5.60
   2 -14   8    2.52    4.35
  -2  14  -9    5.29    5.38
   2 -14   9    6.20    4.42
   2 -14  10    3.66    4.37
  -2  14 -10    1.61    5.21
  -2  14 -11    7.28    5.23
   2 -14  11    4.41    4.33
  -2  14 -12    6.15    5.15
   2 -14  12   -5.66    4.42
  -2  14 -13   -3.31    4.91
   2 -14  13    1.57    4.33
  -2  14 -14   12.20    4.85
   2 -13  -5    7.74    3.82
   2 -13  -4   11.12    3.90
  -2  13   4   12.90    5.02
   2 -13  -3   24.19    4.25
  -2  13   3   23.34    5.20
   2 -13  -2   16.02    4.14
  -2  13   2   18.34    5.31
  -2  13   1    8.30    5.21
   2 -13  -1    5.14    4.00
   2 -13   0    5.21    3.91
  -2  13   0   -0.50    5.19
   2 -13   1   29.03    4.42
  -2  13  -1   37.30    5.70
  -2  13  -2   67.83    6.22
   2 -13   2   61.44    5.01
  -2  13  -3   42.65    5.76
  -2  13  -4   86.08    6.48
   2 -13   4   76.55    5.40
  -2  13  -5    7.73    5.12
   2 -13   6    2.49    4.08
   2 -13   7   13.07    4.15
  -2  13  -7   12.67    5.03
  -2  13  -8   22.71    5.15
   2 -13   8   21.94    4.32
   2 -13   9   45.04    4.62
  -2  13  -9   46.82    5.56
   2 -13  10   13.10    4.17
  -2  13 -10   20.92    4.99
   2 -13  11   14.64    4.19
  -2  13 -11   26.96    5.06
   2 -13  12   43.95    4.66
  -2  13 -12   52.94    5.48
  -2  13 -13    4.51    4.46
   2 -13  13    9.24    4.09
  -2  13 -14    7.27    4.37
  -2  12   7   17.15    4.50
   2 -12  -6    6.79    3.47
  -2  12   6    8.03    3.97
  -2  12   5    0.68    4.36
  -2  12   5    0.17    3.60
   2 -12  -5    5.91    3.49
   2 -12  -4    2.54    3.52
  -2  12   4    9.41    3.39
  -2  12   4   -2.37    4.72
  -2  12   3    7.36    4.66
  -2  12   3    7.11    3.15
   2 -12  -3    8.26    3.61
  -2  12   2   58.43    3.82
  -2  12   2   72.07    5.71
   2 -12  -2   69.34    4.59
  -2  12   1   99.40    4.32
   2 -12  -1  115.23    5.50
  -2  12   1  119.35    6.56
  -2  12   0   45.10    5.38
  -2  12   0   42.22    2.78
   2 -12   0   49.00    4.34
   2 -12   1   32.28    4.16
  -2  12  -1   29.92    5.11
  -2  12  -1   36.64    2.12
  -2  12  -2   -1.99    4.54
   2 -12   2    0.08    3.65
  -2  12  -3   36.88    5.11
  -2  12  -4   61.45    5.59
   2 -12   5   24.86    3.95
   2 -12   6   91.89    5.14
   2 -12   7   82.28    4.97
  -2  12  -7   77.58    5.91
  -2  12  -8   68.58    5.57
   2 -12   8   76.66    4.79
   2 -12   9    0.90    3.62
  -2  12  -9    7.39    4.35
   2 -12  10   30.50    4.09
  -2  12 -10   29.58    4.79
  -2  12 -11   84.69    5.56
   2 -12  11   71.86    4.81
   2 -12  12   29.32    4.07
  -2  12 -12   30.66    4.61
   2 -12  13   34.11    4.16
  -2  12 -13   32.11    4.58
  -2  12 -14   24.55    4.25
  -2  11   9   -1.35    4.64
  -2  11   8   -0.85    4.24
  -2  11   7    5.48    4.07
   2 -11  -6   25.37    3.53
  -2  11   6   32.24    4.28
  -2  11   5   83.47    5.49
   2 -11  -5   79.03    4.50
  -2  11   4   91.11    5.70
  -2  11   4   98.74    4.87
   2 -11  -4   92.36    4.79
  -2  11   3   -0.66    2.85
   2 -11  -3    2.60    3.30
  -2  11   3   -0.49    4.19
  -2  11   2    5.53    2.61
  -2  11   2    8.02    4.17
   2 -11  -2    3.00    3.28
   2 -11  -1    5.49    3.29
  -2  11   1    4.81    4.18
  -2  11   0   11.76    4.26
   2 -11   0   16.69    3.39
  -2  11  -1   73.59    5.30
   2 -11   1   57.97    4.18
  -2  11  -2   93.21    5.54
  -2  11  -2   74.01    2.57
  -2  11  -3   78.31    5.43
   2 -11   4   40.61    3.76
  -2  11  -4   29.28    4.42
   2 -11   5   12.82    3.44
   2 -11   5   15.70    3.36
   2 -11   6    8.28    3.19
  -2  11  -6    2.04    3.95
   2 -11   7   29.92    3.66
  -2  11  -7   27.75    4.28
   2 -11   8  205.79    7.50
   2 -11   8  194.12    7.16
  -2  11  -8  209.01    7.89
   2 -11   9   46.98    4.44
  -2  11  -9   48.40    4.63
   2 -11   9   47.50    3.99
  -2  11 -10   13.68    4.07
   2 -11  10   16.68    3.52
   2 -11  10   23.00    4.11
  -2  11 -11   -0.44    3.86
   2 -11  11   -0.14    3.21
  -2  11 -12    3.14    3.83
   2 -11  12   -3.46    3.40
  -2  11 -13   32.39    4.14
   2 -11  13   23.26    3.63
  -2  11 -14    2.05    3.61
   2 -11  15   24.72    5.62
   2 -11  16   10.51    5.35
  -2  10  10   46.99    5.46
  -2  10   9   90.81    5.94
   2 -10  -9   69.61    5.41
  -2  10   8   86.26    5.60
   2 -10  -7    5.57    2.84
  -2  10   7   11.10    3.95
  -2  10   6   -0.70    3.46
  -2  10   6    2.79    3.69
   2 -10  -6    0.43    2.88
   2 -10  -5   21.22    3.13
  -2  10   5   21.21    3.47
  -2  10   5   24.76    4.16
   2 -10  -4   40.39    3.45
  -2  10   4   38.99    4.28
  -2  10   4   39.42    3.49
  -2  10   3  125.48    5.97
   2 -10  -3  129.07    5.18
  -2  10   2   39.55    4.30
   2 -10  -2   45.21    3.53
  -2  10   1   34.23    4.17
   2 -10  -1   40.44    3.46
  -2  10   0   95.07    5.32
   2 -10   0   92.46    4.42
   2 -10   1    0.54    2.82
  -2  10  -1    3.91    3.58
  -2  10  -2   -2.61    3.46
   2 -10   2    0.12    2.70
   2 -10   3   63.29    3.78
  -2  10  -3   63.73    4.54
   2 -10   4   48.75    3.64
   2 -10   4   47.34    3.53
  -2  10  -4   48.83    4.29
   2 -10   5  218.54    7.22
   2 -10   6  153.77    5.95
   2 -10   6  171.09    6.19
  -2  10  -6  170.81    6.74
  -2  10  -7   10.59    3.53
   2 -10   7   19.77    3.13
   2 -10   8   35.59    3.84
   2 -10   8   39.88    3.44
  -2  10  -8   40.86    4.13
   2 -10   9   -3.02    3.40
  -2  10  -9   -0.92    3.38
   2 -10   9    0.13    2.84
  -2  10 -10   23.92    3.74
   2 -10  10   17.34    3.65
   2 -10  10   24.39    3.38
  -2  10 -11   82.44    4.79
   2 -10  11   77.64    4.82
   2 -10  12   50.12    4.47
  -2  10 -12   48.79    4.12
   2 -10  12   42.18    3.61
  -2  10 -13   27.67    3.68
   2 -10  13   22.59    3.32
  -2  10 -14    5.92    3.30
   2 -10  15   -0.27    4.74
   2 -10  16    4.15    5.00
   2 -10  17    9.80    5.19
  -2   9  11   25.57    5.21
  -2   9  10   -3.61    4.60
   2  -9 -10    8.21    4.17
  -2   9   9   26.83    4.64
   2  -9  -8   52.75    3.24
  -2   9   8   70.98    5.03
   2  -9  -7   65.42    3.57
  -2   9   7   73.00    4.41
  -2   9   7   80.05    4.81
  -2   9   6  121.05    5.34
  -2   9   6  113.29    5.24
   2  -9  -6  106.25    4.39
  -2   9   5   25.25    3.70
   2  -9  -5   30.97    3.00
  -2   9   4   19.51    3.56
   2  -9  -4   21.21    2.84
  -2   9   3    0.79    3.30
   2  -9  -3    1.58    2.55
  -2   9   2    2.98    3.19
   2  -9  -2    0.23    2.55
   2  -9  -1  170.70    5.82
  -2   9   1  164.56    6.39
   2  -9   0  250.01    7.69
  -2   9   0  247.46    8.22
   2  -9   0  250.11    7.34
  -2   9  -1  148.72    6.01
   2  -9   1  160.80    5.37
  -2   9  -2  117.83    5.34
   2  -9   2  124.34    4.67
   2  -9   3   70.02    3.61
  -2   9  -3   66.06    4.18
   2  -9   4    2.74    2.50
   2  -9   5   29.95    2.89
  -2   9  -6  201.53    7.04
   2  -9   6  192.69    6.47
   2  -9   7  162.48    5.83
  -2   9  -7  167.55    6.36
   2  -9   7  180.61    6.19
  -2   9  -8   50.47    3.96
   2  -9   8   51.45    3.76
   2  -9   8   49.31    3.35
   2  -9   9   79.73    3.98
   2  -9   9   86.34    4.61
  -2   9  -9   89.84    4.54
   2  -9  10   10.34    3.28
   2  -9  10    6.97    2.72
  -2   9 -10   10.92    3.11
  -2   9 -11    4.20    3.13
   2  -9  11    2.42    3.42
   2  -9  11    0.17    2.69
   2  -9  12   22.47    3.85
  -2   9 -12   23.47    3.38
   2  -9  12   25.08    2.93
  -2   9 -13   59.52    3.82
   2  -9  13   50.70    3.45
   2  -9  14   74.02    5.72
   2  -9  15   14.22    4.71
   2  -9  16   18.56    5.02
   2  -9  17    6.50    4.89
  -2   8  12   26.06    5.34
   2  -8 -12   26.61    4.77
  -2   8  11   68.50    5.68
   2  -8 -11   54.88    5.07
  -2   8  10   14.98    4.45
   2  -8 -10    9.15    3.98
  -2   8   9   39.59    4.57
   2  -8  -8   33.33    2.59
  -2   8   8   33.21    4.16
   2  -8  -7    1.75    2.21
  -2   8   7    3.51    2.90
  -2   8   7    1.55    3.17
  -2   8   6   37.99    3.46
  -2   8   6   39.66    3.49
   2  -8  -6   35.68    2.77
  -2   8   5  171.07    6.05
   2  -8  -5  166.03    5.47
   2  -8  -4  202.43    6.36
  -2   8   4  211.10    6.97
  -2   8   3   28.48    3.17
   2  -8  -3   30.31    2.67
  -2   8   2  390.24   11.51
   2  -8  -2  418.26   11.11
   2  -8  -1  132.39    4.35
   2  -8  -1  119.50    4.63
  -2   8   1  133.77    5.25
   2  -8   0    1.84    2.03
   2  -8   0   -1.56    2.12
  -2   8   0    2.35    2.56
   2  -8   1  345.34    9.30
  -2   8  -1  322.67    9.85
  -2   8  -2  172.80    6.08
   2  -8   2  169.29    5.51
   2  -8   3  266.50    7.87
  -2   8  -3  267.66    8.29
   2  -8   4   42.93    2.82
  -2   8  -5   81.60    4.16
   2  -8   5   86.62    3.75
   2  -8   6   27.62    2.53
   2  -8   6   31.22    2.99
  -2   8  -6   28.41    3.04
   2  -8   7   16.41    2.80
   2  -8   7   16.48    2.51
  -2   8  -7   14.58    2.85
  -2   8  -8    6.71    2.67
   2  -8   8    5.31    2.80
   2  -8   8    9.39    2.38
   2  -8   9  115.87    4.87
  -2   8  -9  116.96    4.74
   2  -8  10  139.18    5.54
   2  -8  10  132.55    4.94
  -2   8 -10  148.86    5.38
   2  -8  11  125.42    4.49
   2  -8  11  133.99    5.44
  -2   8 -11  140.84    5.10
   2  -8  11  122.11    4.64
   2  -8  12    3.61    2.30
   2  -8  12    2.73    2.37
  -2   8 -12    0.93    2.67
   2  -8  12    0.80    3.25
   2  -8  13    4.87    3.90
   2  -8  13    4.24    3.37
   2  -8  14    4.50    4.01
   2  -8  15   17.70    4.48
   2  -8  16   18.16    4.79
   2  -8  17   -1.11    4.71
   2  -7 -13   20.84    4.74
  -2   7  13   23.14    5.27
   2  -7 -12   -1.06    4.13
  -2   7  12    2.27    4.75
  -2   7  11   28.52    4.76
   2  -7 -11   27.14    4.29
  -2   7  10    7.71    4.01
   2  -7 -10    1.14    3.65
   2  -7  -9   72.17    3.22
   2  -7  -9   64.97    2.91
   2  -7  -8   57.44    2.80
  -2   7   8   63.11    3.50
   2  -7  -7  210.24    6.10
  -2   7   7  201.18    6.58
  -2   7   7  204.79    7.80
  -2   7   7  220.34    7.29
  -2   7   6   94.06    4.14
   2  -7  -6   89.69    3.56
  -2   7   6   95.44    5.12
  -2   7   5   67.36    3.54
   2  -7  -5   62.64    2.97
  -2   7   4   14.77    3.04
  -2   7   4   11.13    2.59
   2  -7  -4   13.62    2.12
   2  -7  -3   94.31    3.66
  -2   7   3   95.48    4.11
  -2   7   3   89.73    4.53
   2  -7  -2  728.51   18.02
  -2   7   2  733.76   18.73
   2  -7  -2  731.08   18.37
  -2   7   2  671.17   18.97
   2  -7  -1  368.81    9.99
   2  -7  -1  367.91    9.69
  -2   7   1  358.90   10.30
   2  -7   0  178.52    5.33
  -2   7   0  171.68    5.82
  -2   7  -1  164.12    5.68
   2  -7   1  173.39    5.25
  -2   7  -2   28.85    2.60
   2  -7   3    5.32    1.88
   2  -7   4   58.06    2.88
  -2   7  -5  260.94    7.75
   2  -7   5  255.15    7.43
   2  -7   6  224.09    6.98
   2  -7   6  228.58    6.79
  -2   7  -6  239.12    7.19
   2  -7   7  212.63    6.72
  -2   7  -7  219.50    6.74
   2  -7   7  215.83    6.51
   2  -7   7  210.55    6.42
   2  -7   8  152.60    5.35
   2  -7   8  146.42    4.91
  -2   7  -8  151.42    5.23
   2  -7   8  140.73    4.92
   2  -7   9   68.19    3.16
   2  -7   9   65.81    2.81
   2  -7   9   64.84    3.17
   2  -7   9   72.18    3.86
  -2   7  -9   73.42    3.51
  -2   7 -10   21.93    2.62
   2  -7  10   19.27    2.11
   2  -7  10   19.30    2.97
   2  -7  10   18.70    2.29
   2  -7  11    4.76    1.41
   2  -7  11    5.51    2.11
  -2   7 -11    8.17    2.48
   2  -7  11    4.83    2.14
   2  -7  11    7.23    2.93
   2  -7  12   56.66    3.40
   2  -7  12   51.99    2.83
   2  -7  12   60.47    3.82
   2  -7  12   54.01    4.31
   2  -7  13   76.96    4.14
   2  -7  13   89.04    5.15
   2  -7  13   79.26    4.32
   2  -7  14   30.11    3.51
   2  -7  14   33.52    4.29
   2  -7  15   15.09    4.33
   2  -7  16   27.45    4.77
   2  -7  17    3.88    4.49
   2  -6 -13   29.77    4.58
  -2   6  13   34.59    5.31
   2  -6 -12   30.01    4.39
  -2   6  12   27.09    4.85
   2  -6 -11   12.08    3.72
  -2   6  11    6.89    4.20
   2  -6 -10   27.38    3.62
  -2   6  10   27.52    4.12
  -2   6  10   21.66    4.35
  -2   6   9    1.36    3.73
   2  -6  -9    6.25    1.81
  -2   6   9   -0.75    3.32
   2  -6  -9    0.10    1.57
  -2   6   8    4.69    2.98
   2  -6  -8    1.61    1.65
  -2   6   8    2.73    3.56
  -2   6   7  100.10    5.03
  -2   6   7  104.71    4.61
   2  -6  -7  101.37    3.47
  -2   6   7   94.57    3.94
  -2   6   6  186.69    6.84
   2  -6  -6  191.16    5.57
  -2   6   6  197.69    6.02
   2  -6  -5  217.92    6.18
  -2   6   5  202.58    7.14
  -2   6   5  219.10    6.53
   2  -6  -4  229.15    6.51
  -2   6   4  235.95    6.89
  -2   6   4  220.37    7.33
  -2   6   3  203.86    6.92
   2  -6  -3  218.90    6.26
  -2   6   3  215.26    6.56
   2  -6  -3  223.01    5.90
  -2   6   2   41.88    2.82
   2  -6  -2   45.58    2.39
  -2   6   2   46.41    2.76
   2  -6  -2   50.74    2.17
  -2   6   1   57.60    2.90
   2  -6  -1   60.99    2.68
   2  -6  -1   59.12    2.49
  -2   6   0   71.36    3.21
   2  -6   0   75.11    2.86
   2  -6   1   65.76    2.74
  -2   6  -1   64.11    2.97
   2  -6   2 1343.01   32.52
  -2   6  -2 1283.86   32.58
   2  -6   3  897.76   22.83
   2  -6   3  874.88   22.75
   2  -6   4  233.40    6.49
   2  -6   4  210.38    6.34
   2  -6   5    1.45    1.66
  -2   6  -5    2.87    1.86
   2  -6   5    2.22    1.87
  -2   6  -6   66.05    3.10
   2  -6   6   66.97    2.91
   2  -6   6   65.44    3.20
   2  -6   6   67.10    2.88
   2  -6   7  111.06    3.93
   2  -6   7  108.15    3.90
  -2   6  -7  119.52    4.20
   2  -6   7  116.96    4.32
   2  -6   7  115.41    3.48
   2  -6   8  109.66    4.28
   2  -6   8  105.99    3.80
   2  -6   8  104.96    3.72
  -2   6  -8  120.28    4.17
   2  -6   8  107.04    3.56
   2  -6   9  208.78    6.42
   2  -6   9  219.17    6.52
  -2   6  -9  254.57    6.88
   2  -6   9  250.38    7.15
   2  -6   9  239.77    6.63
   2  -6  10  153.23    4.49
   2  -6  10  147.46    4.79
   2  -6  10  153.60    5.14
   2  -6  10  166.85    5.57
   2  -6  11   71.95    3.71
   2  -6  11   65.81    2.47
   2  -6  11   64.35    3.41
   2  -6  11   63.41    2.80
   2  -6  11   71.88    4.14
   2  -6  12    7.35    2.13
   2  -6  12    8.73    2.59
   2  -6  12    9.43    2.85
   2  -6  12    8.89    3.36
   2  -6  12    6.58    1.78
   2  -6  13   10.26    2.93
   2  -6  13    8.84    2.96
   2  -6  13   12.36    3.46
   2  -6  14   14.31    3.35
   2  -6  14   15.45    3.85
   2  -6  15   40.66    4.58
   2  -6  15   38.45    4.14
   2  -6  16   44.89    4.98
   2  -5 -14   26.35    4.60
  -2   5  14   32.23    5.36
   2  -5 -13    4.19    3.98
  -2   5  13    7.19    4.52
  -2   5  12    0.19    4.06
  -2   5  12    2.69    4.12
   2  -5 -12    5.60    3.68
  -2   5  11    9.47    3.95
  -2   5  11    1.12    3.86
   2  -5 -11    3.40    3.31
   2  -5 -10   67.63    4.01
   2  -5 -10   52.21    1.94
  -2   5  10   62.79    4.56
  -2   5  10   64.97    4.48
   2  -5  -9  215.98    6.93
  -2   5   9  223.00    7.31
   2  -5  -9  212.09    5.57
  -2   5   9  219.62    7.44
   2  -5  -8   42.05    1.98
  -2   5   8   36.24    3.32
  -2   5   8   37.31    3.72
  -2   5   7   27.11    2.26
  -2   5   7   30.90    2.87
   2  -5  -7   31.13    1.88
  -2   5   7   27.67    3.25
   2  -5  -7   36.52    1.80
   2  -5  -7   31.06    1.70
   2  -5  -6    9.87    1.60
   2  -5  -6    7.61    1.44
  -2   5   6    5.76    2.64
  -2   5   6    7.73    1.90
   2  -5  -6   10.04    1.39
  -2   5   5    8.13    2.37
   2  -5  -5    8.88    1.40
   2  -5  -5    7.87    1.55
  -2   5   5    8.51    1.87
   2  -5  -5    7.03    1.42
   2  -5  -4   65.37    2.57
   2  -5  -4   62.16    2.40
  -2   5   4   58.97    3.25
   2  -5  -4   64.54    2.53
   2  -5  -3  253.01    6.89
  -2   5   3  237.70    7.41
   2  -5  -3  248.98    6.87
   2  -5  -3  260.06    6.56
   2  -5  -3  243.65    6.72
  -2   5   2  439.37   12.24
   2  -5  -2  457.47   11.83
   2  -5  -2  486.91   11.91
   2  -5  -2  455.84   11.59
   2  -5  -2  453.97   11.69
   2  -5  -1 1224.54   29.68
   2  -5  -1 1197.47   29.44
   2  -5  -1 1193.45   29.46
   2  -5   0   65.69    2.48
   2  -5   0   62.86    2.65
  -2   5  -1   10.16    0.57
   2  -5   2  423.75   10.65
   2  -5   2  401.43   10.58
   2  -5   2  394.24   10.45
   2  -5   3   75.54    2.90
   2  -5   3   82.04    2.90
   2  -5   3   78.89    2.88
   2  -5   3   71.83    2.70
   2  -5   4  491.66   12.08
  -2   5  -4  475.65   12.23
   2  -5   4  451.60   12.02
   2  -5   4  449.66   11.90
   2  -5   4  475.65   12.16
   2  -5   5  686.38   17.34
   2  -5   5  697.80   17.00
   2  -5   5  679.86   17.65
   2  -5   5  712.71   17.46
  -2   5  -5  700.44   17.65
   2  -5   5  686.91   17.46
   2  -5   5  699.66   17.59
   2  -5   6  338.91    9.27
   2  -5   6  330.92    8.92
   2  -5   6  336.65    9.10
   2  -5   6  340.02    8.68
   2  -5   6  336.05    8.87
  -2   5  -6  350.26    9.19
   2  -5   6  346.75    9.01
   2  -5   7  160.22    4.65
   2  -5   7  155.07    4.62
   2  -5   7  161.53    4.78
   2  -5   7  159.41    4.92
   2  -5   7  154.88    4.67
   2  -5   7  162.12    5.17
   2  -5   8    0.25    2.09
   2  -5   8    4.15    1.39
  -2   5  -8    7.62    1.71
   2  -5   8    1.74    1.46
   2  -5   8    3.11    1.47
   2  -5   8    2.31    1.54
   2  -5   8    0.71    1.38
   2  -5   9   24.06    1.67
   2  -5   9   24.49    1.75
   2  -5   9   19.98    1.64
   2  -5   9   29.36    1.94
   2  -5   9   26.53    2.15
   2  -5   9   24.08    1.83
   2  -5   9   29.87    2.60
   2  -5  10   80.42    2.67
   2  -5  10   81.02    2.77
   2  -5  10   85.61    3.63
   2  -5  10   88.67    3.94
   2  -5  10   82.33    3.43
   2  -5  11   63.89    3.85
   2  -5  11   60.25    2.70
   2  -5  11   54.63    2.35
   2  -5  11   60.48    2.42
   2  -5  11   62.41    3.42
   2  -5  11   66.38    3.42
   2  -5  12  133.78    5.17
   2  -5  12  124.35    5.43
   2  -5  12  125.91    3.98
   2  -5  12  137.75    4.82
   2  -5  13   33.02    3.74
   2  -5  13   27.62    3.40
   2  -5  13   35.44    3.03
   2  -5  14   46.63    4.06
   2  -5  14   47.21    4.35
   2  -5  15    2.78    3.65
   2  -5  15   -2.24    3.84
   2  -5  16   -0.52    3.95
   2  -5  16   -0.32    4.16
   2  -5  17    0.34    4.36
   2  -4 -15   28.41    4.90
   2  -4 -14   64.07    5.18
   2  -4 -13    9.94    3.84
  -2   4  13    7.91    3.90
  -2   4  12   47.56    4.42
   2  -4 -12   50.04    4.24
  -2   4  11   33.40    4.02
   2  -4 -11   32.08    3.54
  -2   4  11   30.68    4.13
  -2   4  10    2.82    3.25
   2  -4 -10   -0.76    0.59
  -2   4  10    1.48    3.11
   2  -4 -10    0.31    2.75
   2  -4  -9    4.66    1.24
  -2   4   9    2.47    2.71
   2  -4  -9    1.66    1.03
   2  -4  -9    4.37    2.43
   2  -4  -9    1.31    1.05
  -2   4   9    1.68    3.06
   2  -4  -8   97.99    2.93
   2  -4  -8   99.95    2.99
   2  -4  -8  104.00    3.22
  -2   4   8  100.69    4.60
   2  -4  -8   95.17    3.07
  -2   4   8  106.47    4.51
   2  -4  -7  157.33    4.29
   2  -4  -7  154.48    4.43
   2  -4  -7  158.60    4.36
  -2   4   7  146.34    5.57
  -2   4   7  159.76    5.40
  -2   4   6  192.29    6.35
   2  -4  -6  198.65    5.35
  -2   4   6  181.48    5.50
   2  -4  -6  193.01    5.21
   2  -4  -6  200.48    5.31
  -2   4   5  310.76    8.74
   2  -4  -5  333.89    8.59
   2  -4  -5  331.52    8.56
  -2   4   5  337.40    9.40
   2  -4  -5  337.58    8.48
  -2   4   4  261.34    7.80
   2  -4  -4  268.63    6.82
   2  -4  -4  286.88    7.22
   2  -4  -4  266.83    7.06
  -2   4   4  262.96    7.33
   2  -4  -4  271.84    7.16
  -2   4   3    0.82    1.28
   2  -4  -3    2.24    1.17
   2  -4  -3    0.61    0.93
   2  -4  -3    0.45    1.07
   2  -4  -3    3.19    1.04
  -2   4   3    0.16    1.45
   2  -4  -2  499.11   12.54
  -2   4   2  492.98   12.89
   2  -4  -2  489.79   12.42
   2  -4  -2  506.14   12.58
  -2   4   2  489.13   12.65
   2  -4  -2  490.64   12.34
  -2   4   1  103.74    3.40
   2  -4   0  995.59   23.91
  -2   4   0  957.17   23.35
   2  -4   1  868.59   21.51
   2  -4   2  227.45    6.15
   2  -4   2  229.35    6.22
   2  -4   2  219.05    6.03
   2  -4   3   67.92    2.42
   2  -4   3   68.28    2.52
   2  -4   3   66.32    2.37
  -2   4  -4   75.42    2.66
   2  -4   4   71.03    2.03
   2  -4   4   67.30    2.43
   2  -4   4   67.69    2.44
   2  -4   4   67.63    2.56
   2  -4   4   70.99    2.54
   2  -4   5  170.05    4.92
  -2   4  -5  175.67    4.97
   2  -4   5  164.65    4.73
   2  -4   5  163.08    4.71
   2  -4   5  174.84    4.56
   2  -4   5  170.25    4.84
   2  -4   6  253.38    6.73
  -2   4  -6  256.84    6.76
   2  -4   6  245.05    6.53
   2  -4   6  245.91    6.62
   2  -4   6  244.01    6.54
   2  -4   6  237.90    6.46
   2  -4   7  502.10   12.57
   2  -4   7  527.43   12.78
   2  -4   7  515.38   12.66
  -2   4  -7  526.95   12.81
   2  -4   7  496.88   12.80
   2  -4   7  507.94   13.03
   2  -4   8  465.25   11.53
   2  -4   8  444.45   11.02
   2  -4   8  450.88   11.02
   2  -4   8  454.47   10.95
   2  -4   8  480.47   11.19
   2  -4   8  454.35   11.42
   2  -4   9   79.93    3.33
   2  -4   9   72.76    2.47
   2  -4   9   72.13    2.55
   2  -4   9   72.54    3.19
   2  -4   9   77.14    3.54
   2  -4   9   76.96    2.67
   2  -4   9   75.44    2.68
   2  -4  10   77.83    3.59
   2  -4  10   86.40    3.50
   2  -4  10   74.60    2.55
   2  -4  10   77.97    2.66
   2  -4  10   83.12    3.88
   2  -4  10   80.93    2.80
   2  -4  10   80.28    2.85
   2  -4  11    4.63    1.24
   2  -4  11    6.16    2.49
   2  -4  11    8.88    2.34
   2  -4  11    9.24    1.73
   2  -4  11    3.20    1.09
   2  -4  11    3.04    2.60
   2  -4  12   10.47    2.40
   2  -4  12    9.70    3.00
   2  -4  12    8.73    2.88
   2  -4  12   10.64    1.85
   2  -4  13   45.29    2.90
   2  -4  13   39.14    3.78
   2  -4  13   40.75    3.87
   2  -4  14   81.13    4.91
   2  -4  14   81.28    4.90
   2  -4  15   64.46    4.88
   2  -4  15   62.80    4.86
   2  -4  16   38.22    4.80
   2  -4  17    0.93    4.46
   2  -3 -16    9.81    4.76
  -2   3  16    4.72    5.31
   2  -3 -15   -3.36    4.31
  -2   3  15    4.59    4.93
   2  -3 -14    7.36    3.92
  -2   3  13    3.50    3.64
  -2   3  12   45.57    4.10
  -2   3  11   43.88    3.93
  -2   3  10  132.93    5.48
   2  -3  -9   14.42    0.95
   2  -3  -9   15.01    0.94
   2  -3  -9   14.91    1.01
   2  -3  -8   21.35    1.22
   2  -3  -8   23.50    1.35
   2  -3  -8   23.90    1.17
   2  -3  -8   22.11    1.21
  -2   3   8   19.98    2.66
   2  -3  -7    3.91    1.03
   2  -3  -7    5.30    0.98
   2  -3  -7    3.66    0.97
  -2   3   7    3.50    2.12
   2  -3  -7    3.35    1.11
  -2   3   6   64.83    2.98
   2  -3  -6   70.52    2.33
   2  -3  -6   73.67    2.28
  -2   3   6   67.20    3.20
   2  -3  -6   73.34    2.33
   2  -3  -5  172.88    4.65
   2  -3  -5  166.24    4.75
  -2   3   5  159.34    4.75
   2  -3  -5  176.38    4.59
   2  -3  -5  175.47    4.67
  -2   3   5  168.09    5.32
  -2   3   5  164.88    5.10
  -2   3   4  138.75    4.19
   2  -3  -4  140.99    4.01
  -2   3   4  145.52    4.58
   2  -3  -4  153.54    4.10
   2  -3  -4  146.95    3.80
  -2   3   3  171.58    4.97
   2  -3  -3  179.59    4.84
  -2   3   3  176.28    5.00
   2  -3  -3  192.23    4.93
  -2   3   3  177.01    5.28
   2  -3  -2   98.84    2.97
   2  -3  -2  105.27    3.03
  -2   3   2  101.81    3.13
  -2   3   1  239.25    6.07
  -2   3   1  242.53    6.43
  -2   3   0   87.68    2.28
   2  -3   1   93.67    2.86
   2  -3   1   91.67    2.80
   2  -3   1   89.45    2.79
  -2   3  -1   92.97    2.90
   2  -3   2  574.67   14.53
   2  -3   2  605.17   14.67
  -2   3  -2  588.32   14.51
   2  -3   2  583.28   14.57
   2  -3   3 1552.88   36.89
   2  -3   3 1479.00   36.67
  -2   3  -3 1551.42   36.89
   2  -3   3 1500.71   36.76
   2  -3   4  368.12    9.39
   2  -3   4  368.32    9.28
   2  -3   4  352.37    9.14
  -2   3  -4  381.57    9.43
  -2   3  -5   21.05    1.41
   2  -3   5   17.70    1.04
   2  -3   5   20.20    1.24
   2  -3   5   19.51    1.29
   2  -3   6  158.52    4.23
   2  -3   6  155.70    4.16
   2  -3   6  155.38    4.09
   2  -3   7    8.30    1.09
   2  -3   7    9.47    1.14
   2  -3   7    8.91    1.14
   2  -3   7   10.21    1.26
   2  -3   8   40.11    1.98
   2  -3   8   45.89    2.39
   2  -3   8   43.93    1.74
   2  -3   8   38.82    2.33
   2  -3   8   40.83    2.53
   2  -3   8   44.63    1.76
   2  -3   8   42.50    1.89
   2  -3   8   43.45    1.66
   2  -3   9  343.56    9.57
   2  -3   9  368.70    9.19
   2  -3   9  328.08    8.45
   2  -3   9  348.18    9.45
   2  -3   9  344.56    8.55
   2  -3   9  332.87    8.58
   2  -3   9  342.90    8.84
   2  -3   9  335.26    8.43
   2  -3  10  160.88    4.55
   2  -3  10  169.67    4.53
   2  -3  10  248.69    6.37
   2  -3  10  189.81    4.62
   2  -3  10  238.72    5.43
   2  -3  10  254.93    5.71
   2  -3  10  232.46    6.37
   2  -3  11  114.86    4.72
   2  -3  11  104.69    4.63
   2  -3  11  109.98    3.79
   2  -3  11  117.31    3.96
   2  -3  12   44.45    2.62
   2  -3  12   47.69    3.72
   2  -3  12   45.59    2.62
   2  -3  12   38.59    3.51
   2  -3  13   69.19    4.42
   2  -3  13   64.00    4.17
   2  -3  14    3.03    3.72
   2  -3  14    1.76    3.50
   2  -3  15   19.10    4.28
   2  -3  16   27.99    4.82
   2  -3  17   18.62    4.94
  -2   2  16   13.85    5.02
  -2   2  15   50.65    5.46
  -2   2  14   41.64    4.91
  -2   2  13   64.77    4.37
  -2   2  13   64.89    4.96
  -2   2  12   19.30    3.41
  -2   2  12   22.15    3.74
  -2   2  11    0.73    3.05
  -2   2  11    9.38    3.03
  -2   2  10   87.17    4.14
  -2   2  10   77.40    4.20
  -2   2   9   10.03    2.41
   2  -2  -8  126.21    3.42
   2  -2  -8  130.23    3.39
   2  -2  -8  129.46    3.36
  -2   2   8  127.38    4.63
   2  -2  -8  132.60    3.44
   2  -2  -7  190.68    4.93
   2  -2  -7  175.15    5.16
   2  -2  -7  187.67    4.90
  -2   2   7  188.10    5.85
   2  -2  -7  192.89    4.97
   2  -2  -7  195.67    4.87
   2  -2  -6   55.48    1.80
   2  -2  -6   53.72    1.86
   2  -2  -6   54.17    1.78
   2  -2  -6   52.12    1.99
   2  -2  -5  223.59    6.07
   2  -2  -5  226.01    5.66
   2  -2  -5  244.25    5.96
   2  -2  -5  242.16    5.99
   2  -2  -4   45.35    1.59
   2  -2  -4   43.90    1.60
  -2   2   4   43.04    1.70
   2  -2  -3   73.70    2.20
  -2   2   3   72.35    2.27
   2  -2  -3   73.84    2.21
  -2   2   2  212.06    5.36
  -2   2   2  198.19    5.23
  -2   2   2  195.33    5.32
  -2   2   1  769.23   18.02
  -2   2   1  729.28   17.78
   2  -2  -1  723.68   17.75
  -2   2   1  720.33   18.00
   2  -2   0 1304.85   31.34
  -2   2  -1  125.75    3.38
   2  -2   1  123.22    3.46
   2  -2   1  124.80    3.48
  -2   2  -2  429.25   10.45
   2  -2   2  419.36   10.60
   2  -2   2  424.40   10.65
   2  -2   3   56.90    1.92
  -2   2  -3   58.20    2.02
  -2   2  -3   60.98    1.96
   2  -2   3   59.99    1.98
   2  -2   4   79.76    2.41
   2  -2   4   79.59    2.45
   2  -2   5  168.03    4.51
   2  -2   5  169.47    4.47
   2  -2   5  164.33    4.55
   2  -2   6  622.52   15.41
   2  -2   6  632.16   15.46
   2  -2   6  614.92   15.55
   2  -2   6  635.21   15.34
  -2   2  -6  610.11   16.14
   2  -2   6  630.39   15.84
   2  -2   7  216.49    5.46
   2  -2   7  208.82    5.49
   2  -2   7  215.81    5.44
   2  -2   7  214.71    5.80
   2  -2   7  215.87    5.55
   2  -2   7  206.21    6.13
  -2   2  -7  196.44    6.45
   2  -2   8  177.31    5.10
   2  -2   8  180.44    5.58
   2  -2   8  184.57    4.57
   2  -2   8  182.69    4.57
   2  -2   8  172.78    4.62
  -2   2  -8  171.46    5.94
   2  -2   9    3.35    2.01
   2  -2   9    1.20    1.57
  -2   2  -9    1.45    2.22
   2  -2   9    4.73    1.75
   2  -2  10   30.59    2.85
   2  -2  10   24.58    2.64
   2  -2  10   29.12    2.20
   2  -2  10   30.00    2.10
  -2   2 -10   28.67    3.25
   2  -2  11   77.23    2.88
   2  -2  11   68.05    3.85
   2  -2  11   63.67    3.11
   2  -2  11   70.60    4.01
  -2   2 -11   66.87    4.30
  -2   2 -12   83.49    4.98
   2  -2  12   81.30    4.58
   2  -2  12   76.26    3.48
   2  -2  12   78.60    4.29
   2  -2  13  124.20    5.71
   2  -2  13  107.10    4.33
  -2   2 -13  122.64    5.99
  -2   2 -14   50.37    5.06
   2  -2  14   62.89    4.85
   2  -2  15   18.98    4.41
   2  -2  16   -4.23    4.64
  -2   1  17   27.17    5.67
  -2   1  16    2.86    4.80
   2  -1 -15    2.12    3.88
  -2   1  15    2.79    4.47
   2  -1 -14   24.92    4.04
  -2   1  14   22.16    3.57
  -2   1  14   25.27    4.43
   2  -1 -13   64.13    4.41
  -2   1  13   73.47    4.24
  -2   1  12  229.68    7.96
  -2   1  12  226.90    7.31
   2  -1 -12  213.46    7.39
  -2   1  11   70.49    4.16
  -2   1  11   73.14    3.74
  -2   1  10  149.94    5.69
  -2   1  10  154.52    5.31
  -2   1   9   78.85    3.70
   2  -1  -8   17.11    0.78
   2  -1  -8   19.67    1.34
   2  -1  -8   19.03    0.81
   2  -1  -8   19.71    0.79
   2  -1  -8   19.94    0.81
  -2   1   7   99.04    3.58
   2  -1  -7   94.18    2.87
   2  -1  -7   97.85    2.60
   2  -1  -7   92.45    2.58
   2  -1  -6   18.47    0.96
   2  -1  -6   18.99    0.88
   2  -1  -6   16.07    1.09
   2  -1  -6   16.96    0.94
   2  -1  -5  981.10   24.20
   2  -1  -5  978.61   24.29
  -2   1   5 1034.08   24.29
   2  -1  -5 1008.22   24.22
   2  -1  -5  998.39   24.25
   2  -1  -4  881.25   21.64
  -2   1   4  922.78   21.71
   2  -1  -4  880.21   21.63
   2  -1  -4  885.10   21.66
   2  -1  -3    7.12    0.68
   2  -1  -3    6.11    0.68
   2  -1  -3    7.11    0.63
  -2   1   3    5.98    0.66
   2  -1  -3    5.82    0.67
   2  -1  -2  284.46    7.23
  -2   1   2  293.99    7.31
   2  -1  -1    5.28    0.45
   2  -1   0   48.29    1.58
   2  -1   0   49.93    1.59
   2  -1   0   48.43    1.54
   2  -1   1  727.92   17.75
   2  -1   1  730.67   17.77
   2  -1   1  721.71   17.74
   2  -1   2  512.83   12.53
   2  -1   2  499.10   12.51
   2  -1   2  503.49   12.55
  -2   1  -2  519.15   12.54
   2  -1   3  278.80    6.95
  -2   1  -3  268.95    7.20
   2  -1   3  272.56    6.94
  -2   1  -3  280.08    6.96
   2  -1   3  270.60    6.97
   2  -1   4  148.18    4.17
   2  -1   4  156.65    4.02
   2  -1   4  155.14    4.03
   2  -1   4  149.39    4.04
  -2   1  -4  149.60    4.02
  -2   1  -4  150.46    4.46
   2  -1   4  152.30    4.19
   2  -1   5   13.78    1.21
  -2   1  -5   14.12    1.50
   2  -1   5   12.36    1.14
   2  -1   5   12.59    0.91
   2  -1   5   14.76    0.83
   2  -1   5   13.26    0.90
   2  -1   5   14.04    1.25
   2  -1   6   38.12    1.34
   2  -1   6   39.86    1.95
  -2   1  -6   37.71    2.28
   2  -1   6   39.26    1.37
  -2   1  -7  155.75    5.13
   2  -1   7  161.02    3.78
   2  -1   7  136.07    3.75
   2  -1   7  161.25    3.78
   2  -1   7  140.10    3.75
   2  -1   7  154.33    4.67
   2  -1   8  135.88    4.20
   2  -1   8  130.47    4.49
  -2   1  -8  131.54    4.91
   2  -1   9  171.20    5.88
  -2   1  -9  178.55    6.37
   2  -1   9  184.65    5.54
  -2   1 -10  210.68    7.32
   2  -1  10  203.20    6.38
   2  -1  10  196.03    6.81
   2  -1  11  111.44    3.35
  -2   1 -11  101.19    5.17
   2  -1  11  101.00    4.11
   2  -1  11  112.80    4.96
  -2   1 -12   -2.32    3.37
   2  -1  12    1.89    2.44
   2  -1  12   -0.99    3.34
  -2   1 -13   20.25    4.02
   2  -1  13   30.08    4.14
  -2   1 -14   13.40    4.29
   2  -1  14   12.84    4.20
  -2   1 -15    5.40    4.50
   2  -1  15   16.24    4.68
   2  -1  16   13.53    4.97
  -2   0  17   23.53    5.27
  -2   0  16   54.17    5.57
  -2   0  15   47.37    5.02
  -2   0  14    2.59    3.01
  -2   0  14    5.98    3.90
  -2   0  13    5.04    3.48
  -2   0  13   10.55    2.85
  -2   0  12    3.82    2.94
  -2   0  12    6.19    2.58
  -2   0  11  145.66    5.67
   2   0 -10  148.36    4.28
  -2   0  10  161.24    5.58
  -2   0   9   81.86    3.57
   2   0  -9   73.10    2.44
  -2   0   8  194.04    5.79
   2   0  -8  178.59    4.35
  -2   0   8  189.81    5.65
   2   0  -8  185.74    4.70
  -2   0   7  414.29   10.92
   2   0  -7  416.98    9.88
   2   0  -7  373.05    9.90
   2   0  -7  409.07   10.07
  -2   0   7  411.02    9.98
   2   0  -7  412.20    9.89
  -2   0   6  102.92    2.80
  -2   0   6  102.08    3.50
   2   0  -6   98.54    2.63
   2   0  -6  100.40    2.82
   2   0  -6  106.44    2.73
   2   0  -6  100.95    2.71
  -2   0   5  281.26    7.20
  -2   0   5  288.69    7.21
   2   0  -5  290.54    7.16
  -2   0   4   45.25    1.48
   2   0  -4   45.89    1.45
  -2   0   4   43.98    1.47
   2   0  -4   46.58    1.42
  -2   0   3  630.06   15.34
   2   0  -3  635.89   15.42
  -2   0   3  626.56   15.52
   2   0  -3  634.27   15.45
  -2   0   3  607.60   15.48
  -2   0   3  629.65   15.35
  -2   0   2   30.18    1.08
  -2   0   2   30.22    1.10
   2   0  -2   30.37    1.11
  -2   0   2   30.96    1.16
   2   0  -2   28.54    1.07
   2   0  -1   51.31    1.44
   2   0   0   51.05    1.58
   2   0   0   53.44    1.61
   2   0   1  620.12   15.42
   2   0   1  618.58   15.43
  -2   0  -1  658.84   15.45
  -2   0  -2    2.21    0.53
   2   0   2    2.02    0.59
   2   0   2    3.06    0.44
   2   0   2    2.94    0.50
  -2   0  -2    1.43    0.67
   2   0   2    2.34    0.55
  -2   0  -2    2.49    0.55
  -2   0  -3   72.00    2.07
   2   0   3   67.09    2.22
   2   0   3   71.88    2.05
   2   0   3   74.10    2.28
   2   0   3   69.29    2.09
  -2   0  -3   69.83    2.05
  -2   0  -3   70.51    2.38
  -2   0  -4   79.33    2.76
   2   0   4   78.03    2.19
   2   0   4   74.68    2.17
  -2   0  -4   78.74    2.22
   2   0   4   79.71    2.56
   2   0   4   77.17    2.51
   2   0   4   77.12    2.42
   2   0   5  372.57    9.47
   2   0   5  382.17    9.07
  -2   0  -5  362.98    9.05
   2   0   5  361.74    9.01
   2   0   5  355.29    9.00
  -2   0  -5  383.22    9.83
   2   0   5  373.02    9.53
   2   0   6  644.31   15.48
   2   0   6  639.99   15.53
  -2   0  -6  643.33   16.52
   2   0   6  621.24   16.15
  -2   0  -7   24.92    2.37
   2   0   7   26.38    1.93
   2   0   8   10.39    1.86
  -2   0  -8    6.81    2.24
   2   0   9    6.21    2.06
   2   0   9    5.74    1.35
  -2   0  -9    5.25    2.58
  -2   0 -10   83.51    4.46
   2   0  10   89.81    2.65
   2   0  11   26.45    2.86
  -2   0 -11   30.84    3.71
  -2   0 -12   49.03    4.37
   2   0  12   47.35    4.26
  -2   0 -13   62.97    4.92
   2   0  13   63.41    4.97
  -2   0 -14   19.00    4.46
   2   0  14   19.22    4.58
  -2   0 -15    2.84    4.55
   2   0  15    8.59    4.87
   2   0  16   -4.88    5.19
  -2  -1  18   10.51    5.31
  -2  -1  17    4.15    4.86
  -2  -1  16   18.32    4.67
  -2  -1  15   14.80    4.22
  -2  -1  14   59.72    4.65
  -2  -1  14   48.27    3.51
  -2  -1  13   98.50    5.15
  -2  -1  12   81.10    4.40
  -2  -1  12   75.05    4.49
  -2  -1  11   65.05    3.71
  -2  -1  11   64.05    3.74
   2   1 -11   56.82    2.21
  -2  -1  10  128.13    4.85
  -2  -1  10  126.81    4.75
   2   1 -10  116.50    3.45
  -2  -1   9   19.63    2.19
  -2  -1   9   14.18    0.74
   2   1  -9   18.98    1.14
   2   1  -9   13.27    0.61
   2   1  -9   14.55    0.63
  -2  -1   9   15.44    2.17
  -2  -1   8  170.27    5.17
  -2  -1   8  160.54    4.16
   2   1  -8  157.16    4.06
  -2  -1   8  161.02    4.18
   2   1  -8  160.56    4.05
  -2  -1   8  168.86    5.28
   2   1  -8  158.43    4.20
   2   1  -7  236.09    5.92
   2   1  -7  228.09    5.88
  -2  -1   7  236.67    5.97
  -2  -1   7  240.72    5.96
   2   1  -7  232.67    5.85
  -2  -1   7  227.07    6.74
   2   1  -6 1016.90   25.00
  -2  -1   6 1109.04   25.17
   2   1  -6 1021.46   25.04
   2   1  -6 1018.18   25.05
   2   1  -6 1044.11   25.06
  -2  -1   6 1039.47   25.13
  -2  -1   6 1032.60   25.73
   2   1  -5  355.37    8.90
  -2  -1   5  360.52    9.37
  -2  -1   5  358.68    8.98
   2   1  -5  369.75    8.93
  -2  -1   5  358.74    9.01
  -2  -1   4  357.72    8.88
   2   1  -4  363.61    8.84
   2   1  -4  347.34    8.81
   2   1  -4  359.31    9.01
  -2  -1   3    0.82    0.54
  -2  -1   2 1878.81   45.48
  -2  -1   2 1895.85   45.51
   2   1  -2 1847.84   45.45
   2   1  -2 1935.14   45.47
   2   1   0   53.42    1.68
  -2  -1   0   56.04    1.53
   2   1   0   56.80    1.68
   2   1   1  470.72   11.89
  -2  -1  -1  475.96   11.74
   2   1   1  492.61   11.91
  -2  -1  -1  493.59   11.93
  -2  -1  -1  502.69   11.93
  -2  -1  -2  680.76   16.65
  -2  -1  -2  685.42   16.87
   2   1   2  640.66   16.68
  -2  -1  -2  688.94   16.72
  -2  -1  -2  688.15   16.77
  -2  -1  -2  701.46   16.69
   2   1   2  694.14   16.70
   2   1   2  725.30   16.93
   2   1   3 1171.21   28.00
  -2  -1  -3 1143.40   27.72
  -2  -1  -3 1139.43   27.75
  -2  -1  -3 1189.17   27.72
   2   1   3 1109.83   27.68
  -2  -1  -3 1150.97   27.78
   2   1   3 1138.14   27.69
  -2  -1  -3 1134.94   28.02
  -2  -1  -4  139.39    3.88
   2   1   4  141.19    3.65
  -2  -1  -4  136.79    3.67
  -2  -1  -4  134.53    3.68
   2   1   4  140.57    3.63
  -2  -1  -4  140.03    4.17
  -2  -1  -5   52.70    1.70
   2   1   5   58.47    1.68
  -2  -1  -5   50.67    1.70
   2   1   5   58.97    2.35
  -2  -1  -5   58.70    2.47
  -2  -1  -5   60.24    2.16
  -2  -1  -6  294.35    7.58
   2   1   6  266.66    6.39
   2   1   6  287.30    7.25
   2   1   6  266.95    6.38
  -2  -1  -7   29.92    2.45
   2   1   7   31.41    2.24
   2   1   8   40.68    2.67
  -2  -1  -8   39.72    2.89
   2   1   9  141.98    3.72
   2   1   9  131.53    4.89
  -2  -1  -9  140.30    5.39
   2   1  10   76.38    3.83
  -2  -1 -10   84.45    4.45
  -2  -1 -11   16.96    3.48
   2   1  11   20.26    3.04
  -2  -1 -12   -1.52    3.58
   2   1  12    1.52    3.68
  -2  -1 -13   26.75    4.40
   2   1  13   22.58    4.38
  -2  -1 -14   31.40    4.74
   2   1  14   33.52    5.10
   2   1  15   60.34    5.89
  -2  -1 -15   51.88    5.46
   2   2 -18   19.31    4.91
  -2  -2  18   28.38    5.53
   2   2 -17   31.13    4.81
  -2  -2  17   36.41    5.31
  -2  -2  16   23.05    4.74
   2   2 -16   23.25    4.25
  -2  -2  15   35.17    4.45
   2   2 -15   38.02    4.21
  -2  -2  14   15.73    3.71
  -2  -2  14   14.71    3.74
  -2  -2  13   28.47    3.53
  -2  -2  13   26.66    3.64
  -2  -2  12  121.14    5.29
  -2  -2  12  127.22    5.30
  -2  -2  11  473.34   13.16
  -2  -2  11  461.53   13.06
   2   2 -10  408.44   10.31
  -2  -2  10  404.42   10.65
  -2  -2  10  372.36    9.05
   2   2 -10  348.05    8.96
  -2  -2  10  404.90   10.56
  -2  -2  10  366.55    9.06
  -2  -2   9  272.85    6.69
   2   2  -9  269.27    7.56
  -2  -2   9  274.66    7.89
   2   2  -9  254.75    6.58
  -2  -2   9  269.81    6.72
  -2  -2   9  275.90    7.78
   2   2  -9  253.66    6.56
   2   2  -8   27.68    1.12
   2   2  -8   23.67    0.99
   2   2  -8   27.18    1.18
  -2  -2   8   26.54    1.25
   2   2  -8   25.99    1.34
  -2  -2   8   26.53    1.99
   2   2  -8   25.67    1.88
  -2  -2   8   28.04    2.09
   2   2  -7   61.13    1.85
   2   2  -7   63.02    2.23
   2   2  -7   60.28    1.90
   2   2  -7   61.83    1.98
   2   2  -7   55.39    1.62
   2   2  -7   59.95    2.37
  -2  -2   7   63.04    1.97
  -2  -2   7   60.58    2.62
   2   2  -6   57.06    1.79
   2   2  -6   54.87    2.02
  -2  -2   6   55.54    1.97
  -2  -2   6   60.54    2.27
  -2  -2   6   57.87    1.86
  -2  -2   6   56.19    1.81
   2   2  -6   55.91    1.72
   2   2  -5   68.25    2.22
  -2  -2   5   70.66    2.20
  -2  -2   5   72.93    2.47
  -2  -2   5   68.17    2.13
   2   2  -5   72.53    2.13
  -2  -2   5   68.44    2.17
   2   2  -5   68.91    2.09
  -2  -2   4   50.32    1.65
   2   2  -4   56.33    1.72
  -2  -2   4   56.72    1.83
   2   2  -4   57.19    1.76
  -2  -2   4   54.73    1.98
  -2  -2   4   52.86    1.76
  -2  -2   3 2648.91   64.94
  -2  -2   3 2672.19   65.11
  -2  -2   3 2810.89   65.17
   2   2  -3 2730.74   64.90
   2   2  -1  128.35    3.48
   2   2  -1  126.78    3.49
  -2  -2   0    0.21    0.68
   2   2   0    0.67    0.64
   2   2   0    0.19    0.68
   2   2   0    0.71    0.65
  -2  -2  -1  200.56    5.28
  -2  -2  -1  205.42    5.35
   2   2   1  210.05    5.32
   2   2   1  200.37    5.28
  -2  -2  -2  631.38   15.48
  -2  -2  -2  610.69   15.53
  -2  -2  -2  640.54   15.46
  -2  -2  -2  619.30   15.40
   2   2   2  634.75   15.39
  -2  -2  -3  474.48   11.50
   2   2   3  453.21   11.32
  -2  -2  -3  462.77   11.65
  -2  -2  -3  458.24   11.35
  -2  -2  -3  452.87   11.39
  -2  -2  -3  451.72   11.43
   2   2   4  102.00    2.78
   2   2   4   98.76    2.82
  -2  -2  -4  100.31    2.81
  -2  -2  -4   98.38    3.01
   2   2   4   96.51    3.34
  -2  -2  -4   93.90    3.27
  -2  -2  -4   95.40    3.21
  -2  -2  -4   96.05    2.99
   2   2   5  243.21    6.64
   2   2   5  226.85    5.93
  -2  -2  -5  229.33    5.97
   2   2   5  231.12    5.91
  -2  -2  -5  229.89    5.93
  -2  -2  -5  246.61    6.32
  -2  -2  -5  235.86    6.63
   2   2   6    2.31    1.82
  -2  -2  -6    3.79    1.70
  -2  -2  -6   -0.40    0.88
  -2  -2  -6    3.26    0.79
   2   2   6    3.16    0.82
  -2  -2  -6    3.57    0.78
   2   2   6    3.02    0.91
  -2  -2  -7  208.24    5.32
   2   2   7  205.39    5.18
   2   2   8   15.28    2.50
  -2  -2  -8   15.83    2.53
  -2  -2  -9   16.31    2.89
   2   2   9   17.79    2.78
   2   2  10  116.02    5.06
  -2  -2 -10  133.74    5.52
  -2  -2 -11   55.56    4.29
  -2  -2 -12   41.05    4.42
  -2  -2 -13   10.51    4.23
   2   2  13   15.76    4.51
  -2  -2 -14    0.82    4.43
   2   2  14    8.40    4.80
  -2  -3  19    5.02    5.17
   2   3 -18   -1.62    4.49
  -2  -3  18    1.27    4.81
   2   3 -17   14.76    4.48
  -2  -3  17   20.01    4.85
   2   3 -16   19.91    4.16
  -2  -3  16   23.08    4.54
  -2  -3  16   25.03    4.55
   2   3 -15   70.90    4.83
  -2  -3  15   84.36    5.28
  -2  -3  15   72.33    5.25
  -2  -3  14   94.91    5.19
   2   3 -14   82.60    4.78
  -2  -3  14   93.51    5.15
   2   3 -13  134.62    5.59
  -2  -3  13  139.74    5.87
  -2  -3  13  128.77    5.76
  -2  -3  12   17.09    2.95
   2   3 -12   19.55    2.87
  -2  -3  12   26.66    3.00
  -2  -3  12    7.87    0.69
  -2  -3  12   11.73    0.76
  -2  -3  12   13.15    0.82
  -2  -3  11   86.58    2.66
   2   3 -11   91.24    3.99
  -2  -3  11  101.95    4.23
  -2  -3  11   95.08    2.67
  -2  -3  11   99.85    4.33
   2   3 -10   30.67    1.40
   2   3 -10   33.68    2.50
  -2  -3  10   34.30    2.73
   2   3 -10   32.33    1.49
  -2  -3  10   34.66    2.68
  -2  -3  10   33.66    1.55
  -2  -3   9   34.54    1.55
   2   3  -9   34.60    1.53
  -2  -3   9   34.95    2.40
   2   3  -9   32.43    1.45
  -2  -3   9   35.04    2.51
   2   3  -9   36.85    2.33
  -2  -3   9   34.65    1.64
   2   3  -8  342.18    9.26
   2   3  -8  355.77    8.83
  -2  -3   8  357.48    9.08
  -2  -3   8  345.13    8.82
  -2  -3   8  349.85    9.47
   2   3  -8  348.47    8.72
  -2  -3   8  334.40    8.74
   2   3  -8  341.19    8.99
   2   3  -8  336.41    8.66
  -2  -3   8  343.28    9.59
   2   3  -7  411.61   10.27
   2   3  -7  407.48   10.32
  -2  -3   7  410.35   10.35
   2   3  -7  422.26   10.37
  -2  -3   7  413.49   10.41
   2   3  -7  389.82   10.65
   2   3  -7  420.75   10.55
   2   3  -6  191.12    5.02
  -2  -3   6  185.00    5.07
   2   3  -6  184.03    5.19
   2   3  -6  189.23    5.15
  -2  -3   6  194.84    5.14
  -2  -3   6  189.14    5.42
   2   3  -6  191.64    4.99
  -2  -3   6  181.71    5.02
   2   3  -6  187.44    5.03
  -2  -3   5   30.21    1.30
   2   3  -5   27.64    1.33
  -2  -3   5   30.35    1.59
  -2  -3   5   29.51    1.37
  -2  -3   5   31.90    1.44
   2   3  -5   27.96    1.37
   2   3  -5   30.96    1.47
   2   3  -5   29.57    1.32
  -2  -3   4  162.60    4.48
  -2  -3   4  161.02    4.24
   2   3  -4  163.27    4.47
   2   3  -4  162.21    4.05
  -2  -3   4  155.94    4.38
  -2  -3   3  173.81    4.63
  -2  -3   3  161.00    4.50
  -2  -3   3  164.76    4.28
   2   3  -3  169.19    4.29
   2   3  -2  808.52   19.75
  -2  -3   2  812.82   19.75
   2   3  -1  157.44    4.29
  -2  -3   1  158.97    4.26
   2   3   0  936.64   23.23
  -2  -3   0  983.06   23.29
  -2  -3   0  939.45   23.24
   2   3   1  154.35    4.10
   2   3   1  148.84    4.17
  -2  -3  -1  155.65    4.28
  -2  -3  -1  151.48    4.19
  -2  -3  -1  138.40    4.06
  -2  -3  -2   91.96    2.82
   2   3   2   85.59    2.78
  -2  -3  -2   89.86    2.70
  -2  -3  -2   90.02    2.92
   2   3   2   92.45    2.72
  -2  -3  -3   24.85    1.57
   2   3   3   24.35    1.80
  -2  -3  -3   24.30    1.39
   2   3   3   26.39    1.44
  -2  -3  -3   23.77    1.28
  -2  -3  -3   25.99    1.62
   2   3   3   25.80    1.32
  -2  -3  -4    3.23    1.10
  -2  -3  -4    2.68    1.12
   2   3   4    3.69    1.01
   2   3   4    2.71    1.14
  -2  -3  -4    2.43    1.37
   2   3   4    2.96    1.62
  -2  -3  -4    2.04    1.25
  -2  -3  -4    3.46    0.95
  -2  -3  -5   60.17    2.06
  -2  -3  -5   62.88    2.80
   2   3   5   59.59    2.17
   2   3   5   63.29    2.94
   2   3   5   60.48    2.08
  -2  -3  -6   34.09    2.00
  -2  -3  -6   30.16    1.45
   2   3   6   32.01    2.58
  -2  -3  -6   31.61    1.43
  -2  -3  -6   35.67    2.40
   2   3   6   29.92    1.55
   2   3   6   30.54    1.49
   2   3   7  326.50    8.03
  -2  -3  -7  242.79    6.45
  -2  -3  -7  329.50    7.92
   2   3   7  244.36    6.51
  -2  -3  -7  254.41    6.44
  -2  -3  -8  179.40    5.93
   2   3   8  160.83    5.97
  -2  -3  -9   28.53    3.19
   2   3   9   18.47    3.09
  -2  -3 -10    3.11    3.23
  -2  -3 -11    4.76    3.53
  -2  -3 -12   13.73    4.03
  -2  -3 -13   28.86    4.73
   2   3  13   39.02    5.08
   2   3  14   28.54    5.43
  -2  -3 -14   18.78    4.73
  -2  -4  19   21.02    5.44
  -2  -4  18   39.35    5.48
  -2  -4  17    6.20    4.54
  -2  -4  17   16.85    4.81
   2   4 -16    6.15    3.95
  -2  -4  16   15.44    4.28
  -2  -4  16   17.06    4.35
   2   4 -15   13.17    3.60
  -2  -4  15   12.63    3.91
  -2  -4  15    9.63    3.87
   2   4 -14   33.92    3.70
  -2  -4  14   36.56    3.98
  -2  -4  14   36.82    4.04
  -2  -4  13   78.95    4.29
   2   4 -13   77.13    4.09
  -2  -4  13   89.53    4.45
  -2  -4  12   16.85    2.97
   2   4 -12   20.16    2.76
  -2  -4  12   19.90    2.89
   2   4 -12   14.85    1.45
   2   4 -11  262.07    8.08
  -2  -4  11  284.24    8.50
  -2  -4  11  273.82    7.13
   2   4 -11  252.95    7.02
  -2  -4  11  277.39    7.08
  -2  -4  11  285.55    8.37
   2   4 -10  258.55    7.70
  -2  -4  10  260.85    6.87
  -2  -4  10  266.16    8.06
   2   4 -10  262.23    6.87
  -2  -4  10  267.34    6.99
  -2  -4  10  267.61    7.89
   2   4 -10  251.96    6.77
  -2  -4   9   27.41    2.25
   2   4  -9   30.41    2.20
  -2  -4   9   29.10    1.77
  -2  -4   9   27.71    1.59
  -2  -4   9   31.94    2.48
   2   4  -9   29.56    1.65
   2   4  -9   27.63    1.51
   2   4  -8    4.52    1.22
   2   4  -8    5.14    1.10
  -2  -4   8    1.72    1.22
   2   4  -8    1.72    1.21
  -2  -4   8    3.20    1.32
  -2  -4   8    1.85    1.14
  -2  -4   8    2.40    1.52
   2   4  -8    2.24    1.14
   2   4  -7   28.90    1.52
  -2  -4   7   26.86    1.61
  -2  -4   7   25.90    1.46
   2   4  -7   24.02    1.43
   2   4  -7   27.76    1.38
  -2  -4   6  482.51   12.33
   2   4  -6  479.82   12.37
   2   4  -6  502.92   12.30
   2   4  -6  483.03   12.35
  -2  -4   6  516.41   12.51
  -2  -4   6  483.41   12.34
  -2  -4   5  572.30   14.90
  -2  -4   5  630.80   15.08
   2   4  -5  594.50   14.96
  -2  -4   5  593.63   14.83
   2   4  -5  610.43   14.89
  -2  -4   4  612.48   15.52
   2   4  -4  619.30   15.22
  -2  -4   4  627.23   15.22
  -2  -4   4  641.10   15.64
  -2  -4   3  612.16   15.01
   2   4  -3  612.36   15.05
   2   4  -2    7.45    0.98
  -2  -4   2    6.96    0.89
  -2  -4   2    8.42    1.17
  -2  -4   1   15.92    1.15
   2   4  -1   13.82    1.25
   2   4  -1   15.75    1.36
  -2  -4   0    4.06    1.10
  -2  -4   0    6.14    1.10
   2   4   0    3.92    1.18
   2   4   0    3.58    1.02
  -2  -4   0    4.97    1.04
   2   4   1   73.10    2.01
  -2  -4  -1   73.41    2.15
  -2  -4  -1   72.23    2.14
  -2  -4  -1   77.92    2.01
   2   4   1   74.48    2.14
   2   4   2  734.70   17.80
  -2  -4  -2  696.49   17.45
  -2  -4  -2  690.19   17.31
   2   4   2  698.68   17.36
  -2  -4  -3  629.10   15.65
  -2  -4  -3  640.82   15.53
   2   4   3  656.07   15.70
   2   4   3  618.40   16.12
   2   4   3  666.58   15.60
   2   4   4  211.07    5.69
  -2  -4  -4  209.20    5.75
   2   4   4  200.46    5.76
  -2  -4  -4  215.21    6.05
   2   4   4  221.89    6.47
  -2  -4  -4  223.68    5.93
  -2  -4  -4  200.72    6.07
  -2  -4  -4  208.70    5.61
   2   4   5  173.53    5.05
  -2  -4  -5  182.94    5.04
   2   4   5  178.59    5.95
  -2  -4  -5  183.21    4.91
  -2  -4  -5  182.58    5.62
   2   4   5  172.43    4.95
  -2  -4  -5  192.29    5.35
   2   4   6    0.49    1.09
   2   4   6    0.69    2.39
   2   4   6    1.02    1.46
  -2  -4  -6    0.31    1.13
  -2  -4  -6    0.85    1.97
  -2  -4  -7   32.18    2.82
  -2  -4  -7   25.49    1.49
   2   4   7   23.58    1.71
  -2  -4  -7   24.95    1.45
   2   4   7   35.58    3.25
  -2  -4  -8   36.72    1.22
  -2  -4  -8   38.41    1.25
  -2  -4  -9   88.46    4.48
  -2  -4 -10   69.52    4.57
  -2  -4 -11   41.32    4.34
  -2  -4 -12    1.77    3.99
  -2  -4 -13    1.55    4.40
   2   4  13    4.61    4.92
  -2  -5  19   -3.97    5.06
  -2  -5  18    3.91    4.74
  -2  -5  18   -0.27    4.79
  -2  -5  17   32.77    4.89
  -2  -5  17   29.38    4.90
  -2  -5  16   61.39    5.14
  -2  -5  16   70.66    5.39
  -2  -5  15   66.04    4.97
  -2  -5  15   56.85    4.65
  -2  -5  14   33.40    3.98
  -2  -5  14   28.82    3.70
   2   5 -13   19.29    1.64
  -2  -5  13   11.29    3.01
  -2  -5  13   10.05    3.28
  -2  -5  12    1.17    2.67
  -2  -5  12    0.79    1.63
  -2  -5  12   -0.16    2.51
   2   5 -11   94.52    3.12
  -2  -5  11  108.95    3.53
  -2  -5  11  107.02    3.33
  -2  -5  11  108.21    4.47
  -2  -5  11  109.98    4.72
   2   5 -11   94.12    3.23
  -2  -5  10  189.91    5.42
   2   5 -10  188.43    5.28
  -2  -5  10  179.62    6.08
   2   5 -10  182.39    5.14
  -2  -5  10  188.28    5.25
  -2  -5  10  180.85    6.36
   2   5  -9  524.22   13.25
  -2  -5   9  523.46   13.36
   2   5  -9  513.66   13.13
  -2  -5   9  536.39   13.90
  -2  -5   9  520.22   13.20
  -2  -5   8  231.19    6.26
  -2  -5   8  221.77    6.70
  -2  -5   8  238.96    6.47
   2   5  -8  226.28    6.26
   2   5  -8  233.04    6.35
   2   5  -8  224.44    6.20
   2   5  -7   46.22    1.96
  -2  -5   7   48.94    2.35
   2   5  -7   45.80    2.02
  -2  -5   7   43.40    2.06
   2   5  -7   49.93    2.21
  -2  -5   6    3.94    1.35
  -2  -5   6    2.58    1.03
   2   5  -6    4.11    1.22
   2   5  -6    3.42    1.35
  -2  -5   6    3.49    0.62
  -2  -5   6    4.00    1.21
   2   5  -6    3.60    1.06
   2   5  -5  103.68    3.28
  -2  -5   5  106.70    2.86
  -2  -5   5  104.51    3.46
   2   5  -5   97.26    3.27
  -2  -5   5   99.64    3.29
  -2  -5   4 1466.46   35.39
  -2  -5   4 1525.89   35.87
  -2  -5   4 1409.69   35.68
   2   5  -3  459.24   11.17
  -2  -5   3  428.49   11.05
   2   5  -2  264.29    6.87
   2   5  -2  258.43    6.76
  -2  -5   2  240.99    6.62
   2   5  -1  158.43    4.64
  -2  -5   1  161.68    4.54
  -2  -5   1  155.31    4.60
   2   5  -1  166.24    4.69
  -2  -5   0  562.60   13.90
  -2  -5   0  529.49   13.57
  -2  -5   0  549.92   13.74
   2   5   0  531.65   13.61
  -2  -5   0  527.40   13.55
  -2  -5  -1   41.31    2.13
   2   5   1   40.37    2.00
  -2  -5  -1   46.57    2.35
  -2  -5  -1   39.53    1.91
  -2  -5  -2   13.25    1.40
   2   5   2   12.57    1.95
  -2  -5  -2   14.79    1.66
   2   5   2   12.27    1.42
   2   5   2   14.18    1.54
   2   5   3   44.19    2.83
   2   5   3   45.34    1.99
   2   5   3   42.86    2.11
  -2  -5  -3   46.69    2.28
  -2  -5  -3   44.30    2.01
   2   5   3   47.89    2.36
   2   5   4  395.64   10.31
   2   5   4  395.37   10.44
   2   5   4  387.63   11.18
  -2  -5  -4  391.22   10.35
  -2  -5  -4  402.26   10.21
   2   5   4  415.13   10.16
   2   5   5  192.09    5.67
  -2  -5  -5  218.23    6.34
  -2  -5  -5  208.86    5.75
  -2  -5  -5  205.54    5.57
   2   5   5  195.39    5.82
   2   5   5  206.28    6.78
   2   5   5  207.78    5.49
  -2  -5  -6  146.32    4.21
  -2  -5  -6  143.89    4.36
   2   5   6  139.32    4.48
  -2  -5  -7   54.59    3.37
   2   5   7   43.45    2.37
  -2  -5  -8    4.59    2.86
  -2  -5  -8    4.14    1.21
  -2  -5  -9    3.40    3.03
  -2  -5 -10    3.41    3.48
  -2  -5 -11   18.13    4.03
   2   5  12   28.04    5.35
  -2  -5 -12   30.34    4.70
  -2  -5 -13   12.47    4.60
  -2  -6  19    9.51    5.03
  -2  -6  19   16.69    5.33
  -2  -6  18    0.79    4.53
  -2  -6  18    8.93    4.91
  -2  -6  17    3.27    4.42
  -2  -6  17    3.97    4.19
  -2  -6  16   -4.21    4.22
  -2  -6  16   -0.23    3.82
  -2  -6  15   38.72    4.50
  -2  -6  15   30.88    4.07
  -2  -6  14   96.17    5.06
  -2  -6  14  105.61    5.50
   2   6 -14   90.73    3.33
   2   6 -13   39.43    2.45
  -2  -6  13   41.26    2.51
  -2  -6  13   37.33    3.94
  -2  -6  13   42.48    3.64
  -2  -6  12  118.52    5.40
  -2  -6  12  118.64    5.06
  -2  -6  12  125.24    4.14
   2   6 -12  115.55    4.05
   2   6 -11   12.88    1.99
  -2  -6  11   10.34    2.49
  -2  -6  11   15.13    2.12
  -2  -6  10    0.21    1.85
   2   6 -10    1.45    1.78
  -2  -6  10    0.53    2.03
  -2  -6   9   55.71    2.75
   2   6  -9   54.29    2.69
   2   6  -8   43.23    2.01
  -2  -6   8   46.04    2.50
   2   6  -8   42.89    2.46
  -2  -6   7  274.26    7.39
   2   6  -7  275.66    7.34
   2   6  -7  274.77    7.04
  -2  -6   7  271.87    7.11
  -2  -6   6  182.26    4.66
  -2  -6   6  180.28    5.43
   2   6  -6  176.95    5.08
   2   6  -6  167.20    5.34
  -2  -6   5   16.91    1.82
   2   6  -5   14.11    1.42
  -2  -6   5   14.89    1.10
   2   6  -4   21.39    1.93
  -2  -6   4   22.56    1.35
  -2  -6   3  126.10    3.71
   2   6  -3  128.22    4.23
  -2  -6   2    4.92    1.22
   2   6  -2    3.80    1.63
   2   6  -1   88.45    3.15
   2   6  -1   89.56    3.44
  -2  -6   1   93.80    3.41
   2   6   0  375.02   10.18
   2   6   0  402.63   10.52
  -2  -6   0  407.74   10.46
   2   6   1  179.24    5.30
  -2  -6  -1  192.29    5.61
   2   6   1  188.76    5.69
  -2  -6  -2  106.85    3.82
   2   6   2  112.64    3.99
   2   6   2  108.16    4.32
   2   6   2  110.75    3.57
  -2  -6  -3   48.61    2.64
   2   6   3   53.20    2.35
   2   6   3   52.68    2.79
   2   6   4    2.80    1.52
   2   6   4    4.02    2.07
  -2  -6  -4    4.30    1.82
   2   6   5    3.18    2.09
  -2  -6  -5    2.14    1.82
  -2  -6  -5    1.86    2.11
   2   6   6    4.61    2.15
  -2  -6  -6    8.74    2.53
  -2  -6  -6    5.74    1.87
  -2  -6  -7   88.32    4.10
   2   6   7   61.80    3.12
  -2  -6  -8   48.40    3.76
  -2  -6  -9   52.15    4.14
  -2  -6 -10   57.98    4.60
  -2  -6 -11    4.32    3.97
  -2  -6 -12    0.32    4.24
  -2  -7  19   12.32    5.39
  -2  -7  19    6.91    4.79
  -2  -7  18    5.47    4.96
  -2  -7  18    8.15    4.56
  -2  -7  17   42.45    5.24
  -2  -7  17   30.41    4.69
  -2  -7  16   45.24    4.63
  -2  -7  16   46.14    5.05
   2   7 -15   21.46    2.35
  -2  -7  15   26.50    3.94
  -2  -7  15   30.65    4.45
  -2  -7  14   11.21    3.30
   2   7 -14    7.43    2.20
  -2  -7  14   11.73    2.36
  -2  -7  14   12.22    3.78
   2   7 -13   17.63    2.46
  -2  -7  13   17.74    2.44
  -2  -7  13   16.74    3.17
  -2  -7  13   20.78    3.71
  -2  -7  12   92.05    3.73
   2   7 -12   80.61    3.61
   2   7 -11  160.93    5.43
  -2  -7  11  182.35    5.61
   2   7 -10  106.39    4.09
  -2  -7  10  112.31    4.21
   2   7  -9   38.95    2.66
  -2  -7   9   39.56    2.71
  -2  -7   8   92.80    3.73
   2   7  -8   88.13    3.67
   2   7  -8   89.49    3.08
   2   7  -7   44.00    2.70
  -2  -7   7   45.85    2.72
   2   7  -7   46.49    2.10
  -2  -7   7   44.92    1.67
   2   7  -6    2.93    1.30
  -2  -7   6    1.56    1.04
  -2  -7   6    0.81    1.94
  -2  -7   5    7.40    1.20
  -2  -7   5   12.15    1.98
   2   7  -4  315.78    8.84
  -2  -7   4  312.65    8.18
   2   7  -3  243.72    7.22
   2   7  -2  156.91    5.22
  -2  -7   1  178.82    5.46
   2   7  -1  161.35    5.50
   2   7   0    0.73    2.11
  -2  -7   0    0.81    1.95
   2   7   1    7.58    2.32
  -2  -7  -1   13.08    2.11
  -2  -7  -2   56.55    2.96
   2   7   2   57.39    3.26
   2   7   3   62.88    3.37
  -2  -7  -3   66.07    3.15
  -2  -7  -4  143.74    4.74
   2   7   4  136.68    4.96
  -2  -7  -5  125.56    4.78
  -2  -7  -5  119.61    4.24
   2   7   5  113.14    4.48
  -2  -7  -6   58.12    2.95
   2   7   6   55.71    3.32
  -2  -7  -7   -0.61    2.98
  -2  -7  -8   -0.74    3.28
  -2  -7  -9   31.79    3.99
  -2  -7 -10   52.26    4.60
  -2  -7 -11   14.90    4.43
  -2  -8  19   49.66    6.13
  -2  -8  18    7.72    5.04
  -2  -8  17   12.78    4.91
  -2  -8  16   39.62    5.09
  -2  -8  15   20.64    4.51
   2   8 -15    8.28    2.57
   2   8 -14  165.82    5.91
  -2  -8  14  182.51    5.98
  -2  -8  13  121.64    4.70
   2   8 -13  115.22    4.64
  -2  -8  13  129.41    6.13
   2   8 -12   21.45    2.76
  -2  -8  12   26.92    2.84
   2   8 -11    0.86    2.42
  -2  -8  11    2.62    2.56
   2   8 -10    9.60    2.64
  -2  -8  10   13.07    2.58
   2   8  -9   82.24    3.87
  -2  -8   9   84.22    3.86
  -2  -8   8  228.39    5.95
  -2  -8   8  245.60    7.19
   2   8  -8  224.55    7.14
  -2  -8   7  123.97    3.68
   2   8  -7  115.80    4.80
  -2  -8   7  134.64    4.81
   2   8  -7  138.99    4.10
  -2  -8   6  452.60   12.23
   2   8  -6  464.99   11.73
  -2  -8   6  438.99   11.36
  -2  -8   5   21.23    2.51
   2   8  -5   17.39    2.66
  -2  -8   5   23.48    1.63
   2   8  -4   55.15    3.29
   2   8  -3   83.32    3.91
  -2  -8   2   66.91    3.44
   2   8  -2   69.50    3.73
  -2  -8   1  143.47    4.94
   2   8  -1  129.68    5.13
  -2  -8   0   40.85    2.90
   2   8   0   38.55    3.18
  -2  -8  -1  103.78    4.25
   2   8   1  107.53    4.50
  -2  -8  -2  109.58    4.32
   2   8   2  105.98    4.63
   2   8   3   30.51    3.14
  -2  -8  -3   28.13    2.76
  -2  -8  -4   11.84    2.53
   2   8   4   12.46    2.96
  -2  -8  -5   37.83    3.28
  -2  -8  -5   40.19    2.91
   2   8   5   43.75    3.40
  -2  -8  -6   43.37    3.58
  -2  -8  -6   39.26    2.87
  -2  -8  -7   66.67    4.31
  -2  -8  -8   10.23    3.61
  -2  -8  -9    7.69    3.80
  -2  -8 -10    7.20    3.97
  -2  -9  18   16.32    5.38
  -2  -9  17   32.77    5.35
  -2  -9  16    3.80    4.66
  -2  -9  15    0.26    4.35
  -2  -9  15    0.54    2.89
   2   9 -15   -4.03    2.92
  -2  -9  14   10.01    4.26
   2   9 -14   -0.41    2.91
  -2  -9  14    4.64    2.91
  -2  -9  13   11.17    2.99
   2   9 -13    9.39    3.03
  -2  -9  12  118.97    4.94
   2   9 -12  113.43    4.93
  -2  -9  11  103.48    4.53
   2   9 -11   85.65    4.36
  -2  -9  10   87.69    4.24
   2   9 -10   77.78    4.18
  -2  -9   9   78.36    3.97
   2   9  -9   77.03    4.07
   2   9  -8    2.37    2.79
  -2  -9   8    2.42    2.66
  -2  -9   7   83.97    2.89
  -2  -9   7   88.14    4.19
  -2  -9   6   36.03    3.14
   2   9  -5   21.87    3.01
   2   9  -4   84.81    4.36
   2   9  -3  153.60    5.83
   2   9  -2    5.23    2.83
  -2  -9   2    6.21    2.54
  -2  -9   1    8.46    2.62
   2   9  -1    6.52    3.07
  -2  -9   0   14.87    2.84
   2   9   0   12.78    3.15
  -2  -9  -1   33.83    3.22
   2   9   1   30.56    3.45
   2   9   2    4.86    3.15
  -2  -9  -2    1.70    2.69
  -2  -9  -3    9.73    2.76
   2   9   3    5.45    3.23
   2   9   4   96.00    4.84
  -2  -9  -4  101.79    4.35
   2   9   5   16.91    3.36
  -2  -9  -5   21.15    3.26
  -2  -9  -5   20.01    2.87
  -2  -9  -6   -0.09    2.60
  -2  -9  -6   -1.65    3.19
  -2  -9  -7    8.34    3.59
  -2  -9  -8    0.09    3.68
  -2  -9  -9   16.92    4.19
  -2 -10  18    4.74    5.43
  -2 -10  17    8.08    5.12
  -2 -10  16   40.57    5.51
   2  10 -16   32.76    3.59
  -2 -10  15   53.26    3.94
   2  10 -15   42.87    3.90
  -2 -10  14   55.21    4.03
   2  10 -14   53.59    4.05
  -2 -10  13   11.74    3.32
   2  10 -13    7.98    3.33
   2  10 -12   -2.80    3.18
  -2 -10  12    5.01    3.19
   2  10 -11    5.07    3.35
  -2 -10  11    9.04    3.20
  -2 -10  10   82.47    4.46
   2  10 -10   70.57    4.45
  -2 -10   9  154.85    5.90
   2  10  -9  144.46    6.00
  -2 -10   8  127.87    5.30
   2  10  -8  116.04    5.41
  -2 -10   7  177.01    6.44
  -2 -10   6  130.51    5.36
   2  10  -5    7.78    3.28
   2  10  -4    8.87    3.29
   2  10  -3   50.85    4.13
   2  10  -2  129.03    5.85
  -2 -10   2  138.97    5.51
  -2 -10   1  134.92    5.51
   2  10  -1  128.14    5.81
  -2 -10   0   36.34    3.56
   2  10   0   28.95    3.80
   2  10   1    2.32    3.47
  -2 -10  -1    1.68    2.93
  -2 -10  -2   12.41    3.16
   2  10   2    5.66    3.61
  -2 -10  -3   -2.60    3.05
   2  10   3    0.31    3.54
   2  10   4   10.36    3.67
  -2 -10  -4   13.89    3.07
  -2 -10  -5   43.61    3.93
  -2 -10  -5   37.29    3.46
  -2 -10  -6   39.26    4.04
  -2 -10  -7    6.56    3.72
  -2 -10  -8   11.55    4.13
  -2 -11  17    1.99    5.34
  -2 -11  16    2.67    5.02
   2  11 -16    1.63    3.47
  -2 -11  15    7.12    3.53
   2  11 -15    3.45    3.52
  -2 -11  14   49.96    4.32
   2  11 -14   44.87    4.34
   2  11 -13   85.20    5.18
  -2 -11  13   89.68    5.03
  -2 -11  12   54.11    4.34
   2  11 -12   59.84    4.63
  -2 -11  11   48.46    4.28
   2  11 -11   48.30    4.46
   2  11 -10   28.53    4.09
  -2 -11  10   29.25    3.94
  -2 -11   9    6.46    3.37
   2  11  -9   -2.26    3.60
  -2 -11   8   10.24    3.55
   2  11  -8    4.10    3.75
  -2 -11   7  316.84    9.97
   2  11  -6  154.84    6.70
  -2 -11   5   85.97    4.78
   2  11  -5   79.33    5.23
   2  11  -4   31.66    4.19
  -2 -11   3   14.39    3.52
   2  11  -3    7.86    3.81
  -2 -11   2   -2.21    3.39
   2  11  -2    3.16    3.81
  -2 -11   1   13.65    3.60
   2  11  -1   21.11    4.06
  -2 -11   0   56.53    4.25
   2  11   0   41.64    4.63
  -2 -11  -1  157.57    6.19
   2  11   1  135.55    6.59
  -2 -11  -2   30.05    3.81
   2  11   2   28.88    4.46
   2  11   3    1.94    3.97
  -2 -11  -3    3.37    3.39
  -2 -11  -4    0.56    3.27
   2  11   4    0.40    3.94
  -2 -11  -5    0.66    3.46
  -2 -11  -6    1.38    3.64
  -2 -11  -7    1.78    3.81
  -2 -12  17   18.14    5.78
  -2 -12  16   13.45    5.62
   2  12 -16    6.46    3.96
  -2 -12  15   10.65    4.04
   2  12 -15    9.32    4.04
   2  12 -14    2.22    4.13
  -2 -12  14    7.56    4.06
  -2 -12  13    0.85    3.97
   2  12 -13   -4.86    4.22
   2  12 -12   32.14    4.57
  -2 -12  12   35.73    4.35
   2  12 -11   45.72    4.89
  -2 -12  11   49.31    4.55
   2  12 -10   35.35    4.73
  -2 -12  10   44.96    4.52
  -2 -12   9   53.32    4.69
   2  12  -9   48.48    5.07
  -2 -12   8   38.52    4.33
  -2 -12   7    9.31    3.72
   2  12  -6    3.44    4.26
   2  12  -5   10.62    4.44
   2  12  -4   42.71    5.06
  -2 -12   3  101.88    5.52
   2  12  -3   86.98    5.83
  -2 -12   2   46.45    4.55
   2  12  -2   36.20    4.94
   2  12  -1   21.05    4.75
  -2 -12   1   23.17    4.12
  -2 -12   0    2.64    3.87
   2  12   0    6.11    4.50
   2  12   1    3.84    4.47
  -2 -12  -1    7.93    3.83
  -2 -12  -2    9.35    3.72
   2  12   2    3.10    4.34
   2  12   3   37.57    4.83
  -2 -12  -3   36.00    4.15
  -2 -12  -4   33.59    4.02
  -2 -12  -5   -1.27    3.73
   2  13 -16   -0.17    4.18
  -2 -13  15   27.87    4.65
   2  13 -15   27.69    4.77
   2  13 -14   15.74    4.54
  -2 -13  14   22.29    4.55
  -2 -13  13   17.85    4.54
   2  13 -13   13.72    4.71
  -2 -13  12   39.75    4.92
   2  13 -12   38.19    5.15
  -2 -13  11   15.32    4.45
   2  13 -11    8.73    4.85
  -2 -13  10    6.85    4.24
   2  13 -10    3.41    4.72
  -2 -13   9   16.63    4.43
   2  13  -9   14.48    4.97
  -2 -13   8   15.25    4.52
   2  13  -7   52.91    5.76
  -2 -13   7   62.23    5.25
   2  13  -6   79.89    6.21
   2  13  -5   99.84    6.60
   2  13  -4   55.60    5.88
  -2 -13   4   54.52    5.19
   2  13  -3   21.44    5.19
  -2 -13   3   26.72    4.58
  -2 -13   2   42.70    4.83
   2  13  -2   30.43    5.47
   2  13  -1   24.86    5.32
  -2 -13   1   31.74    4.66
  -2 -13   0   43.66    4.78
   2  13   0   31.59    5.44
  -2 -13  -1   69.72    5.19
   2  13   1   69.44    5.84
   2  13   2    9.65    4.87
  -2 -13  -2   11.88    4.11
  -2 -13  -3    3.16    3.88
   2  14 -16    6.72    4.60
   2  14 -15    4.15    4.70
  -2 -14  15   -9.62    4.79
  -2 -14  14    7.08    4.71
   2  14 -14    5.28    4.80
   2  14 -13   23.93    5.24
  -2 -14  13    9.98    4.81
  -2 -14  12    5.54    4.76
   2  14 -12    0.34    5.11
   2  14 -11   27.63    5.57
  -2 -14  11   28.97    5.09
   2  14 -10   33.83    5.82
  -2 -14  10   35.81    5.21
   2  14  -9   19.47    5.71
  -2 -14   9   32.83    5.11
  -2 -14   8   -0.75    4.61
   2  14  -7    0.26    5.50
   2  14  -6   18.31    5.71
   2  14  -5   44.39    6.20
  -2 -14   5   60.86    5.70
   2  14  -4  104.70    7.20
  -2 -14   4   97.50    6.46
  -2 -14   3   26.87    5.01
   2  14  -3   26.47    5.84
   2  14  -2   20.79    5.66
  -2 -14   2   10.78    4.83
   2  14  -1   -4.26    5.27
  -2 -14   1   -3.75    4.53
  -2 -14   0   30.18    4.91
   2  14   0   16.83    5.42
  -2 -14  -1   14.97    4.54
   2  14   1    9.82    5.30
  -2 -14  -2    8.10    4.20
  -2 -15  13    7.97    5.01
   2  15 -13   13.12    5.47
   2  15 -12   -0.97    5.38
  -2 -15  12    4.02    4.98
  -2 -15  11   -1.00    5.10
   2  15 -11    4.59    5.73
   2  15 -10   -1.45    5.80
  -2 -15  10    5.17    5.08
  -2 -15   9   11.81    5.20
  -2 -15   8   24.73    5.50
   2  15  -7   21.87    6.29
   2  15  -6    4.95    5.95
  -2 -15   5   -0.67    5.02
   2  15  -5   -3.14    5.81
   2  15  -4   -3.64    5.85
  -2 -15   4    8.14    5.12
  -2 -15   3   -0.11    4.98
   2  15  -3    8.13    5.86
  -2 -15   2   17.88    5.10
   2  15  -2   11.95    5.90
  -3  15   0    1.01    6.06
   3 -15   0   -3.40    4.80
  -3  15  -1    5.96    6.32
   3 -15   1    5.88    4.82
   3 -15   2   31.31    5.25
  -3  15  -2   34.95    6.86
   3 -15   3   46.65    5.60
  -3  15  -3   65.14    7.34
  -3  15  -4   18.96    6.61
  -3  15  -5   20.79    6.56
   3 -15   6    2.73    4.84
  -3  15  -7   -0.15    6.10
   3 -15   7   -1.87    4.72
  -3  15  -8    1.16    6.03
   3 -15   8    2.57    4.78
  -3  15  -9   18.95    6.06
   3 -15   9   20.25    4.96
  -3  15 -10   29.48    6.27
   3 -15  10   24.10    5.15
   3 -14  -4    7.16    4.12
  -3  14   3   16.31    5.47
   3 -14  -3   17.88    4.41
  -3  14   2   22.20    5.93
   3 -14  -2   31.76    4.77
  -3  14   1   12.41    5.80
   3 -14  -1   13.24    4.43
   3 -14   0   19.81    4.69
  -3  14   0   30.64    6.18
  -3  14  -1   14.13    5.93
   3 -14   1   10.86    4.64
  -3  14  -2    0.72    5.79
   3 -14   2    1.76    4.44
  -3  14  -3    8.10    5.86
  -3  14  -4   -1.59    5.83
   3 -14   4    6.87    4.57
  -3  14  -5   52.81    6.74
   3 -14   5   38.34    5.04
   3 -14   6   30.67    4.86
   3 -14   7   35.58    4.89
  -3  14  -7   52.91    6.42
  -3  14  -8   20.37    5.91
   3 -14   8   20.48    4.69
  -3  14  -9   -4.44    5.50
   3 -14   9   -0.77    4.35
   3 -14  10   -2.52    4.40
  -3  14 -10   -1.50    5.31
  -3  14 -11   11.25    5.27
   3 -14  11    1.91    4.44
  -3  14 -12   12.52    5.19
   3 -14  12   -9.07    4.55
  -3  14 -13   12.68    4.99
   3 -13  -5   26.71    4.19
   3 -13  -4    9.57    4.00
  -3  13   4   10.22    5.03
  -3  13   3   28.90    5.38
   3 -13  -3   16.63    4.25
   3 -13  -2   -4.29    4.06
  -3  13   2   -1.11    5.27
   3 -13  -1    2.96    4.03
  -3  13   1    4.58    5.28
  -3  13   0   12.59    5.34
   3 -13   0    8.49    4.16
  -3  13  -1   38.50    5.85
   3 -13   1   34.18    4.51
   3 -13   2   59.50    5.01
  -3  13  -2   70.01    6.46
  -3  13  -3  159.94    8.11
  -3  13  -4   33.19    5.77
   3 -13   5   10.77    4.18
   3 -13   6    2.03    3.98
  -3  13  -7   26.83    5.57
   3 -13   7   23.26    4.41
  -3  13  -8   44.73    5.63
   3 -13   8   48.41    4.74
   3 -13   9   58.17    4.94
  -3  13  -9   61.72    5.90
  -3  13 -10   70.43    5.88
   3 -13  10   57.49    5.01
  -3  13 -11   31.05    5.15
   3 -13  11   28.01    4.45
   3 -13  12    1.06    4.02
  -3  13 -12   -1.44    4.73
  -3  13 -13    9.49    4.58
   3 -13  13    7.46    4.05
   3 -12  -6    6.27    3.48
  -3  12   5    3.86    4.57
   3 -12  -5    2.14    3.50
  -3  12   5   -1.20    3.47
   3 -12  -4   24.30    3.93
  -3  12   4   38.43    5.25
  -3  12   4   32.54    3.59
  -3  12   3   56.96    5.59
   3 -12  -3   59.58    4.58
  -3  12   3   57.23    3.76
  -3  12   2   24.70    2.81
  -3  12   2   27.33    5.21
   3 -12  -2   32.34    4.03
   3 -12  -1   70.18    4.79
  -3  12   1   65.50    5.95
   3 -12   0   26.06    3.98
  -3  12   0   26.87    5.14
   3 -12   1    4.54    3.70
  -3  12  -1    2.67    4.66
  -3  12  -2   39.97    5.27
  -3  12  -3   59.16    5.76
   3 -12   4  110.71    5.55
  -3  12  -4  109.56    6.65
   3 -12   5   40.93    4.34
   3 -12   5   37.77    4.20
   3 -12   6   29.09    4.04
  -3  12  -6   27.24    5.03
  -3  12  -7   29.39    5.04
   3 -12   7   24.87    3.97
   3 -12   8    6.74    3.73
  -3  12  -8    8.62    4.59
   3 -12   9   23.62    4.51
  -3  12  -9   29.91    4.90
   3 -12   9   18.50    4.04
   3 -12  10   59.42    4.59
   3 -12  10   59.60    5.21
  -3  12 -10   63.27    5.38
   3 -12  11   23.95    4.78
  -3  12 -11   19.24    4.54
   3 -12  11   20.36    4.04
   3 -12  12   21.62    3.98
  -3  12 -12   24.67    4.58
   3 -12  13   22.75    4.01
  -3  12 -13   35.59    4.68
   3 -12  15    6.64    5.55
  -3  11   9   11.86    4.65
  -3  11   8   20.17    4.60
   3 -11  -7   21.64    3.37
  -3  11   7   29.62    4.30
   3 -11  -6    9.29    3.28
  -3  11   6    3.36    4.13
  -3  11   6    9.06    3.73
  -3  11   5   38.79    3.82
  -3  11   5   30.93    4.64
   3 -11  -5   25.16    3.66
  -3  11   4    9.36    4.43
  -3  11   4   11.61    3.10
   3 -11  -4   14.88    3.47
   3 -11  -3    1.49    3.22
  -3  11   3   -0.62    4.35
  -3  11   3    1.33    2.70
   3 -11  -2   14.08    3.48
  -3  11   2   13.86    4.42
  -3  11   2   10.99    2.43
  -3  11   1   47.92    4.94
   3 -11  -1   45.82    4.01
  -3  11   1   41.89    2.58
   3 -11   0   71.87    4.28
  -3  11   0   76.59    5.41
   3 -11   1   47.88    3.64
  -3  11  -1   39.79    1.65
   3 -11   1   46.39    3.98
  -3  11  -1   48.67    5.04
   3 -11   2   55.17    3.88
  -3  11  -2   41.85    4.90
   3 -11   3    1.00    3.30
  -3  11  -3    1.97    4.11
   3 -11   4    5.74    3.27
   3 -11   4    2.18    3.43
   3 -11   5    1.35    3.26
   3 -11   6    1.64    3.30
  -3  11  -6    2.22    4.15
  -3  11  -7   70.20    5.15
   3 -11   7   60.01    4.32
   3 -11   8   55.64    4.68
  -3  11  -8   55.78    4.80
   3 -11   8   50.92    4.08
   3 -11   9   17.78    3.63
   3 -11   9   20.21    4.15
  -3  11  -9   16.18    4.21
  -3  11 -10   81.70    5.29
   3 -11  10   88.22    5.28
   3 -11  11   28.66    4.49
   3 -11  11   23.60    3.75
  -3  11 -11   26.14    4.26
   3 -11  12   11.57    4.38
   3 -11  12   11.10    3.57
  -3  11 -12   12.56    3.98
  -3  11 -13   37.34    4.31
   3 -11  15   21.62    5.50
  -3  10  10   14.78    4.80
  -3  10   9   40.22    5.01
  -3  10   8   10.35    4.19
   3 -10  -8    7.21    2.84
  -3  10   7    2.09    3.72
   3 -10  -7   -3.23    2.88
  -3  10   7    2.82    3.72
  -3  10   6    4.82    3.87
  -3  10   6    5.17    3.42
   3 -10  -6    4.69    2.98
  -3  10   5   32.22    3.57
  -3  10   5   32.20    4.33
   3 -10  -5   35.45    3.43
   3 -10  -4   59.97    3.93
  -3  10   4   65.79    3.87
  -3  10   4   73.37    4.92
   3 -10  -3  151.83    5.69
  -3  10   3  151.01    6.50
  -3  10   3  141.82    5.26
   3 -10  -2   37.34    3.52
  -3  10   2   34.05    2.66
  -3  10   2   38.18    4.33
   3 -10  -1   13.43    3.17
  -3  10   1   18.82    3.96
  -3  10   1   13.56    1.94
  -3  10   0    4.28    1.43
   3 -10   0    2.82    2.66
   3 -10   0    6.09    3.01
  -3  10   0    3.42    3.75
   3 -10   1    4.45    2.85
  -3  10  -1    3.13    3.77
  -3  10  -1    3.72    1.02
   3 -10   2  101.91    4.63
  -3  10  -2   97.35    5.45
   3 -10   3   19.68    3.18
  -3  10  -3   23.22    3.98
   3 -10   4  137.34    5.51
   3 -10   5  100.11    4.71
  -3  10  -6  100.34    5.34
   3 -10   6   89.66    4.58
   3 -10   7    5.22    3.41
  -3  10  -7    4.59    3.61
   3 -10   7    6.05    3.06
   3 -10   8   11.58    3.11
  -3  10  -8   14.05    3.70
   3 -10   8   12.70    3.69
   3 -10   9   54.20    3.89
   3 -10   9   57.69    4.37
  -3  10  -9   60.35    4.42
   3 -10  10  154.21    6.40
  -3  10 -10  154.47    6.34
   3 -10  10  142.46    5.73
   3 -10  11   40.17    4.40
   3 -10  11   39.20    3.62
  -3  10 -11   37.71    4.07
   3 -10  12   69.72    4.99
   3 -10  12   64.23    4.10
  -3  10 -12   74.38    4.64
   3 -10  13   13.68    4.11
   3 -10  14   -1.14    4.66
   3 -10  15   -0.90    4.94
   3 -10  16    1.28    4.89
  -3   9  11    1.35    4.78
   3  -9 -11    0.11    4.41
   3  -9 -10    3.72    4.25
  -3   9  10    7.49    4.56
  -3   9   9   13.76    4.28
  -3   9   8   61.02    4.74
   3  -9  -8   51.54    3.28
  -3   9   7  106.34    5.24
   3  -9  -7  105.45    4.42
   3  -9  -6  190.87    6.42
  -3   9   6  203.59    7.24
  -3   9   6  205.33    7.15
  -3   9   5    2.42    3.35
  -3   9   5    0.07    2.83
   3  -9  -5    0.44    2.65
  -3   9   4   67.06    3.72
  -3   9   4   74.07    4.55
   3  -9  -4   63.62    3.70
   3  -9  -3   60.66    3.68
  -3   9   3   58.71    4.25
  -3   9   3   63.14    3.29
  -3   9   2   10.71    3.47
   3  -9  -2    4.67    2.73
  -3   9   2    8.27    1.93
   3  -9  -2    7.67    2.30
  -3   9   1  140.10    5.97
   3  -9  -1  147.37    5.00
   3  -9  -1  144.10    5.38
  -3   9   0  145.02    5.81
   3  -9   0  136.37    4.82
   3  -9   0  143.15    5.21
   3  -9   1   32.40    2.96
  -3   9  -1   26.87    3.66
  -3   9  -1   26.63    1.21
  -3   9  -2   28.77    3.51
   3  -9   2   36.11    3.11
  -3   9  -3    2.07    3.05
   3  -9   3    2.23    2.65
   3  -9   3    0.74    2.48
   3  -9   4   31.10    3.08
   3  -9   5   67.71    3.75
  -3   9  -5   67.73    4.35
   3  -9   6  336.84    9.99
  -3   9  -6  358.46   10.59
   3  -9   7   69.63    3.89
  -3   9  -7   76.29    4.51
   3  -9   7   75.88    4.29
   3  -9   8    2.20    3.25
   3  -9   8    0.82    2.77
  -3   9  -8    4.91    3.27
   3  -9   9   13.71    3.44
  -3   9  -9   13.24    3.36
   3  -9   9   13.20    2.86
   3  -9  10    4.39    2.75
  -3   9 -10    3.97    3.21
   3  -9  10   -0.84    3.41
   3  -9  11   17.25    3.75
  -3   9 -11   20.94    3.41
   3  -9  11   18.23    2.97
   3  -9  12    8.68    3.80
   3  -9  12    8.68    2.84
   3  -9  13   33.27    4.21
   3  -9  14   33.79    4.29
   3  -9  14   37.09    4.99
   3  -9  15   59.96    5.51
   3  -9  16   -2.32    4.74
  -3   8  12   65.02    5.87
   3  -8 -12   50.66    5.31
   3  -8 -11   83.22    5.56
  -3   8  11   82.46    5.90
   3  -8 -10   52.33    4.83
  -3   8  10   59.10    5.18
   3  -8  -9   12.06    2.32
  -3   8   9   16.74    4.11
   3  -8  -9   13.59    2.72
  -3   8   8    6.04    4.46
  -3   8   8    1.98    3.48
   3  -8  -8    4.91    2.31
  -3   8   7   54.84    5.04
  -3   8   7   57.82    4.15
   3  -8  -7   49.62    3.11
  -3   8   7   51.84    3.86
  -3   8   6   85.76    5.58
  -3   8   6   96.69    4.61
   3  -8  -6   93.26    3.98
  -3   8   6  100.63    4.65
  -3   8   5  125.70    5.27
  -3   8   5  112.17    5.86
  -3   8   5  129.25    4.99
   3  -8  -5  126.67    4.66
  -3   8   4   88.79    3.93
  -3   8   4   88.72    4.95
  -3   8   4   95.77    4.61
   3  -8  -4   92.87    4.00
   3  -8  -3   53.49    2.72
  -3   8   3   46.93    3.96
  -3   8   3   51.09    2.85
  -3   8   3   55.23    3.83
   3  -8  -3   52.95    3.23
   3  -8  -2   98.50    3.65
   3  -8  -2   92.69    4.02
  -3   8   2   92.10    4.47
  -3   8   2   87.24    3.40
   3  -8  -1   -0.04    2.09
   3  -8  -1    0.99    2.26
  -3   8   1   -0.34    2.89
  -3   8   1   -1.60    2.70
  -3   8   1    1.34    1.34
   3  -8   0   19.43    2.44
  -3   8   0   18.58    3.05
  -3   8   0   17.55    1.31
  -3   8  -1  236.46    7.24
   3  -8   1  233.59    6.58
  -3   8  -2  182.97    6.59
   3  -8   2  197.42    6.16
   3  -8   3   53.60    3.13
   3  -8   4   35.45    2.75
   3  -8   5   25.08    2.58
  -3   8  -5   23.55    3.03
   3  -8   6   34.92    3.16
  -3   8  -6   42.45    3.43
   3  -8   6   41.68    2.96
   3  -8   7   12.92    2.88
  -3   8  -7   10.46    2.99
   3  -8   7   11.44    2.55
   3  -8   8   10.02    2.99
  -3   8  -8   10.45    3.01
   3  -8   8    6.99    2.55
  -3   8  -9   70.23    3.93
   3  -8   9   56.38    3.47
   3  -8   9   66.11    4.05
   3  -8  10  107.27    5.08
   3  -8  10   98.29    4.26
   3  -8  11   21.54    3.52
  -3   8 -11   25.24    3.14
   3  -8  11   18.95    2.72
   3  -8  12   13.70    3.58
   3  -8  12   11.86    2.60
   3  -8  13    3.82    3.90
   3  -8  13   -1.74    3.58
   3  -8  14    0.98    4.04
   3  -8  14    1.08    3.63
   3  -8  15    8.36    4.40
   3  -8  16   23.40    4.73
   3  -7 -13   16.42    4.67
  -3   7  13   22.03    5.24
   3  -7 -12    8.94    4.25
  -3   7  12   14.88    4.86
   3  -7 -11   46.61    4.57
  -3   7  11   51.02    5.11
  -3   7  10  120.07    6.72
  -3   7  10  131.61    6.34
  -3   7   9   49.06    4.37
   3  -7  -9   43.40    2.55
   3  -7  -9   49.82    2.99
   3  -7  -8   95.59    3.65
  -3   7   8  105.09    5.12
  -3   7   8   94.41    5.63
  -3   7   7   43.91    3.57
  -3   7   7   40.09    4.34
   3  -7  -7   42.14    2.67
  -3   7   7   41.62    3.29
   3  -7  -6   54.43    2.93
  -3   7   6   48.26    3.37
  -3   7   6   45.71    4.17
  -3   7   6   49.51    3.49
   3  -7  -5   -0.18    2.12
  -3   7   5    3.05    2.60
  -3   7   5    4.03    3.14
  -3   7   5    2.59    2.33
  -3   7   4    6.64    3.02
   3  -7  -4    8.14    1.64
  -3   7   4    4.64    2.02
  -3   7   4    5.92    2.52
   3  -7  -4    3.41    2.07
  -3   7   3  287.83    8.54
  -3   7   3  266.75    8.84
  -3   7   3  284.92    7.97
   3  -7  -3  286.23    7.72
   3  -7  -3  293.04    8.16
   3  -7  -2  957.51   23.57
  -3   7   2  940.89   24.21
   3  -7  -2  938.89   23.85
   3  -7  -1  165.91    5.09
  -3   7   1  158.74    4.60
   3  -7  -1  162.92    5.29
  -3   7   1  166.34    5.71
  -3   7   0  131.98    4.95
  -3   7   0  123.12    3.55
  -3   7  -1    2.65    0.45
  -3   7  -1    2.06    2.24
   3  -7   1    0.65    1.92
  -3   7  -2   13.76    2.43
   3  -7   3  158.13    5.22
   3  -7   4  241.18    7.20
  -3   7  -4  249.46    7.59
   3  -7   5  146.99    5.12
   3  -7   5  160.43    5.42
  -3   7  -5  160.49    5.53
   3  -7   6    5.07    2.43
  -3   7  -6    7.27    2.47
   3  -7   6    5.47    1.98
   3  -7   6    7.99    2.14
   3  -7   7  139.70    4.73
   3  -7   7  143.41    4.95
   3  -7   7  149.94    5.37
  -3   7  -7  148.17    5.28
   3  -7   8  112.73    3.59
   3  -7   8  119.29    4.38
   3  -7   8  126.99    4.97
   3  -7   8  113.51    4.08
   3  -7   9   -1.11    2.80
   3  -7   9    0.42    2.22
  -3   7  -9    1.49    2.45
   3  -7   9    1.61    1.57
   3  -7  10   34.59    3.36
   3  -7  10   30.66    2.30
   3  -7  10   34.98    2.64
  -3   7 -10   38.23    3.01
   3  -7  11   82.07    3.59
   3  -7  11   86.11    3.75
   3  -7  11   98.58    4.64
   3  -7  11   92.43    3.29
   3  -7  12   69.20    3.29
   3  -7  12   76.23    3.78
   3  -7  12   80.60    4.39
   3  -7  12   73.52    3.73
   3  -7  12   84.52    4.91
   3  -7  13   49.27    3.96
   3  -7  13   51.13    4.40
   3  -7  14    8.76    3.41
   3  -7  14    6.88    3.89
   3  -7  15    6.04    4.15
  -3   6  14   38.50    5.69
   3  -6 -14   38.89    5.04
   3  -6 -13   68.76    5.33
  -3   6  13   82.02    6.08
   3  -6 -12   -0.20    3.85
  -3   6  12    0.98    4.59
  -3   6  12    1.21    4.38
   3  -6 -11   10.32    3.58
  -3   6  11   18.60    4.49
  -3   6  11    9.10    4.13
   3  -6 -10   23.38    2.11
  -3   6  10   22.29    4.02
   3  -6 -10   21.34    3.54
   3  -6 -10   21.29    1.84
  -3   6  10   22.13    4.42
  -3   6   9   -0.10    3.88
  -3   6   9    1.68    3.27
   3  -6  -9   -0.24    1.96
   3  -6  -9   -2.20    1.72
   3  -6  -8   54.64    2.59
  -3   6   8   58.67    3.91
  -3   6   8   51.65    4.43
   3  -6  -7  204.95    5.82
  -3   6   7  192.16    7.24
  -3   6   7  185.68    6.20
  -3   6   7  204.59    6.78
  -3   6   6  387.85   10.77
  -3   6   6  376.09   11.52
   3  -6  -6  406.37   10.45
  -3   6   6  392.51   11.04
  -3   6   5  133.11    4.80
  -3   6   5  127.95    4.79
  -3   6   5  129.88    5.44
   3  -6  -5  141.75    4.49
   3  -6  -5  136.79    3.90
   3  -6  -4  294.05    7.37
  -3   6   4  276.02    8.61
  -3   6   4  267.71    8.07
  -3   6   4  267.50    7.85
   3  -6  -4  271.38    7.75
  -3   6   3   24.72    2.74
  -3   6   3   35.22    1.91
  -3   6   3   27.90    2.57
   3  -6  -3   29.86    1.93
   3  -6  -3   28.54    2.22
   3  -6  -2   38.30    2.35
   3  -6  -2   37.42    2.15
  -3   6   2   35.03    2.62
  -3   6   2   35.32    1.87
   3  -6  -1  483.00   12.32
  -3   6   1  486.64   12.78
  -3   6   1  465.59   11.89
  -3   6   0  303.22    8.53
  -3   6   0  293.68    7.44
   3  -6   0  302.05    8.15
  -3   6  -1  420.83   11.35
  -3   6  -1  410.79   11.20
   3  -6   2  194.88    5.94
   3  -6   2  197.91    5.90
   3  -6   3  172.63    5.34
   3  -6   3  177.02    5.43
   3  -6   4   11.97    1.90
  -3   6  -4   15.38    2.19
   3  -6   5   24.07    2.12
   3  -6   5   25.90    2.04
  -3   6  -5   29.95    2.50
  -3   6  -6  178.79    5.56
   3  -6   6  156.46    4.98
   3  -6   6  168.89    5.50
   3  -6   6  162.90    4.40
   3  -6   6  175.41    5.24
  -3   6  -7  207.69    6.08
   3  -6   7  193.06    6.13
   3  -6   7  190.74    5.75
   3  -6   7  191.76    5.19
   3  -6   8   16.90    2.68
  -3   6  -8   21.78    2.45
   3  -6   8   17.09    1.65
   3  -6   8   19.65    2.19
   3  -6   9  100.24    3.65
   3  -6   9  111.44    4.53
   3  -6   9  103.39    3.80
   3  -6  10   10.54    2.06
   3  -6  10   13.32    2.90
   3  -6  10   14.58    1.87
   3  -6  10   11.53    2.12
   3  -6  11   16.23    1.93
   3  -6  11   18.11    3.11
   3  -6  11   16.62    3.09
   3  -6  11   20.00    2.46
   3  -6  11   13.66    2.03
   3  -6  11   18.33    2.52
   3  -6  12    2.59    3.08
   3  -6  12    8.48    3.04
   3  -6  12    6.18    2.63
   3  -6  13   18.71    3.24
   3  -6  13    7.75    3.52
   3  -6  13    9.49    3.03
   3  -6  14   33.79    3.75
   3  -6  14   41.06    4.30
   3  -6  15   15.42    4.16
   3  -5 -15   16.39    4.73
  -3   5  15   11.39    5.32
  -3   5  14   -1.88    4.83
   3  -5 -14    2.15    4.26
  -3   5  13   27.60    4.82
  -3   5  13   26.91    4.90
  -3   5  12   -2.34    4.19
  -3   5  12   -0.81    4.03
  -3   5  11   77.32    5.29
  -3   5  11   73.70    5.06
  -3   5  10  146.38    6.12
   3  -5 -10  157.89    4.04
  -3   5  10  135.42    6.21
  -3   5   9  230.19    7.86
  -3   5   9  216.79    8.07
   3  -5  -9  221.11    6.23
   3  -5  -8   58.21    2.70
   3  -5  -8   56.23    2.45
   3  -5  -8   56.08    2.32
  -3   5   8   60.11    4.21
  -3   5   8   60.65    3.79
   3  -5  -8   57.67    2.49
  -3   5   7    1.20    2.95
   3  -5  -7    2.56    1.46
  -3   5   7    0.97    2.30
   3  -5  -7    0.58    1.63
  -3   5   6   49.58    2.98
  -3   5   6   54.36    3.56
  -3   5   6   50.32    2.80
   3  -5  -6   52.31    2.47
   3  -5  -5   41.31    2.26
   3  -5  -5   42.97    1.77
  -3   5   5   44.19    3.17
  -3   5   5   42.52    2.55
  -3   5   5   38.57    2.49
   3  -5  -4  785.43   19.19
   3  -5  -4  784.27   19.53
  -3   5   4  769.36   19.74
  -3   5   4  753.44   20.21
   3  -5  -4  800.21   19.58
  -3   5   4  762.77   19.65
   3  -5  -3  537.04   13.35
   3  -5  -3  523.27   13.15
   3  -5  -3  565.01   13.37
  -3   5   3  537.71   13.88
  -3   5   3  498.14   13.48
   3  -5  -3  512.91   13.03
  -3   5   3  466.15   13.10
   3  -5  -2  369.60    9.80
  -3   5   2  368.42    9.63
  -3   5   2  366.73   10.16
   3  -5  -1  144.34    4.36
  -3   5   1  133.60    3.76
  -3   5   1  138.09    4.53
  -3   5   0   81.31    2.26
  -3   5  -1   88.58    3.28
   3  -5   2  159.14    4.91
  -3   5  -2  162.22    4.86
   3  -5   2  158.82    4.75
   3  -5   3  329.20    8.95
   3  -5   3  332.65    8.97
   3  -5   4  477.67   11.92
   3  -5   4  453.90   11.65
   3  -5   4  447.16   11.64
   3  -5   4  444.95   10.98
  -3   5  -4  492.06   12.07
   3  -5   5  349.50    9.22
   3  -5   5  327.62    8.93
   3  -5   5  348.88    9.26
   3  -5   5  333.06    9.02
   3  -5   5  343.59    8.56
  -3   5  -5  359.78    9.39
   3  -5   6  181.75    5.30
   3  -5   6  167.94    5.08
  -3   5  -6  186.72    5.48
   3  -5   6  172.80    4.80
   3  -5   7    2.37    1.69
   3  -5   7    1.45    1.26
  -3   5  -7    2.70    1.90
   3  -5   8  132.28    4.77
   3  -5   8  128.72    4.01
   3  -5   8  128.80    4.17
   3  -5   8  129.77    4.15
   3  -5   9   64.34    2.72
   3  -5   9   66.01    2.78
   3  -5   9   62.97    2.57
   3  -5   9   64.34    2.95
   3  -5   9   68.47    3.52
   3  -5   9   61.90    2.69
   3  -5  10    6.96    1.71
   3  -5  10    7.68    2.69
   3  -5  10    5.69    1.98
   3  -5  10    5.72    2.19
   3  -5  10    5.88    2.65
   3  -5  10    6.44    1.75
   3  -5  11   51.83    2.51
   3  -5  11   53.75    3.44
   3  -5  11   42.04    3.10
   3  -5  11   45.78    2.50
   3  -5  11   42.34    2.19
   3  -5  11   50.80    3.53
   3  -5  12   72.02    3.80
   3  -5  12   68.11    3.84
   3  -5  12   64.47    2.91
   3  -5  12   66.27    4.16
   3  -5  13   27.88    3.70
   3  -5  13   28.87    3.13
   3  -5  13   29.56    3.49
   3  -5  14   37.65    4.19
   3  -5  14   41.98    4.04
   3  -5  15   -0.94    3.84
   3  -5  15    4.12    3.83
  -3   4  15   30.02    5.57
  -3   4  14   28.36    5.05
  -3   4  13    5.22    4.25
  -3   4  13    3.47    4.15
  -3   4  12   64.18    4.87
  -3   4  12   69.68    5.05
  -3   4  11   18.86    3.89
  -3   4  11    9.62    3.64
   3  -4 -10   14.10    1.28
   3  -4 -10   16.26    1.47
  -3   4  10   15.20    3.65
  -3   4  10   20.46    3.42
   3  -4  -9  142.71    3.99
   3  -4  -9  142.21    4.14
   3  -4  -9  150.50    4.27
  -3   4   9  140.89    5.83
   3  -4  -9  138.31    4.05
  -3   4   9  150.55    5.71
   3  -4  -8   23.20    1.66
   3  -4  -8  134.82    2.64
   3  -4  -8  135.17    2.49
   3  -4  -8   14.37    1.75
  -3   4   8  136.09    4.51
  -3   4   8  137.55    4.28
   3  -4  -7  315.31    8.09
  -3   4   7  305.45    9.04
  -3   4   7  308.56    9.33
   3  -4  -7  312.39    8.20
   3  -4  -6  174.67    4.39
  -3   4   6  166.76    5.49
   3  -4  -6  163.58    4.90
  -3   4   6  162.54    5.79
   3  -4  -6  168.38    4.77
   3  -4  -5  168.19    4.41
  -3   4   5  152.74    5.07
  -3   4   5  164.97    5.52
   3  -4  -5  162.14    4.66
  -3   4   4    6.14    1.73
   3  -4  -4    9.22    1.39
  -3   4   3  165.91    4.86
   3  -4  -3  175.69    4.89
   3  -4  -2  180.61    5.04
  -3   4   2  174.54    4.81
  -3   4   1  412.16   10.24
   3  -4   1 1849.26   45.65
  -3   4  -1 1912.71   45.74
   3  -4   2  176.19    5.09
  -3   4  -2  182.96    5.05
   3  -4   3   25.13    1.65
   3  -4   4  195.91    5.49
   3  -4   5  229.43    6.27
   3  -4   6  188.57    5.28
   3  -4   6  174.28    5.06
   3  -4   7  599.73   15.29
   3  -4   7  631.59   15.52
   3  -4   7  627.52   15.43
   3  -4   7  596.11   15.46
   3  -4   8  211.24    5.85
   3  -4   8  221.46    5.96
   3  -4   8  211.80    5.75
   3  -4   8  211.09    6.10
   3  -4   8  209.33    6.14
   3  -4   8  202.35    5.93
   3  -4   9   76.78    3.44
   3  -4   9   69.90    2.56
   3  -4   9   76.32    2.70
   3  -4   9   75.43    3.31
   3  -4   9   69.82    3.51
   3  -4   9   70.50    2.64
   3  -4   9   73.66    2.88
   3  -4   9   74.64    2.90
   3  -4  10   23.44    2.76
   3  -4  10   27.69    2.81
   3  -4  10   21.36    1.60
   3  -4  10   30.81    2.69
   3  -4  10   23.99    1.84
   3  -4  10   26.46    2.07
   3  -4  11   28.48    3.06
   3  -4  11   30.52    2.87
   3  -4  11   31.49    3.05
   3  -4  11   30.81    2.29
   3  -4  12    4.98    2.96
   3  -4  12   -0.41    2.55
   3  -4  12    2.67    2.10
   3  -4  12    5.90    2.90
   3  -4  13   14.03    3.47
   3  -4  13   13.24    3.39
   3  -4  14   98.95    5.32
   3  -4  14  111.00    5.50
   3  -4  15   33.04    4.46
   3  -4  16    3.35    4.28
   3  -3 -15   -0.43    4.23
   3  -3 -14    8.70    3.83
  -3   3  14   10.94    4.07
  -3   3  13    8.04    3.91
   3  -3 -13   11.16    3.55
   3  -3 -12   28.21    3.61
  -3   3  12   34.38    4.11
  -3   3  11  151.00    6.17
   3  -3 -10   83.78    2.42
   3  -3 -10   75.26    2.28
   3  -3 -10   78.67    2.34
  -3   3  10   84.27    4.46
   3  -3  -9    2.60    1.13
   3  -3  -9    1.80    1.01
   3  -3  -9    1.67    1.20
  -3   3   9   -0.08    2.57
   3  -3  -9    3.15    1.07
  -3   3   9    2.54    2.74
   3  -3  -8    0.90    1.14
   3  -3  -8    0.55    1.25
   3  -3  -8    1.31    1.20
   3  -3  -8    0.90    1.04
  -3   3   8    3.93    2.41
  -3   3   8    2.92    2.21
   3  -3  -7   14.55    1.24
   3  -3  -7   14.66    1.33
   3  -3  -7   14.50    1.45
  -3   3   7   12.73    2.06
  -3   3   7   14.91    2.31
   3  -3  -7   14.48    1.43
   3  -3  -6  142.89    3.77
  -3   3   6  147.16    4.97
   3  -3  -6  142.57    4.29
  -3   3   6  145.39    4.79
   3  -3  -6  147.44    4.15
   3  -3  -6  149.29    4.17
  -3   3   5  345.97    9.80
   3  -3  -5  364.16    9.20
  -3   3   5  346.03    9.57
   3  -3  -5  365.22    9.23
   3  -3  -4  201.60    5.53
   3  -3  -4  210.63    5.59
  -3   3   4  205.04    5.75
  -3   3   4  202.87    5.73
  -3   3   4  198.58    6.05
  -3   3   3  762.38   19.50
  -3   3   3  776.90   19.65
   3  -3  -3  816.70   19.57
   3  -3  -3  800.60   19.49
  -3   3   2   96.93    3.08
   3  -3  -2   94.16    2.97
  -3   3   2   88.38    3.08
  -3   3   2   89.58    2.73
  -3   3   2   95.79    3.17
  -3   3   1  156.24    4.36
  -3   3   1  145.47    4.38
  -3   3   1  146.18    3.92
   3  -3   0 1092.97   26.33
  -3   3  -1  499.95   12.64
   3  -3   1  499.39   12.68
   3  -3   1  502.78   12.22
   3  -3   1  510.63   12.77
   3  -3   2  888.16   22.07
   3  -3   2  906.45   22.18
  -3   3  -2  896.70   21.95
   3  -3   3  852.39   21.29
   3  -3   3  879.90   21.42
  -3   3  -3  863.62   21.45
   3  -3   4  278.95    7.28
   3  -3   4  265.62    7.15
   3  -3   5  102.02    3.20
   3  -3   5  100.37    3.22
   3  -3   6    3.02    1.22
   3  -3   6    2.50    1.17
   3  -3   6    1.56    1.34
   3  -3   7   44.99    2.40
   3  -3   7   44.45    2.14
   3  -3   7   48.38    2.05
   3  -3   7   43.42    2.17
   3  -3   7   47.45    1.97
   3  -3   7   46.58    1.94
   3  -3   8  240.18    6.22
   3  -3   8  232.22    6.11
   3  -3   8  223.38    6.83
   3  -3   8  221.97    6.45
   3  -3   8  239.28    6.18
   3  -3   8  229.86    6.29
   3  -3   9  239.55    6.34
   3  -3   9  243.12    6.26
   3  -3   9  244.73    7.29
   3  -3   9  239.37    6.42
   3  -3   9  247.05    6.32
   3  -3   9  246.86    6.80
   3  -3  10  225.76    6.13
   3  -3  10  267.91    7.57
   3  -3  10  294.40    7.23
   3  -3  10  289.52    7.68
   3  -3  10  231.78    6.09
   3  -3  10  265.86    6.91
   3  -3  11    5.29    2.63
   3  -3  11    8.84    2.16
   3  -3  11    5.90    2.33
   3  -3  11    5.79    2.71
   3  -3  12    1.49    2.28
   3  -3  12    1.38    2.29
   3  -3  12    1.19    2.86
   3  -3  12    2.69    3.06
   3  -3  13    1.13    2.48
   3  -3  13    6.24    3.52
   3  -3  13    1.30    3.23
   3  -3  14   -2.57    3.89
   3  -3  15    5.88    4.26
   3  -3  16   12.38    4.73
  -3   2  17    6.00    5.38
  -3   2  16   60.35    6.03
  -3   2  15   24.65    4.87
  -3   2  14   65.01    4.83
  -3   2  14   64.97    5.38
  -3   2  13   44.30    4.17
  -3   2  13   35.29    4.50
  -3   2  12    2.22    3.31
  -3   2  11   46.57    3.72
   3  -2 -10   47.07    1.57
   3  -2 -10   53.88    1.57
   3  -2 -10   49.93    1.58
  -3   2  10   52.40    3.47
   3  -2 -10   47.70    1.52
   3  -2  -9  194.92    5.06
   3  -2  -9  194.00    5.01
   3  -2  -9  192.85    5.09
   3  -2  -8  287.93    7.41
   3  -2  -8  284.88    7.35
   3  -2  -8  288.73    7.32
   3  -2  -7   89.87    2.73
   3  -2  -7   81.30    2.84
   3  -2  -7   89.87    2.70
   3  -2  -7   89.87    2.79
   3  -2  -6  125.72    3.61
  -3   2   6  127.13    3.74
   3  -2  -6  129.90    3.61
   3  -2  -6  122.82    3.68
  -3   2   5   10.53    1.15
   3  -2  -5   10.77    1.00
   3  -2  -5   10.50    1.11
   3  -2  -5   10.25    1.14
   3  -2  -4  327.38    8.33
   3  -2  -4  317.03    8.39
   3  -2  -4  321.30    8.32
  -3   2   4  321.43    8.52
  -3   2   4  336.98    8.45
   3  -2  -3  615.60   15.78
  -3   2   3  680.58   15.89
   3  -2  -3  646.67   15.74
   3  -2  -3  649.76   15.73
   3  -2  -3  609.44   15.63
  -3   2   3  617.38   15.75
   3  -2  -2  279.07    7.08
  -3   2   2  290.57    7.37
  -3   2   2  273.23    7.16
   3  -2  -1  704.30   17.16
   3  -2   0   80.41    2.52
   3  -2   0   77.30    2.54
   3  -2   1  489.98   12.29
   3  -2   1  487.27   12.26
   3  -2   2  161.32    4.71
  -3   2  -2  170.50    4.69
   3  -2   2  168.03    4.65
   3  -2   2  166.17    4.63
  -3   2  -2  171.67    4.40
   3  -2   3  660.19   16.24
   3  -2   3  646.76   16.26
   3  -2   3  640.12   16.19
  -3   2  -3  672.41   16.23
   3  -2   3  642.62   16.15
  -3   2  -4  538.89   12.54
   3  -2   4  525.16   12.51
   3  -2   4  532.23   12.48
   3  -2   4  531.97   12.60
   3  -2   5  800.06   19.62
   3  -2   5  793.28   19.65
   3  -2   5  800.55   19.72
   3  -2   6  343.99    8.87
   3  -2   6  345.64    8.96
   3  -2   6  357.79    8.90
   3  -2   6  343.06    9.17
   3  -2   7   86.57    2.72
   3  -2   7   91.56    3.16
   3  -2   7   91.78    2.74
   3  -2   7   87.70    2.81
   3  -2   7   88.59    3.28
   3  -2   8    3.97    1.09
  -3   2  -8    4.70    2.28
   3  -2   8    3.87    1.04
   3  -2   8    2.94    1.77
   3  -2   8    2.95    1.04
   3  -2   8    3.60    1.63
   3  -2   9   20.09    2.02
  -3   2  -9   22.74    3.01
   3  -2   9   15.65    0.96
   3  -2   9   15.78    0.95
   3  -2   9   19.52    0.98
   3  -2   9   17.02    0.95
   3  -2   9   22.37    2.28
   3  -2  10    7.47    2.13
  -3   2 -10    5.83    3.04
   3  -2  10    7.29    2.12
   3  -2  10   11.80    2.42
   3  -2  11  112.33    3.80
   3  -2  11  107.46    4.86
   3  -2  11   93.35    4.43
   3  -2  11   98.21    3.99
   3  -2  12  192.57    6.20
   3  -2  12  203.44    7.22
   3  -2  13   49.55    3.43
   3  -2  13   55.88    4.55
   3  -2  14   22.68    4.24
   3  -2  15    1.59    4.41
   3  -2  16    1.33    4.74
  -3   1  17    1.47    5.17
  -3   1  16    1.11    4.70
  -3   1  15    3.48    4.48
  -3   1  14   51.01    4.25
  -3   1  14   51.50    4.92
  -3   1  13  117.60    5.94
  -3   1  13  127.03    5.46
  -3   1  12  149.62    5.83
  -3   1  12  162.38    6.44
  -3   1  11   80.98    4.42
   3  -1 -10   -0.10    0.61
   3  -1 -10    0.30    0.63
   3  -1 -10    0.83    0.64
   3  -1 -10    0.42    0.60
   3  -1  -9    0.12    1.17
   3  -1  -9   -0.18    0.82
   3  -1  -9   -0.04    0.83
   3  -1  -9   -0.50    0.90
  -3   1   9   -1.56    2.17
   3  -1  -8  137.08    3.96
   3  -1  -8  136.35    3.79
   3  -1  -8  145.08    3.82
   3  -1  -7  354.24    9.38
  -3   1   7  380.61    9.44
   3  -1  -7  381.31    9.31
   3  -1  -7  373.33    9.34
   3  -1  -7  363.83    9.31
   3  -1  -6  259.26    6.90
   3  -1  -6  267.36    6.94
  -3   1   6  276.93    7.02
   3  -1  -6  271.86    6.89
   3  -1  -5  160.01    4.47
  -3   1   5  166.78    4.53
   3  -1  -5  163.60    4.43
   3  -1  -5  166.18    4.45
   3  -1  -4   23.74    1.23
  -3   1   4   22.72    1.18
   3  -1  -4   21.10    1.29
   3  -1  -4   22.75    1.13
   3  -1  -4   22.84    1.21
   3  -1  -4   21.39    1.18
  -3   1   3  448.43   11.15
   3  -1  -3  438.94   11.06
   3  -1  -3  439.41   11.03
   3  -1  -3  442.90   11.13
  -3   1   2    2.13    0.69
   3  -1  -2    1.01    0.58
   3  -1   0  880.26   21.74
   3  -1   0  896.15   21.79
   3  -1   1 1012.20   24.82
   3  -1   1 1022.55   24.88
   3  -1   2  844.09   20.99
   3  -1   2  880.43   20.95
  -3   1  -2  863.66   21.01
   3  -1   2  832.76   20.94
   3  -1   3   83.46    2.59
  -3   1  -3   80.78    2.52
   3  -1   3   78.44    2.48
   3  -1   3   79.24    2.55
   3  -1   3   78.11    2.51
   3  -1   4   63.27    1.56
  -3   1  -4   63.33    1.60
   3  -1   4   66.52    1.55
   3  -1   4   62.43    1.64
   3  -1   4   65.62    1.65
  -3   1  -4   65.05    2.14
  -3   1  -5   12.09    1.08
  -3   1  -5   10.71    1.63
   3  -1   5   12.72    1.00
   3  -1   5   12.55    1.17
   3  -1   5   11.12    1.08
   3  -1   5   11.69    1.19
   3  -1   6  167.17    4.56
  -3   1  -6  170.98    4.61
   3  -1   6  164.45    4.93
  -3   1  -6  157.74    5.41
   3  -1   6  171.40    4.99
   3  -1   7  234.35    6.17
   3  -1   7  238.61    6.18
   3  -1   7  244.49    6.82
  -3   1  -7  233.79    7.37
   3  -1   7  259.52    6.25
   3  -1   7  252.00    6.81
   3  -1   8  276.03    7.46
  -3   1  -8  315.63    9.12
   3  -1   8  294.46    7.48
   3  -1   8  312.85    7.50
   3  -1   8  330.91    7.50
   3  -1   8  315.85    8.49
   3  -1   8  330.99    8.37
  -3   1  -9  136.91    5.50
   3  -1   9  136.21    4.56
   3  -1   9  131.63    4.71
  -3   1 -10   50.59    3.85
   3  -1  10   49.16    3.02
   3  -1  10   53.34    2.59
  -3   1 -11   44.70    4.17
   3  -1  11   47.08    3.16
  -3   1 -12    1.96    3.75
   3  -1  12    2.68    2.70
   3  -1  12    1.86    3.47
   3  -1  13   75.85    4.10
  -3   1 -13   80.06    5.50
   3  -1  13   85.67    5.35
   3  -1  14  124.97    6.54
   3  -1  15    9.01    4.71
  -3   0  18    9.70    5.40
   3   0 -18   -4.40    4.71
   3   0 -17   23.87    4.74
  -3   0  17   22.20    5.32
   3   0 -16   35.27    4.58
  -3   0  16   36.82    5.25
  -3   0  15   35.13    3.96
   3   0 -15   37.81    4.29
  -3   0  15   41.01    4.92
  -3   0  14   11.43    4.01
  -3   0  14    5.03    3.30
  -3   0  13   13.80    3.64
  -3   0  12   59.13    4.05
  -3   0  11   57.91    3.74
   3   0 -11   51.48    2.12
   3   0 -10  190.80    5.13
   3   0 -10  196.92    4.75
   3   0 -10  180.10    4.79
   3   0  -9  169.41    5.27
   3   0  -9  176.17    4.36
   3   0  -9  157.64    4.41
   3   0  -9  177.21    4.38
  -3   0   9  176.31    5.72
  -3   0   9  157.89    4.53
   3   0  -9  165.92    4.55
   3   0  -8   55.21    2.43
   3   0  -8   55.53    1.66
   3   0  -8   50.29    1.86
   3   0  -8   57.04    1.80
  -3   0   8   55.29    1.97
   3   0  -8   55.33    1.91
   3   0  -8   59.54    1.83
  -3   0   8   57.46    2.82
  -3   0   8   51.50    2.86
   3   0  -7  159.92    4.47
   3   0  -7  175.09    4.49
   3   0  -7  165.03    4.89
   3   0  -7  169.82    4.45
  -3   0   7  174.19    4.62
  -3   0   6    2.52    0.86
  -3   0   6    2.66    0.85
   3   0  -6    2.50    0.80
   3   0  -6    2.64    0.95
   3   0  -6    2.24    0.96
  -3   0   5   62.75    2.06
  -3   0   5   60.60    2.02
   3   0  -5   61.47    1.99
   3   0  -5   59.58    2.12
  -3   0   5   57.80    2.38
   3   0  -4  364.71    9.41
  -3   0   4  374.05    9.37
  -3   0   4  385.36    9.34
   3   0  -4  375.51    9.28
   3   0  -4  351.42    9.29
   3   0  -4  362.78    9.36
   3   0  -3  537.66   13.16
  -3   0   3  516.89   13.22
   3   0  -3  556.11   13.23
  -3   0   3  514.55   13.19
   3   0  -2  936.07   23.56
  -3   0   2  980.61   23.66
   3   0  -2 1025.02   23.63
   3   0  -2  928.20   23.45
  -3   0   2  988.76   23.60
   3   0  -1    8.93    0.66
   3   0  -1   12.41    0.58
   3   0   0   78.91    2.42
   3   0   0   84.40    2.24
   3   0   0   77.16    2.44
   3   0   1  183.40    4.51
  -3   0  -1  168.06    4.65
   3   0   1  165.36    4.58
   3   0   1  170.58    4.62
  -3   0  -1  170.38    4.61
   3   0   2   59.13    1.93
  -3   0  -2   58.20    1.99
  -3   0  -2   60.40    1.96
   3   0   2   60.50    1.99
  -3   0  -2   58.53    2.06
   3   0   2   58.21    1.63
   3   0   2   59.84    1.92
   3   0   3    4.05    0.89
  -3   0  -3    3.58    0.82
  -3   0  -3    4.27    1.10
  -3   0  -3    3.21    0.84
   3   0   3    4.16    0.84
   3   0   3    3.93    0.66
  -3   0  -3    3.91    0.52
   3   0   4  504.96    8.18
  -3   0  -4  548.76    8.37
  -3   0  -4  534.75    9.06
   3   0   4  512.63    8.28
   3   0   4  533.73    8.25
  -3   0  -5  548.53   14.21
   3   0   5  521.52   13.42
   3   0   5  553.01   13.46
  -3   0  -5  554.53   13.54
   3   0   5  574.23   13.91
  -3   0  -6  400.93   10.85
  -3   0  -6  382.13    9.88
   3   0   6  387.42    9.81
   3   0   6  412.49   10.44
   3   0   6  397.63    9.82
   3   0   6  413.33    9.92
  -3   0  -7   36.70    2.76
   3   0   7   36.52    1.44
   3   0   7   35.27    1.29
   3   0   7   37.63    2.32
   3   0   8    3.30    1.97
  -3   0  -8    0.15    2.37
  -3   0  -9  155.36    5.92
   3   0   9  151.47    5.17
   3   0  10   97.69    4.23
   3   0  10  107.49    3.39
  -3   0 -10   97.47    4.97
  -3   0 -11   97.34    5.21
   3   0  11   88.65    4.19
   3   0  12   14.17    3.09
  -3   0 -12   12.97    3.88
  -3   0 -13   24.16    4.53
   3   0  13   23.48    4.49
  -3   0 -14    1.47    4.31
   3   0  14   -2.72    4.67
  -3   0 -15  -10.68    4.89
   3   0  15   -1.89    5.00
   3   1 -18   16.35    4.70
  -3  -1  18   10.31    5.31
   3   1 -17   -2.84    4.38
  -3  -1  17    5.14    4.79
   3   1 -16   16.46    3.98
  -3  -1  16   18.06    4.64
   3   1 -15   36.98    4.12
  -3  -1  15   38.45    3.74
  -3  -1  15   45.43    4.79
   3   1 -14  145.26    5.99
  -3  -1  14  147.63    6.64
   3   1 -13  122.94    5.20
  -3  -1  13  116.69    5.69
  -3  -1  12   37.40    3.52
  -3  -1  12   41.18    3.60
   3   1 -12   32.72    1.72
   3   1 -12   38.33    3.13
  -3  -1  11  154.95    5.08
   3   1 -11   88.57    2.43
   3   1 -11  135.39    3.06
  -3  -1  11  158.75    5.24
   3   1 -11   91.17    2.43
   3   1 -11  158.63    4.55
   3   1 -10   12.47    1.95
   3   1 -10   10.44    0.89
  -3  -1  10   10.47    1.06
   3   1 -10    6.06    0.96
   3   1 -10    9.90    0.85
   3   1 -10    9.16    1.05
  -3  -1  10   11.48    2.40
  -3  -1  10   11.71    2.39
  -3  -1   9  160.37    4.38
   3   1  -9  158.35    4.24
   3   1  -9  160.56    5.00
  -3  -1   9  161.63    4.36
   3   1  -9  163.95    4.20
  -3  -1   9  161.94    5.53
   3   1  -9  154.60    4.23
  -3  -1   9  170.75    5.48
   3   1  -8  153.77    3.99
   3   1  -8  144.27    3.92
   3   1  -8  144.56    4.49
   3   1  -8  149.39    3.95
  -3  -1   8  155.28    4.15
   3   1  -8  145.83    3.90
  -3  -1   8  143.81    4.08
  -3  -1   8  148.47    4.98
  -3  -1   8  148.58    4.90
   3   1  -7 1021.15   25.40
   3   1  -7 1001.82   25.37
   3   1  -7 1015.73   25.03
  -3  -1   7 1052.45   25.23
  -3  -1   7 1045.28   25.18
   3   1  -7 1047.31   25.07
   3   1  -6 1226.20   28.85
   3   1  -6 1144.68   28.97
  -3  -1   6 1188.53   28.93
   3   1  -6 1196.41   28.80
  -3  -1   6 1194.57   28.98
  -3  -1   6 1149.91   29.39
   3   1  -5  481.74   12.37
   3   1  -5  502.71   12.35
  -3  -1   5  516.94   12.53
  -3  -1   5  497.50   12.46
   3   1  -5  506.15   12.39
   3   1  -5  494.64   12.62
   3   1  -4   55.03    1.96
   3   1  -4   58.06    1.85
  -3  -1   4   56.07    1.94
  -3  -1   4   57.62    1.93
   3   1  -4   54.67    1.67
   3   1  -3  175.95    4.42
  -3  -1   3  178.32    4.82
  -3  -1   3  182.84    4.78
  -3  -1   2  358.99    8.94
   3   1  -1  206.03    5.45
  -3  -1   1  196.41    5.20
   3   1  -1  202.27    5.47
  -3  -1   0   85.96    2.28
   3   1   0   83.21    2.22
   3   1   0   77.54    2.45
   3   1   0   81.79    2.49
  -3  -1  -1  283.16    6.83
   3   1   1  266.91    6.84
  -3  -1  -1  262.61    6.94
   3   1   1  267.23    6.82
   3   1   1  255.85    6.70
  -3  -1  -1  264.41    6.87
  -3  -1  -2  499.04   11.91
   3   1   2  453.69   11.69
  -3  -1  -2  466.71   11.82
  -3  -1  -2  467.06   11.76
   3   1   2  478.81   11.74
  -3  -1  -3  118.77    3.35
  -3  -1  -3  118.07    3.32
   3   1   3  117.43    3.27
   3   1   3  108.02    3.21
  -3  -1  -3  115.31    3.16
  -3  -1  -3  116.21    3.60
   3   1   4    6.85    1.41
  -3  -1  -4    6.03    1.43
  -3  -1  -4    5.88    0.83
  -3  -1  -4    6.50    0.96
   3   1   4    6.63    0.95
   3   1   4    6.23    0.96
  -3  -1  -4    7.82    0.98
   3   1   5   91.00    2.70
  -3  -1  -5   96.16    3.56
  -3  -1  -5   91.02    2.76
   3   1   5   94.11    2.69
  -3  -1  -5   91.20    2.74
   3   1   5   91.32    3.30
   3   1   6  285.64    7.02
  -3  -1  -6  298.69    8.16
   3   1   6  291.53    7.82
   3   1   7  114.99    2.75
  -3  -1  -7   78.73    2.71
   3   1   7  108.93    2.72
   3   1   7   93.16    2.84
  -3  -1  -7  120.72    4.41
   3   1   7  123.48    4.00
  -3  -1  -8  316.88    9.14
   3   1   8  289.65    8.57
  -3  -1  -9   38.37    3.47
   3   1   9   36.52    2.98
  -3  -1 -10    2.17    3.10
   3   1  10    2.04    2.67
   3   1  11   36.54    3.55
  -3  -1 -11   40.24    4.11
   3   1  12   23.96    3.48
  -3  -1 -12   19.75    4.20
  -3  -1 -13   19.99    4.42
   3   1  13   12.63    4.47
  -3  -1 -14   11.51    4.52
   3   1  14   14.28    4.94
  -3  -2  18   23.28    5.45
   3   2 -18   14.24    4.56
   3   2 -17   17.92    4.37
  -3  -2  17   17.21    5.03
   3   2 -16   -0.10    3.72
  -3  -2  16   -0.26    4.39
   3   2 -15   11.14    3.59
  -3  -2  15    9.68    4.03
   3   2 -14    5.17    3.18
  -3  -2  14    7.57    3.70
  -3  -2  14    8.97    3.62
   3   2 -13   15.22    2.95
  -3  -2  13   16.48    3.37
  -3  -2  13   15.46    3.36
   3   2 -12  327.16    6.84
   3   2 -12  146.85    4.06
  -3  -2  12  173.76    4.20
  -3  -2  12  322.74    7.45
  -3  -2  12  320.03    7.45
  -3  -2  11  210.77    5.44
   3   2 -11  233.19    6.61
   3   2 -11  205.91    5.24
  -3  -2  11  209.60    5.39
   3   2 -11  185.67    5.25
   3   2 -11  202.87    5.22
  -3  -2  11  233.93    7.15
  -3  -2  11  228.27    7.11
  -3  -2  10  174.91    4.58
   3   2 -10  162.03    4.37
   3   2 -10  169.27    4.41
  -3  -2  10  178.87    4.63
  -3  -2  10  180.99    5.92
   3   2 -10  167.75    4.55
  -3  -2  10  177.85    5.87
   3   2 -10  150.52    4.28
   3   2 -10  180.32    5.43
   3   2  -9  234.54    5.86
  -3  -2   9  241.28    5.96
  -3  -2   9  231.34    6.00
   3   2  -9  229.27    5.74
  -3  -2   9  231.72    6.92
   3   2  -9  230.91    6.51
  -3  -2   9  228.48    6.96
  -3  -2   8   95.13    2.86
   3   2  -8   92.75    2.72
   3   2  -8   85.92    3.18
  -3  -2   8   87.09    3.53
  -3  -2   8   96.44    2.92
   3   2  -8   91.34    2.68
   3   2  -8   88.58    2.41
   3   2  -7  439.08   11.45
   3   2  -7  455.20   11.18
   3   2  -7  458.22   11.23
  -3  -2   7  438.05   11.29
  -3  -2   6  433.20   11.40
   3   2  -6  461.81   11.37
   3   2  -6  460.60   11.32
   3   2  -6  460.23   11.44
  -3  -2   5   43.65    1.97
   3   2  -5   45.35    1.56
   3   2  -5   44.16    1.63
   3   2  -5   45.40    1.68
  -3  -2   5   44.36    1.81
  -3  -2   5   45.82    1.74
   3   2  -4  445.26   11.22
  -3  -2   4  472.26   11.60
  -3  -2   4  473.72   11.52
  -3  -2   3  793.14   19.21
   3   2  -3  779.32   19.10
  -3  -2   3  763.20   19.12
  -3  -2   1    2.13    0.37
   3   2  -1    1.60    0.81
   3   2  -1    1.39    0.79
   3   2   0   91.72    2.79
  -3  -2   0   88.93    2.49
   3   2   0   89.36    2.70
  -3  -2   0   85.35    2.72
   3   2   0   95.10    2.75
   3   2   1   97.42    2.89
   3   2   1   91.44    2.83
  -3  -2  -1   96.73    2.89
  -3  -2  -1   96.66    2.80
  -3  -2  -2  140.01    4.02
   3   2   2  134.65    3.89
   3   2   2  150.95    3.98
  -3  -2  -2  142.03    3.95
  -3  -2  -2  138.05    3.71
  -3  -2  -3  169.46    4.71
  -3  -2  -3  176.83    4.80
  -3  -2  -3  173.81    4.61
   3   2   3  171.69    4.66
  -3  -2  -3  170.70    4.72
   3   2   3  176.50    4.73
  -3  -2  -3  169.97    4.98
   3   2   3  181.06    5.09
  -3  -2  -4  604.75   15.10
  -3  -2  -4  608.33   15.54
  -3  -2  -4  602.44   15.12
   3   2   4  606.51   14.99
  -3  -2  -4  608.41   15.07
  -3  -2  -4  609.53   15.10
   3   2   4  631.33   15.53
   3   2   5    3.23    1.14
  -3  -2  -5    3.20    1.19
   3   2   5    3.33    1.73
  -3  -2  -5    2.82    1.71
  -3  -2  -5    4.14    1.06
  -3  -2  -5    2.73    1.04
   3   2   5    3.72    1.01
   3   2   6   10.76    2.10
  -3  -2  -6   11.11    1.14
  -3  -2  -6   11.90    1.13
  -3  -2  -6   12.36    2.11
   3   2   6   13.51    1.11
   3   2   6   12.12    1.19
   3   2   7    2.01    0.91
  -3  -2  -7   -0.07    2.30
  -3  -2  -7    1.34    0.87
   3   2   7    1.66    1.01
   3   2   7    2.84    2.25
   3   2   8   79.79    3.87
  -3  -2  -8   83.21    4.13
   3   2   9  101.98    4.65
  -3  -2  -9  111.55    4.99
   3   2  10   63.51    4.08
  -3  -2 -10   72.38    4.42
   3   2  11   37.76    3.83
  -3  -2 -11   43.82    4.35
  -3  -2 -12   16.66    4.13
  -3  -2 -13    1.59    4.25
   3   2  13    4.95    4.59
  -3  -2 -14   -4.52    4.57
   3   2  14   -4.79    5.11
   3   3 -19    2.25    4.57
  -3  -3  19    2.60    5.24
   3   3 -18    4.49    4.38
  -3  -3  18   14.96    5.29
   3   3 -17   10.87    4.11
  -3  -3  17   12.32    4.74
   3   3 -16    7.56    3.79
  -3  -3  16    6.25    4.24
  -3  -3  16    5.30    4.30
  -3  -3  15   58.44    4.87
   3   3 -15   54.80    4.33
  -3  -3  15   59.58    4.82
   3   3 -14   88.01    4.59
  -3  -3  14   75.14    5.02
  -3  -3  14   87.71    5.12
  -3  -3  13   14.77    3.24
   3   3 -13    6.79    0.80
   3   3 -13   13.29    2.93
  -3  -3  13    9.35    1.07
  -3  -3  13   13.23    3.20
   3   3 -12   15.57    1.20
   3   3 -12   19.76    2.72
  -3  -3  12   20.85    1.43
   3   3 -12   18.10    1.34
  -3  -3  12   22.55    3.19
  -3  -3  12   22.13    1.46
  -3  -3  12   18.04    3.06
  -3  -3  11   -1.81    2.45
  -3  -3  11    0.02    1.21
   3   3 -11    0.15    1.17
   3   3 -11   -0.02    1.03
  -3  -3  11    1.21    2.42
  -3  -3  11    0.44    1.21
   3   3 -11    2.70    2.06
   3   3 -10  171.92    5.50
  -3  -3  10  185.56    4.87
   3   3 -10  167.60    4.71
  -3  -3  10  180.33    4.94
  -3  -3  10  173.82    5.96
   3   3 -10  164.60    4.63
  -3  -3  10  175.26    5.94
   3   3  -9  281.96    8.05
   3   3  -9  282.15    7.50
  -3  -3   9  310.31    7.65
  -3  -3   9  284.88    8.44
   3   3  -9  290.39    7.45
  -3  -3   8  387.48    5.51
  -3  -3   8  384.39    5.66
   3   3  -8  392.44    5.24
  -3  -3   8  384.90    6.65
   3   3  -8  369.00    5.91
   3   3  -7  160.03    4.64
  -3  -3   7  165.12    4.66
  -3  -3   7  160.29    4.52
  -3  -3   7  164.52    4.54
   3   3  -7  170.91    4.43
   3   3  -7  167.15    4.68
   3   3  -6  385.14   10.16
  -3  -3   6  399.73   10.11
   3   3  -6  421.29   10.16
   3   3  -6  411.95   10.37
  -3  -3   6  388.91   10.21
  -3  -3   6  412.63   10.36
   3   3  -6  401.07    9.76
  -3  -3   5    0.88    0.64
   3   3  -5    1.63    0.55
  -3  -3   5    1.65    1.09
  -3  -3   5    1.00    0.95
   3   3  -5    1.42    0.94
  -3  -3   4  656.43   16.23
  -3  -3   4  695.22   16.70
  -3  -3   4  640.45   16.55
   3   3  -4  684.58   16.29
   3   3  -3  667.55   16.36
   3   3  -2  611.63   14.88
   3   3  -2  605.11   15.02
  -3  -3   2  583.65   15.09
   3   3  -1 1468.76   35.78
   3   3  -1 1479.12   35.87
   3   3   0  432.61   11.03
   3   3   0  440.68   11.13
  -3  -3   0  422.90   11.03
  -3  -3   0  459.99   11.20
  -3  -3  -1  203.96    5.69
  -3  -3  -1  217.76    5.78
   3   3   1  214.67    5.75
  -3  -3  -2    1.53    1.01
   3   3   2    1.58    1.33
  -3  -3  -2    3.11    1.04
  -3  -3  -2    1.58    1.16
  -3  -3  -2    1.27    1.18
   3   3   2    1.98    1.02
  -3  -3  -3   44.93    2.14
   3   3   3   45.51    2.01
  -3  -3  -3   45.23    1.98
  -3  -3  -3   45.33    1.86
   3   3   3   44.17    2.36
   3   3   3   44.98    1.83
  -3  -3  -3   44.03    2.05
  -3  -3  -3   44.80    1.78
   3   3   4  150.72    4.30
  -3  -3  -4  155.95    4.28
  -3  -3  -4  149.98    4.71
  -3  -3  -4  153.79    4.47
  -3  -3  -4  151.93    4.31
   3   3   4  144.47    4.19
   3   3   4  149.56    4.89
   3   3   5   44.89    2.74
  -3  -3  -5   47.33    2.54
  -3  -3  -5   51.00    1.94
   3   3   5   45.43    1.93
  -3  -3  -5   44.23    1.81
   3   3   5   45.56    1.79
   3   3   6   33.81    2.81
  -3  -3  -6   35.06    1.68
  -3  -3  -6   36.82    2.66
  -3  -3  -6   36.51    1.99
  -3  -3  -6   33.50    1.69
   3   3   6   31.16    1.75
   3   3   6   31.52    1.62
  -3  -3  -7   92.18    2.85
  -3  -3  -7   93.72    2.85
   3   3   7   92.75    2.90
   3   3   8   56.96    3.81
  -3  -3  -8   60.93    3.77
   3   3   9   35.23    3.60
  -3  -3  -9   37.67    3.60
   3   3  10   -0.76    3.36
  -3  -3 -10    5.29    3.40
  -3  -3 -11   31.76    4.12
  -3  -3 -12   58.69    5.00
  -3  -3 -13   60.15    5.43
   3   3  13   72.90    6.01
  -3  -4  19   27.68    5.55
  -3  -4  18   15.61    5.03
   3   4 -17    8.19    3.99
  -3  -4  17    7.95    4.55
  -3  -4  17    8.99    4.58
   3   4 -16    0.20    3.53
  -3  -4  16    4.46    4.10
  -3  -4  16   -0.88    4.04
   3   4 -15   15.54    3.48
  -3  -4  15   16.43    4.00
  -3  -4  15   17.29    3.91
   3   4 -14   62.21    3.94
  -3  -4  14   62.54    4.42
  -3  -4  14   71.06    4.59
   3   4 -13   90.41    4.31
  -3  -4  13   91.49    3.00
  -3  -4  13  103.37    5.00
  -3  -4  13   97.19    4.90
   3   4 -12  122.73    4.83
  -3  -4  12  126.03    3.95
  -3  -4  12  123.97    3.85
  -3  -4  12  136.25    5.43
   3   4 -12  134.78    3.74
  -3  -4  12  129.70    5.33
   3   4 -12  119.48    3.61
   3   4 -11  184.73    4.09
  -3  -4  11  198.95    4.98
  -3  -4  11  184.49    4.71
  -3  -4  11  196.22    2.91
   3   4 -10   89.53    3.70
  -3  -4  10   96.18    3.33
  -3  -4  10   89.87    4.04
  -3  -4  10  101.95    3.21
   3   4  -9   27.34    2.04
   3   4  -9   32.48    1.81
  -3  -4   9   30.49    1.98
  -3  -4   9   34.99    1.80
  -3  -4   9   28.45    2.42
  -3  -4   8   88.13    3.08
  -3  -4   8   85.90    3.47
  -3  -4   8   83.21    2.87
   3   4  -8   84.78    2.84
  -3  -4   8   83.62    3.51
  -3  -4   7  236.49    6.45
  -3  -4   7  228.58    6.28
   3   4  -7  231.85    6.37
  -3  -4   7  229.51    6.18
   3   4  -7  233.76    6.21
  -3  -4   6  570.63   14.04
   3   4  -6  566.13   13.99
  -3  -4   6  548.23   13.89
  -3  -4   6  569.60   13.71
   3   4  -6  537.91   13.36
  -3  -4   5  748.79   18.34
  -3  -4   5  768.77   18.77
   3   4  -5  743.27   18.73
  -3  -4   5  722.37   18.59
   3   4  -5  757.36   18.22
  -3  -4   4 2226.80   52.81
  -3  -4   4 2096.57   52.64
   3   4  -4 2195.72   52.37
   3   4  -3   17.59    1.17
  -3  -4   2    6.67    1.06
   3   4  -2    9.50    1.10
  -3  -4   1  104.55    3.11
  -3  -4   1   90.77    3.07
  -3  -4   0  455.93   11.72
  -3  -4   0  474.56   11.81
  -3  -4   0  449.19   11.63
  -3  -4  -1 1000.16   24.44
  -3  -4  -1  953.80   24.24
   3   4   1 1027.30   24.60
  -3  -4  -2  382.08    9.06
  -3  -4  -2  358.82    8.95
  -3  -4  -2  368.66    8.85
   3   4   3   62.60    3.01
  -3  -4  -3   60.89    2.59
  -3  -4  -3   63.48    2.56
   3   4   3   60.66    2.51
  -3  -4  -3   60.22    2.33
  -3  -4  -3   66.72    2.71
   3   4   3   61.74    2.34
  -3  -4  -4    3.19    1.50
   3   4   4    3.65    1.31
   3   4   4    3.77    2.12
  -3  -4  -4    2.15    1.65
  -3  -4  -4    3.97    1.69
   3   4   4    4.67    1.55
  -3  -4  -4    4.92    1.27
   3   4   5   78.07    3.68
   3   4   5   75.85    2.83
  -3  -4  -5   81.49    3.37
   3   4   5   68.42    2.64
  -3  -4  -5   75.07    2.66
  -3  -4  -5   81.26    2.91
   3   4   6    3.65    2.66
   3   4   6    1.24    1.57
  -3  -4  -6    4.62    2.29
  -3  -4  -6    2.99    1.34
  -3  -4  -6    2.45    1.30
   3   4   7   40.86    2.07
  -3  -4  -7   49.41    3.24
  -3  -4  -7   41.03    1.89
   3   4   7   47.67    3.63
   3   4   8  109.03    4.71
  -3  -4  -8  130.17    4.57
  -3  -4  -9   65.00    4.29
  -3  -4 -10   45.31    4.30
  -3  -4 -11    9.63    3.89
  -3  -4 -12    2.13    4.11
  -3  -4 -13   -4.17    4.59
  -3  -5  19    3.10    5.01
  -3  -5  19    7.62    5.32
  -3  -5  18   17.85    5.00
  -3  -5  18   16.05    5.09
  -3  -5  17   47.92    5.27
  -3  -5  17   44.81    5.23
  -3  -5  16   45.62    5.01
  -3  -5  16   57.82    5.13
  -3  -5  15   19.38    3.96
  -3  -5  15   14.63    4.04
  -3  -5  14    3.25    3.47
  -3  -5  14    1.05    3.32
  -3  -5  14    4.93    1.63
  -3  -5  13   84.54    4.77
   3   5 -13   93.54    2.94
  -3  -5  13   79.57    4.59
  -3  -5  12   34.93    2.29
  -3  -5  12   36.32    3.38
   3   5 -12   32.48    2.10
  -3  -5  12   32.07    3.22
   3   5 -12   27.84    1.84
  -3  -5  11   30.09    2.91
  -3  -5  11   28.76    2.19
   3   5 -11   23.77    1.73
   3   5 -11   25.29    1.96
  -3  -5  11   30.26    3.08
  -3  -5  10   53.97    3.13
  -3  -5  10   48.05    2.53
   3   5 -10   45.30    2.34
   3   5 -10   46.32    2.13
   3   5  -9  225.83    6.31
  -3  -5   9  229.40    6.47
   3   5  -9  223.12    6.17
   3   5  -8  388.82   10.05
  -3  -5   8  386.33   10.08
  -3  -5   8  400.39   10.37
   3   5  -8  394.25   10.19
  -3  -5   8  382.87   10.14
  -3  -5   7   77.25    2.86
   3   5  -7   79.04    2.93
  -3  -5   7   77.21    2.66
  -3  -5   7   79.46    3.08
   3   5  -7   78.74    2.77
   3   5  -7   81.34    2.88
   3   5  -6   49.02    2.18
  -3  -5   6   47.57    1.86
  -3  -5   6   49.77    2.44
   3   5  -6   48.54    2.09
  -3  -5   6   42.80    2.12
  -3  -5   5  574.79   14.23
  -3  -5   5  614.78   14.78
   3   5  -5  561.34   14.14
  -3  -5   5  564.59   14.51
   3   5  -4 1199.69   28.98
  -3  -5   4 1180.57   28.93
   3   5  -3  178.73    4.84
  -3  -5   3  168.97    4.78
   3   5  -2  211.92    6.19
   3   5  -2  221.91    6.08
   3   5  -2  225.41    6.10
  -3  -5   2  220.93    6.00
  -3  -5   1  140.62    4.22
   3   5  -1  146.79    4.26
   3   5  -1  138.54    4.34
   3   5  -1  138.80    4.36
  -3  -5   1  131.85    4.20
  -3  -5   1  146.51    4.49
  -3  -5   0   81.75    2.94
   3   5   0   81.76    3.10
  -3  -5   0   89.64    3.22
   3   5   0   83.12    2.95
   3   5   1    7.51    1.72
  -3  -5  -1    6.78    1.64
  -3  -5  -1    6.97    1.41
   3   5   2    2.51    1.94
  -3  -5  -2    0.46    1.62
   3   5   2    0.89    1.65
   3   5   3  341.31    9.79
  -3  -5  -3  347.89    9.31
  -3  -5  -3  344.54    9.21
   3   5   3  343.36    9.19
   3   5   4  179.78    6.34
  -3  -5  -4  184.78    5.57
   3   5   4  191.68    5.62
  -3  -5  -4  188.83    5.37
  -3  -5  -4  193.61    5.87
  -3  -5  -4  200.82    5.60
   3   5   5  293.88    8.88
  -3  -5  -5  294.33    8.38
   3   5   5  277.12    7.85
  -3  -5  -5  295.06    7.71
   3   5   6   30.33    3.47
  -3  -5  -6   28.41    2.77
  -3  -5  -6   27.95    1.94
   3   5   6   24.38    2.15
   3   5   7   14.67    3.40
  -3  -5  -7   12.39    2.82
  -3  -5  -7   10.89    1.61
  -3  -5  -8   18.05    3.20
  -3  -5  -9   -2.25    3.39
  -3  -5 -10    4.41    3.73
  -3  -5 -11   35.62    4.52
  -3  -5 -12   21.32    4.51
  -3  -6  20   16.41    5.50
  -3  -6  19    1.30    4.97
  -3  -6  19    2.93    5.12
  -3  -6  18    3.58    4.68
  -3  -6  18    6.33    4.91
  -3  -6  17    0.27    4.47
  -3  -6  17    5.07    4.42
  -3  -6  16    3.15    4.13
  -3  -6  16    3.76    4.15
  -3  -6  15   77.67    5.00
  -3  -6  15   88.53    5.37
  -3  -6  14    7.29    3.56
  -3  -6  14   10.89    3.43
   3   6 -14    6.25    1.99
  -3  -6  13   19.82    3.46
  -3  -6  13   20.34    2.31
   3   6 -13   15.35    2.10
  -3  -6  13   19.77    3.38
   3   6 -12  114.79    4.05
  -3  -6  12  113.21    5.09
  -3  -6  12  125.30    4.30
  -3  -6  12  119.13    5.35
   3   6 -11   12.23    2.05
  -3  -6  11   17.56    2.28
  -3  -6  10   21.91    2.25
   3   6 -10   23.33    2.16
   3   6  -9    9.82    1.96
  -3  -6   9   14.48    2.13
  -3  -6   8   18.92    1.62
  -3  -6   8   23.16    2.20
   3   6  -8   20.13    2.04
  -3  -6   7  255.40    6.89
  -3  -6   7  262.01    7.40
   3   6  -7  244.57    7.21
   3   6  -7  262.61    7.11
  -3  -6   6  335.53    8.91
  -3  -6   6  353.10    9.48
   3   6  -6  351.83    9.25
  -3  -6   5  381.88   10.54
  -3  -6   5  394.05    9.88
   3   6  -4   21.12    1.98
  -3  -6   4   26.00    1.54
   3   6  -3    5.68    1.74
  -3  -6   3    7.07    1.31
   3   6  -3    4.79    1.41
   3   6  -2   94.47    3.50
   3   6  -2   87.55    3.35
   3   6  -1   73.69    3.21
   3   6  -1   79.60    3.27
  -3  -6   1   79.90    3.28
  -3  -6   0  418.57   11.15
   3   6   0  417.35   11.13
  -3  -6  -1  420.76   11.25
   3   6   1  425.92   11.28
   3   6   2  172.90    6.07
  -3  -6  -2  181.54    5.55
   3   6   2  184.62    5.67
   3   6   3   96.01    4.58
  -3  -6  -3  105.25    3.86
   3   6   3  109.78    4.00
   3   6   4    0.80    2.13
  -3  -6  -4    2.29    2.00
  -3  -6  -4    1.55    1.95
   3   6   4   -2.80    2.93
   3   6   5   89.16    4.80
  -3  -6  -5  103.76    4.08
  -3  -6  -5   98.67    3.65
   3   6   5   86.43    3.70
  -3  -6  -6  161.20    5.49
   3   6   6  129.74    4.68
  -3  -6  -7   43.56    3.49
  -3  -6  -7   34.92    2.23
  -3  -6  -8   15.89    3.40
  -3  -6  -9   49.96    4.27
  -3  -6 -10    5.26    3.90
  -3  -6 -11    4.60    4.16
  -3  -7  20    0.72    5.14
  -3  -7  19    8.02    5.26
  -3  -7  19   18.35    5.04
  -3  -7  18   59.51    5.86
  -3  -7  18   36.79    5.26
  -3  -7  17   11.66    4.65
  -3  -7  17   12.42    4.40
  -3  -7  16    2.20    4.26
  -3  -7  16    0.23    3.92
  -3  -7  15    4.00    3.93
   3   7 -15   -0.58    2.24
  -3  -7  15    7.78    3.64
  -3  -7  14   52.34    3.13
  -3  -7  14   52.27    4.54
  -3  -7  13   92.68    3.93
  -3  -7  13  101.02    5.33
  -3  -7  12  205.92    6.14
   3   7 -12  173.97    5.84
   3   7 -11  148.88    5.16
  -3  -7  11  160.25    5.27
  -3  -7  10   86.46    3.78
   3   7 -10   82.27    3.63
  -3  -7   9    4.27    2.22
   3   7  -9    1.42    2.05
  -3  -7   8   14.86    2.34
   3   7  -8   17.87    2.35
  -3  -7   7   31.32    1.82
   3   7  -7   26.98    2.54
  -3  -7   7   30.81    2.59
  -3  -7   6    6.95    1.20
  -3  -7   6    6.03    2.10
   3   7  -5  196.61    6.43
  -3  -7   5  211.67    6.53
  -3  -7   5  217.58    5.77
   3   7  -4  336.02    9.55
  -3  -7   4  348.67    9.01
   3   7  -3  467.53   12.52
   3   7  -2  398.66   11.02
   3   7  -2  397.97   11.10
  -3  -7   2  429.20   11.21
   3   7  -1   19.77    2.35
  -3  -7   1   21.25    2.34
   3   7  -1   16.07    2.36
  -3  -7   0  143.34    4.90
   3   7   0  137.65    4.94
   3   7   0  137.96    5.06
  -3  -7  -1  112.12    4.23
   3   7   1  107.73    4.30
   3   7   2  154.08    5.37
  -3  -7  -2  163.85    5.30
  -3  -7  -3  151.12    5.05
   3   7   3  146.08    5.19
  -3  -7  -4   81.12    3.52
  -3  -7  -4   76.67    3.66
   3   7   4   72.90    3.68
  -3  -7  -5  114.07    4.64
  -3  -7  -5  114.60    4.19
   3   7   5  105.55    4.36
  -3  -7  -6   17.23    3.08
  -3  -7  -7   15.08    3.26
  -3  -7  -8   30.29    3.75
  -3  -7  -9   38.55    4.30
  -3  -7 -10   19.58    4.27
  -3  -8  19   -2.12    5.34
  -3  -8  18   -1.02    4.98
  -3  -8  17   51.21    5.66
   3   8 -16   58.42    3.44
  -3  -8  16   89.52    5.98
   3   8 -15   27.82    2.97
  -3  -8  15   38.49    4.77
  -3  -8  15   40.97    3.20
  -3  -8  14   19.30    4.19
  -3  -8  14   17.56    2.94
   3   8 -14   15.64    2.74
   3   8 -13    1.90    2.56
  -3  -8  13   -1.70    2.69
  -3  -8  12   -0.52    2.65
   3   8 -12    0.32    2.50
   3   8 -11   37.08    3.12
  -3  -8  11   43.60    3.26
   3   8 -10   22.15    2.76
  -3  -8  10   27.74    2.96
  -3  -8   9  126.95    4.87
   3   8  -9  115.64    4.69
  -3  -8   8   76.69    3.77
   3   8  -8   69.15    3.66
  -3  -8   7   53.53    2.15
  -3  -8   7   63.52    3.43
  -3  -8   6   68.65    3.70
  -3  -8   6   71.34    2.61
   3   8  -5    5.88    2.45
   3   8  -4   24.85    2.82
   3   8  -3    3.99    2.57
  -3  -8   2  284.75    8.25
   3   8  -2  262.80    8.19
  -3  -8   1  292.76    8.38
   3   8  -1  266.05    8.35
  -3  -8   0   95.36    4.17
   3   8   0   95.52    4.39
   3   8   1   62.68    3.76
  -3  -8  -1   73.91    3.71
   3   8   2   13.40    2.90
  -3  -8  -2   15.90    2.69
   3   8   3    9.87    2.89
  -3  -8  -3    8.03    2.63
  -3  -8  -4   15.65    2.78
  -3  -8  -4   20.38    2.71
   3   8   4   21.01    3.10
  -3  -8  -5   36.26    3.00
  -3  -8  -5   40.16    3.35
   3   8   5   33.03    3.35
  -3  -8  -6   54.45    3.92
  -3  -8  -7   49.45    4.03
  -3  -8  -8   29.14    3.90
  -3  -8  -9    2.65    3.81
  -3  -8 -10   -0.10    4.17
  -3  -9  19   23.70    5.77
  -3  -9  18   16.51    5.27
  -3  -9  17   25.72    5.32
   3   9 -16    4.29    2.84
  -3  -9  16   -1.23    4.53
  -3  -9  15    3.39    4.31
   3   9 -15    0.51    2.95
  -3  -9  15    0.12    3.01
  -3  -9  14   41.32    4.81
   3   9 -14   30.12    3.33
  -3  -9  14   39.76    3.53
   3   9 -13   31.63    3.24
  -3  -9  13   27.30    3.30
  -3  -9  12   31.60    3.39
   3   9 -12   24.64    3.19
   3   9 -11   12.92    2.94
  -3  -9  11   15.79    3.17
  -3  -9  10   56.93    3.73
   3   9 -10   50.36    3.74
   3   9  -9   14.46    2.95
  -3  -9   9   17.12    3.05
   3   9  -8   26.28    3.27
  -3  -9   8   29.25    3.22
  -3  -9   7    9.44    1.57
  -3  -9   7   19.75    2.93
  -3  -9   6   56.80    3.70
   3   9  -6   59.32    3.77
   3   9  -5   51.25    3.59
   3   9  -4   17.96    3.14
   3   9  -3   34.73    3.43
  -3  -9   2   45.20    3.46
   3   9  -2   44.07    3.69
   3   9  -1   27.51    3.40
  -3  -9   1   31.31    3.29
  -3  -9   0   32.95    3.32
   3   9   0   35.38    3.52
  -3  -9  -1  118.57    5.02
   3   9   1  120.41    5.23
   3   9   2  112.25    5.14
  -3  -9  -2  117.20    4.83
  -3  -9  -3   72.56    3.96
   3   9   3   72.85    4.33
  -3  -9  -4   40.44    3.40
  -3  -9  -4   38.37    3.32
   3   9   4   32.33    3.69
  -3  -9  -5    4.29    3.05
  -3  -9  -5    4.40    2.79
  -3  -9  -6    2.49    3.26
  -3  -9  -7   12.27    3.63
  -3  -9  -8   37.50    4.24
  -3  -9  -9   31.75    4.50
  -3 -10  18   19.74    5.75
  -3 -10  17   18.59    5.27
   3  10 -16   42.79    3.85
  -3 -10  16   64.59    5.84
  -3 -10  15  144.40    5.81
  -3 -10  15  165.84    7.72
  -3 -10  14   24.81    3.56
   3  10 -14   16.11    3.44
  -3 -10  13   19.15    3.61
   3  10 -13   13.21    3.40
  -3 -10  12   23.46    3.69
   3  10 -12   28.47    3.63
   3  10 -11   18.31    3.44
  -3 -10  11   27.19    3.64
  -3 -10  10   78.44    4.58
   3  10 -10   72.04    4.47
  -3 -10   9   50.78    3.95
   3  10  -9   46.97    3.98
  -3 -10   8  125.59    5.53
  -3 -10   7  112.26    5.22
   3  10  -6   22.10    3.66
   3  10  -5   70.39    4.52
  -3 -10   5   70.35    4.29
   3  10  -4   53.92    4.25
  -3 -10   3   60.06    4.15
   3  10  -3   57.32    4.37
   3  10  -2    7.44    3.47
  -3 -10   2    7.05    3.31
   3  10  -1   14.95    3.60
  -3 -10   1   22.54    3.47
  -3 -10   0   89.25    4.60
   3  10   0   76.39    4.83
   3  10   1   12.61    3.68
  -3 -10  -1   24.72    3.43
   3  10   2    4.20    3.56
  -3 -10  -2    2.89    3.10
   3  10   3   45.59    4.30
  -3 -10  -3   50.09    3.82
   3  10   4   55.41    4.54
  -3 -10  -4   62.13    4.05
  -3 -10  -5   47.24    3.75
  -3 -10  -5   60.53    4.14
  -3 -10  -6   13.00    3.58
  -3 -10  -7    0.93    3.63
  -3 -11  18    8.66    5.70
  -3 -11  17    5.34    5.35
  -3 -11  16   34.57    5.55
   3  11 -16   24.95    4.00
  -3 -11  15    6.36    3.80
   3  11 -15   12.66    3.79
  -3 -11  14   48.15    4.34
   3  11 -14   42.05    4.31
  -3 -11  13   94.85    5.24
   3  11 -13   86.50    5.17
  -3 -11  12   42.53    4.22
   3  11 -12   34.75    4.19
   3  11 -11    0.67    3.61
  -3 -11  11    4.40    3.68
  -3 -11  10   19.10    3.83
   3  11 -10   14.82    3.89
   3  11  -9   20.70    4.04
  -3 -11   9   22.76    4.00
  -3 -11   8   77.37    4.91
  -3 -11   7   12.43    3.64
   3  11  -6   22.21    4.09
   3  11  -5   52.44    4.61
   3  11  -4    6.80    3.89
  -3 -11   3   10.73    3.70
   3  11  -3    7.60    3.97
   3  11  -2   22.88    4.12
  -3 -11   2   21.81    3.81
   3  11  -1   10.02    4.04
  -3 -11   1   14.16    3.72
  -3 -11   0    8.16    3.63
   3  11   0    0.35    4.05
   3  11   1    5.14    4.01
  -3 -11  -1   16.11    3.71
  -3 -11  -2   52.94    4.13
   3  11   2   47.21    4.83
   3  11   3   30.04    4.39
  -3 -11  -3   34.74    3.91
  -3 -11  -4    1.96    3.24
  -3 -11  -4    3.12    3.39
  -3 -11  -5   15.89    3.62
  -3 -12  17    9.81    5.74
  -3 -12  16   36.50    5.83
   3  12 -16    7.92    4.17
   3  12 -15   10.80    4.15
  -3 -12  15    9.33    4.10
  -3 -12  14    0.86    3.98
   3  12 -14   -0.44    4.06
  -3 -12  13    5.18    4.07
   3  12 -13   -5.56    4.12
  -3 -12  12   42.83    4.64
   3  12 -12   29.76    4.61
   3  12 -11  120.48    6.28
  -3 -12  11  124.99    6.15
  -3 -12  10   73.13    5.15
   3  12 -10   66.12    5.23
   3  12  -9    9.64    4.25
  -3 -12   9    6.73    4.03
  -3 -12   8    7.36    4.08
   3  12  -7    2.34    4.29
   3  12  -6   -0.10    4.21
   3  12  -5   16.60    4.52
  -3 -12   4   52.93    4.74
   3  12  -4   46.10    5.16
  -3 -12   3   89.12    5.34
   3  12  -3   67.69    5.51
   3  12  -2   15.85    4.62
  -3 -12   2   24.25    4.24
  -3 -12   1    0.61    3.88
   3  12  -1    2.10    4.42
   3  12   0    2.46    4.45
  -3 -12   0    2.93    3.91
   3  12   1   -0.86    4.44
  -3 -12  -1    1.75    3.70
   3  12   2    9.38    4.45
  -3 -12  -2    9.06    3.85
  -3 -12  -3   10.94    3.77
   3  13 -16    5.61    4.40
   3  13 -15   43.16    5.08
  -3 -13  15   37.89    4.90
   3  13 -14   43.52    5.22
  -3 -13  14   44.33    5.05
  -3 -13  13   26.86    4.82
   3  13 -13   21.29    4.95
   3  13 -12    2.38    4.62
  -3 -13  12    8.72    4.49
  -3 -13  11   -2.61    4.28
   3  13 -11    3.39    4.71
   3  13 -10   -2.49    4.77
  -3 -13  10   12.62    4.49
  -3 -13   9  147.98    7.10
  -3 -13   8  170.90    7.59
   3  13  -7   17.44    5.08
   3  13  -6   -1.59    4.89
   3  13  -5    5.78    4.85
   3  13  -4    2.26    4.80
  -3 -13   4   -4.19    4.35
  -3 -13   3   13.38    4.53
   3  13  -3   14.62    5.15
  -3 -13   2   18.11    4.58
   3  13  -2    9.90    5.05
  -3 -13   1   69.76    5.32
   3  13  -1   46.00    5.76
   3  13   0   50.25    5.73
  -3 -13   0   61.60    5.13
   3  13   1   -0.61    4.82
  -3 -13  -1    0.84    4.12
  -3 -13  -2   -1.29    4.11
   3  14 -16    5.67    4.53
   3  14 -15    3.71    4.69
  -3 -14  15    4.54    4.69
  -3 -14  14    2.32    4.81
   3  14 -14   20.93    5.14
   3  14 -13   22.69    5.40
  -3 -14  13   25.61    5.13
   3  14 -12   22.78    5.52
  -3 -14  12   31.48    5.27
  -3 -14  11   26.71    5.09
   3  14 -11   21.16    5.55
   3  14 -10   12.26    5.48
  -3 -14  10   18.35    5.00
  -3 -14   9    8.15    4.86
  -3 -14   8    8.29    4.84
   3  14  -7   12.09    5.57
   3  14  -6   41.89    6.01
  -3 -14   5   40.34    5.40
   3  14  -5   47.00    6.20
  -3 -14   4   18.38    4.88
   3  14  -4   14.74    5.48
   3  14  -3    2.45    5.44
  -3 -14   3   11.09    4.75
   3  14  -2    4.56    5.36
  -3 -14   2   -5.24    4.78
   3  14  -1    3.13    5.25
  -3 -14   1    4.63    4.60
   3  14   0    5.00    5.17
  -3 -14   0    2.11    4.42
  -3 -14  -1   10.82    4.51
   3  15 -13    8.01    5.59
  -3 -15  13    4.42    5.25
   3  15 -12    0.12    5.65
  -3 -15  12    3.27    5.06
   3  15 -11    3.72    5.70
  -3 -15  11   11.57    5.28
   3  15 -10    7.49    5.78
  -3 -15  10    8.24    5.27
  -3 -15   9   25.95    5.64
   3  15  -8   44.15    6.57
   3  15  -7   25.37    6.15
   3  15  -6   14.20    6.09
  -3 -15   6    7.96    5.41
   3  15  -5   11.79    6.12
  -3 -15   5   28.02    5.54
   3  15  -4   28.68    6.30
  -3 -15   4   37.32    5.67
  -3 -15   3   12.64    5.28
   4 -15   1   22.90    5.14
  -4  15  -1   35.76    6.78
  -4  15  -2   33.70    6.87
   4 -15   2   25.12    5.20
  -4  15  -3   -2.98    6.54
   4 -15   4   15.25    5.06
  -4  15  -4   20.11    6.55
   4 -15   5    3.71    4.78
   4 -15   6    1.59    4.89
  -4  15  -7    1.50    6.16
   4 -15   7   -4.82    4.95
  -4  15  -8   18.06    6.18
   4 -15   8    5.68    4.82
  -4  14   3   24.76    5.63
   4 -14  -3   13.97    4.48
  -4  14   2   44.90    6.23
   4 -14  -2   43.59    5.02
   4 -14  -1   26.22    4.82
  -4  14   1   20.90    6.07
  -4  14   0   34.27    6.35
   4 -14   0   32.47    4.96
  -4  14  -1   30.94    6.27
   4 -14   1   17.79    4.84
   4 -14   2    7.03    4.65
  -4  14  -2    9.78    6.10
  -4  14  -3   20.45    6.24
  -4  14  -4   64.60    6.98
   4 -14   5   38.65    5.04
   4 -14   6   25.62    4.82
  -4  14  -6   21.27    6.27
  -4  14  -7   41.16    6.28
   4 -14   7   32.23    4.97
  -4  14  -8    5.00    5.55
   4 -14   8    6.67    4.59
  -4  14  -9    3.25    5.42
   4 -14   9    1.54    4.48
  -4  14 -10   10.91    5.39
   4 -14  10    4.79    4.49
  -4  14 -11   11.53    5.32
   4 -14  11    6.62    4.44
   4 -14  12   14.45    4.60
  -4  14 -12   21.63    5.42
  -4  13   5   55.77    5.87
   4 -13  -5   42.93    4.59
  -4  13   4   24.75    5.45
   4 -13  -4   23.52    4.29
  -4  13   3    0.12    5.27
   4 -13  -3    6.22    4.10
  -4  13   2    6.25    5.35
   4 -13  -2    4.62    4.21
  -4  13   1   14.10    5.49
   4 -13  -1   -0.36    4.18
  -4  13   0   80.05    6.87
   4 -13   0   80.79    5.38
  -4  13  -1  168.01    8.25
   4 -13   1  141.18    6.78
  -4  13  -2  127.27    7.72
   4 -13   3   39.59    4.58
  -4  13  -3   41.87    6.13
   4 -13   4   10.33    4.25
  -4  13  -4    7.04    5.55
   4 -13   5    9.51    4.25
   4 -13   5   12.86    4.39
  -4  13  -6   43.65    5.98
   4 -13   6   42.43    4.94
   4 -13   6   40.18    4.73
  -4  13  -7   82.61    6.55
   4 -13   7   77.54    5.41
   4 -13   8   44.85    4.74
  -4  13  -8   46.07    5.85
   4 -13   9   54.30    5.42
  -4  13  -9   53.84    5.74
   4 -13   9   47.12    4.86
   4 -13  10   21.00    4.38
   4 -13  10    9.54    4.86
  -4  13 -10   17.29    5.05
   4 -13  11   12.68    4.26
   4 -13  11   11.12    5.00
  -4  13 -11    0.11    4.83
  -4  13 -12   -0.73    4.79
   4 -13  12    4.55    4.05
   4 -12  -6   -3.11    3.53
   4 -12  -5   12.24    3.85
  -4  12   5    7.76    4.89
   4 -12  -4   74.21    4.81
  -4  12   4   64.63    5.86
  -4  12   3   67.64    5.96
   4 -12  -3   60.41    4.65
   4 -12  -2   28.04    4.19
  -4  12   2   41.81    5.30
   4 -12  -1   27.17    4.25
  -4  12   1   32.93    5.34
  -4  12   0    3.26    4.92
   4 -12   0    0.60    3.76
   4 -12   1    8.79    3.91
   4 -12   1   12.62    3.67
  -4  12  -1   14.67    5.06
   4 -12   2    2.63    3.65
  -4  12  -2   -2.16    5.00
   4 -12   3  115.93    5.71
  -4  12  -3  118.03    6.92
   4 -12   4  116.22    5.70
   4 -12   4   97.76    5.58
   4 -12   5  109.49    5.77
   4 -12   5  106.82    5.58
  -4  12  -6   50.10    5.46
   4 -12   6   43.57    4.53
  -4  12  -7   -0.35    4.75
   4 -12   7    4.07    3.80
   4 -12   8   50.27    5.04
  -4  12  -8   47.57    5.31
   4 -12   8   49.41    4.58
   4 -12   9   23.32    4.71
  -4  12  -9   22.68    4.78
   4 -12   9   20.50    4.09
  -4  12 -10    3.57    4.45
   4 -12  10    5.57    3.82
   4 -12  10   -0.38    4.48
   4 -12  11   18.93    4.84
   4 -12  11   18.15    4.03
  -4  12 -11   21.36    4.73
   4 -12  12   24.36    4.93
   4 -12  12   21.54    4.03
   4 -12  13    6.55    4.89
  -4  11   9   14.39    4.56
  -4  11   8   15.09    4.22
   4 -11  -7   21.64    3.47
  -4  11   7   23.90    4.18
  -4  11   6   -0.10    4.36
  -4  11   6    5.86    3.52
   4 -11  -6    4.44    3.37
   4 -11  -5    8.32    3.49
  -4  11   5    3.84    4.37
  -4  11   5    7.76    3.20
   4 -11  -4   12.37    3.55
  -4  11   4   16.90    4.59
  -4  11   4   15.28    2.96
   4 -11  -3    9.43    3.50
  -4  11   3   10.06    4.63
  -4  11   3    8.41    2.48
  -4  11   2   24.09    4.76
   4 -11  -2   22.82    3.73
  -4  11   2   19.26    2.24
  -4  11   1   96.57    6.05
   4 -11  -1  100.63    4.59
  -4  11   1   95.10    3.14
   4 -11  -1  102.64    5.22
  -4  11   0   87.57    5.97
   4 -11   0   93.18    4.58
   4 -11   0   81.74    4.95
   4 -11   1  251.36    7.99
  -4  11  -1  233.48    9.15
   4 -11   2   78.73    4.63
  -4  11  -2   81.36    5.82
   4 -11   3    1.44    3.38
  -4  11  -3   -0.11    4.29
   4 -11   4   -0.17    3.45
   4 -11   4    5.31    3.62
   4 -11   5   47.08    4.19
  -4  11  -5   39.74    4.88
   4 -11   6   91.12    5.01
  -4  11  -6  102.46    5.95
  -4  11  -7  149.23    6.82
   4 -11   7  131.14    6.00
   4 -11   8  123.56    6.03
  -4  11  -8  131.44    6.44
   4 -11   8  117.36    5.62
   4 -11   9  105.14    5.72
  -4  11  -9  100.43    5.77
   4 -11   9   92.21    5.01
  -4  11 -10    1.33    3.99
   4 -11  10   -3.92    4.37
   4 -11  10   -2.88    3.51
   4 -11  11    0.73    4.34
  -4  11 -11    6.12    4.11
   4 -11  11    0.85    3.45
   4 -11  12   19.69    4.71
   4 -11  12   15.80    3.67
   4 -11  13   41.25    5.09
   4 -11  15    5.34    5.11
  -4  10  10   20.57    4.81
  -4  10   9    9.13    4.38
   4 -10  -8    2.35    2.92
   4 -10  -8    2.08    3.33
  -4  10   8    2.51    3.95
  -4  10   7    3.64    3.58
   4 -10  -7    0.75    3.02
   4 -10  -6   19.13    3.28
  -4  10   6   15.72    4.20
  -4  10   6   17.77    3.53
   4 -10  -5   68.57    4.17
  -4  10   5   64.33    4.00
  -4  10   5   66.03    4.95
  -4  10   4   16.25    4.08
   4 -10  -4   18.52    3.36
  -4  10   4   17.24    2.79
  -4  10   3   45.19    2.98
  -4  10   3   47.35    4.69
  -4  10   2  129.95    6.28
   4 -10  -2  141.01    4.94
  -4  10   2  123.16    4.29
   4 -10  -2  130.11    5.48
   4 -10  -1   39.53    3.22
   4 -10  -1   31.70    3.63
  -4  10   1   34.43    4.49
  -4  10   1   34.26    1.93
   4 -10   0   49.44    3.43
  -4  10   0   42.41    4.50
   4 -10   0   43.07    3.72
   4 -10   1  312.98    9.35
  -4  10  -1  312.64   10.33
   4 -10   2  227.87    7.58
  -4  10  -2  231.40    8.42
   4 -10   3   99.09    4.80
   4 -10   3   87.33    4.68
  -4  10  -3   98.75    5.59
   4 -10   4   49.75    3.89
   4 -10   5   40.05    3.71
  -4  10  -5   49.27    4.50
   4 -10   6   30.36    3.50
  -4  10  -6   36.11    4.26
   4 -10   7   27.63    3.54
  -4  10  -7   32.38    4.22
   4 -10   7   31.05    4.00
  -4  10  -8  129.55    5.85
   4 -10   8  118.99    5.81
   4 -10   8  111.21    5.25
   4 -10   9  232.92    7.98
  -4  10  -9  224.71    7.93
   4 -10  10  110.59    5.79
  -4  10 -10  121.00    5.62
   4 -10  11   72.79    5.14
   4 -10  11   64.28    4.20
   4 -10  12   -0.34    4.19
   4 -10  12    1.46    3.19
   4 -10  13   10.27    4.43
   4 -10  14   20.13    5.08
   4 -10  14   34.20    4.64
   4 -10  15    4.96    4.80
   4  -9 -11   12.65    4.53
  -4   9  11    6.13    4.72
  -4   9  10    9.64    4.46
  -4   9   9   29.83    4.50
   4  -9  -9   32.89    3.37
   4  -9  -9   26.84    2.89
   4  -9  -8   11.86    3.22
  -4   9   8    6.40    3.79
   4  -9  -8    8.18    2.76
  -4   9   7   79.25    4.79
  -4   9   7   84.33    6.16
   4  -9  -7   82.31    4.04
  -4   9   6   15.18    3.79
   4  -9  -6   17.57    3.00
  -4   9   6   23.49    4.62
  -4   9   6   19.88    3.27
  -4   9   5   16.71    3.72
   4  -9  -5    9.58    2.95
  -4   9   5   16.01    4.29
  -4   9   5   11.57    2.78
  -4   9   4   74.76    4.69
  -4   9   4   72.03    5.26
  -4   9   4   70.94    3.61
   4  -9  -4   73.85    4.04
  -4   9   3   70.13    4.71
   4  -9  -3   81.17    3.53
  -4   9   3   74.37    3.37
   4  -9  -3   78.82    4.09
  -4   9   2   19.22    3.73
   4  -9  -2   17.04    2.59
  -4   9   2   14.66    3.65
  -4   9   2   16.56    1.85
   4  -9  -2   15.03    2.97
   4  -9  -1   17.68    2.98
   4  -9  -1   17.07    2.73
  -4   9   1   13.94    3.66
  -4   9   1   11.18    1.45
   4  -9   0   24.95    3.00
  -4   9   0   21.53    1.20
  -4   9   0   24.92    3.74
   4  -9   1  135.44    5.17
  -4   9  -1  132.85    5.90
   4  -9   2    0.79    2.79
  -4   9  -2   -5.38    3.42
   4  -9   3   23.58    3.08
   4  -9   4   62.92    3.79
   4  -9   5  158.86    5.91
  -4   9  -5  166.98    6.53
  -4   9  -6  223.24    7.65
   4  -9   6  210.14    7.35
   4  -9   6  208.68    7.08
   4  -9   7    8.51    3.00
   4  -9   7   11.58    3.45
  -4   9  -7    9.32    3.40
  -4   9  -8   10.12    3.41
   4  -9   8    3.93    2.90
   4  -9   8    8.48    3.46
   4  -9   9   33.82    3.35
   4  -9   9   27.70    4.06
  -4   9  -9   35.13    3.77
  -4   9 -10   11.91    3.48
   4  -9  10    9.61    3.01
   4  -9  10    6.59    3.80
   4  -9  11   94.66    5.32
   4  -9  11   84.40    4.29
   4  -9  12  106.13    4.73
   4  -9  12  113.80    5.45
   4  -9  13   22.43    4.35
   4  -9  13   21.35    4.60
   4  -9  14    1.35    4.33
   4  -9  14    6.29    4.16
   4  -8 -12   43.63    5.09
  -4   8  12   41.68    5.52
   4  -8 -11   42.32    4.84
  -4   8  11   44.28    5.14
  -4   8  10    7.58    5.07
  -4   8  10    3.79    4.13
   4  -8  -9   -1.10    2.69
  -4   8   9    1.25    4.66
  -4   8   9   -2.05    3.78
   4  -8  -9    1.39    2.35
   4  -8  -8    5.49    2.79
   4  -8  -8    1.50    2.45
  -4   8   8    5.34    4.49
  -4   8   8    2.97    3.39
  -4   8   7   60.24    5.15
   4  -8  -7   67.77    3.56
  -4   8   7   74.13    4.27
  -4   8   6   81.31    5.46
  -4   8   6   81.36    4.56
  -4   8   6   85.01    4.31
   4  -8  -6   87.10    3.97
   4  -8  -5  157.78    5.46
  -4   8   5  144.87    5.97
  -4   8   5  150.41    5.47
  -4   8   5  150.10    6.54
   4  -8  -4   29.75    2.38
   4  -8  -4   28.66    2.93
  -4   8   4   26.91    3.78
  -4   8   4   23.88    2.49
  -4   8   4   22.71    3.40
   4  -8  -3    0.06    2.44
  -4   8   3   -1.69    3.08
   4  -8  -3    2.83    2.13
  -4   8   3    1.99    1.81
  -4   8   2   28.28    3.36
   4  -8  -2   26.02    2.58
   4  -8  -2   24.19    2.76
  -4   8   2   17.18    3.25
   4  -8  -1    3.09    2.35
   4  -8  -1   -0.25    2.37
  -4   8   1    0.16    2.98
  -4   8   1    2.15    1.20
  -4   8   0    8.58    2.96
   4  -8   0    7.29    2.43
  -4   8   0    9.58    2.76
  -4   8   0    6.60    0.89
   4  -8   1    7.04    2.45
  -4   8  -1    4.62    3.00
   4  -8   2  195.54    6.45
  -4   8  -2  200.40    6.97
   4  -8   2  195.44    6.42
   4  -8   3  454.22   12.46
   4  -8   4  351.54   10.27
  -4   8  -4  378.95   10.86
  -4   8  -5   29.36    3.36
   4  -8   5   29.78    2.89
  -4   8  -6  100.72    4.66
   4  -8   6   89.86    4.46
   4  -8   6   93.07    4.21
   4  -8   7   25.18    2.91
   4  -8   7   30.42    3.51
  -4   8  -7   30.16    3.41
   4  -8   8  299.49    9.11
  -4   8  -8  300.41    8.95
   4  -8   8  273.79    8.52
   4  -8   9  113.97    5.22
  -4   8  -9  111.71    4.90
   4  -8   9  100.41    4.48
   4  -8  10   42.27    4.06
   4  -8  10   44.71    3.28
   4  -8  11   19.52    2.81
   4  -8  11   27.66    4.01
   4  -8  12   10.84    3.84
   4  -8  12    6.86    3.84
   4  -8  13   25.08    4.07
   4  -8  13   23.63    4.23
   4  -8  14   28.16    4.41
   4  -8  14   21.82    4.21
   4  -7 -13    6.24    4.44
  -4   7  13    1.74    4.98
  -4   7  12    7.98    5.12
  -4   7  12   14.68    4.85
  -4   7  11   71.86    5.87
  -4   7  11   61.58    5.39
   4  -7 -10  127.85    4.43
  -4   7  10  125.36    6.79
  -4   7  10  127.28    6.15
  -4   7   9   86.17    5.84
   4  -7  -9   87.21    3.92
   4  -7  -9   88.53    3.56
  -4   7   9   93.05    5.11
   4  -7  -8   72.52    3.64
  -4   7   8   66.24    5.24
   4  -7  -8   63.97    3.26
  -4   7   8   63.88    4.30
   4  -7  -7    4.12    2.30
  -4   7   7    1.95    3.84
  -4   7   7    1.65    2.82
   4  -7  -6   20.90    2.51
  -4   7   6   17.73    3.05
  -4   7   6   19.08    3.72
  -4   7   6   20.12    2.79
   4  -7  -5   92.29    3.20
  -4   7   5   84.26    4.31
  -4   7   5   87.20    4.82
  -4   7   5   83.69    3.85
   4  -7  -5   89.07    3.77
   4  -7  -4    5.21    2.26
  -4   7   4    3.43    2.71
  -4   7   4    0.83    2.95
  -4   7   4    2.45    1.89
   4  -7  -4    3.09    1.80
   4  -7  -3  341.28    9.59
  -4   7   3  340.96    9.17
   4  -7  -3  335.63    9.22
  -4   7   3  346.60    9.98
   4  -7  -2  341.36    9.71
  -4   7   2  361.65   10.16
   4  -7  -2  345.00    9.45
  -4   7   2  340.97    9.03
  -4   7   1   82.55    4.03
   4  -7  -1   76.26    3.41
  -4   7   1   78.82    2.55
  -4   7   0   20.79    2.63
  -4   7   0   19.57    2.80
  -4   7  -1    0.32    2.18
  -4   7  -1   -0.15    2.44
   4  -7   2   21.32    2.51
   4  -7   3   10.11    2.36
   4  -7   4  340.21    9.75
  -4   7  -4  350.81   10.06
   4  -7   5  344.93    9.77
  -4   7  -5  352.06   10.12
   4  -7   6  138.99    4.94
   4  -7   6  133.22    5.24
  -4   7  -6  146.60    5.35
   4  -7   7    0.11    2.31
  -4   7  -7   -0.73    2.64
   4  -7   7   -2.22    2.75
   4  -7   8   30.04    3.39
   4  -7   8   31.43    2.77
   4  -7   8   27.15    1.66
  -4   7  -8   31.18    3.04
   4  -7   9   15.98    3.37
   4  -7   9   19.09    2.55
   4  -7   9   13.64    1.71
   4  -7  10  107.92    5.04
   4  -7  10  102.94    4.11
   4  -7  10  100.67    4.57
   4  -7  10   95.62    3.70
   4  -7  11   68.18    4.42
   4  -7  11   67.83    3.77
   4  -7  11   59.53    3.25
   4  -7  11   57.66    3.03
   4  -7  12   53.68    4.27
   4  -7  12   45.53    4.21
   4  -7  13   75.58    4.65
   4  -7  13   75.38    4.88
   4  -7  14   14.11    3.73
   4  -7  14   21.27    4.08
  -4   6  14   58.22    5.95
  -4   6  13   88.65    6.32
  -4   6  13   83.72    6.28
  -4   6  12    9.31    4.78
  -4   6  12   14.88    4.53
  -4   6  11   15.19    4.74
  -4   6  11   18.80    4.20
  -4   6  10    8.20    4.21
   4  -6 -10    1.85    1.81
   4  -6 -10    6.21    2.10
  -4   6  10    3.80    3.61
  -4   6   9   78.41    4.61
   4  -6  -9   67.64    3.04
   4  -6  -9   72.30    3.32
  -4   6   9   67.11    5.10
   4  -6  -8  317.67    8.86
  -4   6   8  291.91   10.09
  -4   6   8  323.35    9.69
   4  -6  -8  313.17    8.58
   4  -6  -7  117.19    4.14
  -4   6   7  113.41    5.48
  -4   6   7  115.08    4.81
   4  -6  -6   39.01    2.61
   4  -6  -6   42.13    1.95
  -4   6   6   33.55    3.70
  -4   6   6   38.85    2.92
   4  -6  -5   27.65    2.40
   4  -6  -5   27.81    1.93
  -4   6   5   26.65    2.80
  -4   6   5   30.49    2.43
  -4   6   5   20.28    3.10
   4  -6  -4  185.11    5.64
   4  -6  -4  173.31    5.15
  -4   6   4  171.34    5.83
  -4   6   4  172.37    6.32
  -4   6   4  170.03    5.36
   4  -6  -3   -0.56    1.96
  -4   6   3   -0.69    2.22
  -4   6   2  103.50    4.16
  -4   6   2   99.18    3.18
  -4   6   1  314.77    9.08
  -4   6   1  313.05    8.00
  -4   6   0  587.36   15.35
  -4   6   0  568.09   15.22
  -4   6  -1   36.27    2.73
  -4   6  -1   27.94    2.42
  -4   6  -2   17.49    2.02
  -4   6  -4    5.03    2.20
  -4   6  -5  135.43    4.87
   4  -6   5  130.75    4.59
   4  -6   6    3.53    0.99
   4  -6   6    2.66    2.08
  -4   6  -6    2.97    2.40
   4  -6   7  113.50    4.17
   4  -6   7  111.55    3.40
   4  -6   8  428.50   11.20
   4  -6   8  444.40   11.63
   4  -6   9   53.87    3.27
   4  -6   9   45.70    3.53
   4  -6   9   46.63    2.52
   4  -6   9   48.40    2.84
   4  -6  10   16.33    2.23
   4  -6  10   17.01    2.34
   4  -6  10   14.62    3.26
   4  -6  10   13.92    2.62
   4  -6  10   17.67    2.26
   4  -6  11    9.27    2.10
   4  -6  11    9.90    2.23
   4  -6  11   16.52    3.41
   4  -6  11    8.99    3.12
   4  -6  11    6.39    2.41
   4  -6  11   10.33    2.45
   4  -6  12   22.23    3.52
   4  -6  12   15.38    3.43
   4  -6  12   19.59    2.88
   4  -6  13   22.79    3.76
   4  -6  13   31.29    3.63
   4  -6  13   23.23    3.29
   4  -5 -15    7.13    4.49
  -4   5  15    2.02    5.15
   4  -5 -14   13.35    4.27
  -4   5  14    8.55    4.85
  -4   5  14    7.64    4.96
  -4   5  13   37.48    5.09
   4  -5 -13   35.37    4.37
  -4   5  13   38.16    5.11
  -4   5  12   96.55    5.81
   4  -5 -12   99.69    5.25
  -4   5  12   94.66    6.02
   4  -5 -11   77.37    2.77
  -4   5  11   91.11    5.60
  -4   5  11   92.70    5.18
  -4   5  10   68.59    5.02
   4  -5 -10   71.63    2.78
   4  -5 -10   77.00    3.07
  -4   5  10   72.98    4.69
   4  -5  -9   58.41    2.87
  -4   5   9   56.80    4.60
  -4   5   9   62.06    4.13
   4  -5  -9   61.55    2.71
   4  -5  -8   54.10    2.78
  -4   5   8   48.86    3.55
  -4   5   8   56.04    4.14
   4  -5  -8   50.81    2.58
  -4   5   7   18.40    3.28
   4  -5  -7   17.54    2.09
   4  -5  -7   19.00    2.16
  -4   5   7   17.83    2.55
   4  -5  -7   17.89    1.27
   4  -5  -6  131.10    4.43
   4  -5  -6  138.37    3.87
  -4   5   6  132.98    5.40
  -4   5   6  125.45    4.73
   4  -5  -5  305.52    8.00
  -4   5   5  314.52    9.22
  -4   5   5  307.25    8.55
  -4   5   5  292.42    8.62
  -4   5   4  842.40   21.55
  -4   5   4  827.77   21.14
  -4   5   4  827.43   20.87
  -4   5   3   80.01    3.44
  -4   5   3   79.45    2.83
  -4   5   2  128.27    4.51
  -4   5   2  127.90    3.76
  -4   5   1    2.76    1.85
  -4   5   1    1.70    0.83
  -4   5   0   60.94    2.93
  -4   5   0   55.25    2.77
  -4   5  -1  141.55    4.72
  -4   5  -1  135.47    4.49
  -4   5  -2  330.85    8.92
  -4   5  -3  405.27   10.60
  -4   5  -3  406.74   11.02
  -4   5  -4    1.82    1.85
   4  -5   4    3.67    0.69
   4  -5   5   76.30    2.39
  -4   5  -5   86.21    3.52
   4  -5   6  295.69    7.69
   4  -5   7   89.02    3.45
   4  -5   7   83.85    3.00
   4  -5   8   27.50    2.29
   4  -5   8   30.16    2.59
   4  -5   8   30.33    2.12
   4  -5   9  168.53    5.31
   4  -5   9  161.04    5.09
   4  -5   9  162.38    4.96
   4  -5   9  152.72    5.12
   4  -5  10  159.67    5.44
   4  -5  10  172.66    5.27
   4  -5  10  159.04    4.92
   4  -5  10  172.32    5.89
   4  -5  10  155.99    5.81
   4  -5  10  162.34    5.17
   4  -5  11  136.65    5.27
   4  -5  11  126.02    4.93
   4  -5  11  125.04    5.21
   4  -5  11  127.09    4.40
   4  -5  12   18.39    3.28
   4  -5  12   21.03    2.46
   4  -5  12   22.81    3.31
   4  -5  12   23.17    3.16
   4  -5  13   11.66    3.41
   4  -5  13   12.00    3.21
   4  -5  13   16.45    3.38
   4  -5  14   -2.57    3.49
  -4   4  16   25.47    5.69
  -4   4  15   71.71    6.28
  -4   4  14    6.78    4.60
  -4   4  14   -4.64    4.56
  -4   4  13   -0.21    4.36
  -4   4  13   -1.23    4.14
  -4   4  12    9.65    4.23
  -4   4  12    3.29    3.86
   4  -4 -11    2.75    1.42
  -4   4  11    7.42    3.85
  -4   4  11   -0.41    3.42
   4  -4 -11    2.10    1.29
  -4   4  10   82.85    4.92
   4  -4 -10   85.32    2.92
  -4   4  10   87.54    4.71
   4  -4  -9  209.29    5.90
   4  -4  -9  219.06    5.79
   4  -4  -9  214.41    6.06
  -4   4   9  199.69    7.16
  -4   4   9  203.57    7.47
   4  -4  -9  213.47    5.91
   4  -4  -8  439.31   11.33
   4  -4  -8  443.70   11.44
   4  -4  -8  440.48   11.27
   4  -4  -8  437.26   11.16
  -4   4   8  425.58   12.49
  -4   4   8  425.77   12.25
   4  -4  -7  259.67    6.59
   4  -4  -7  264.81    7.08
   4  -4  -7  264.47    7.29
  -4   4   7  260.80    8.19
  -4   4   7  248.21    7.73
   4  -4  -7  253.40    6.99
   4  -4  -6  192.91    5.82
  -4   4   6  194.27    6.47
   4  -4  -6  204.62    5.62
  -4   4   6  187.98    6.06
   4  -4  -6  196.31    5.57
   4  -4  -5    0.67    1.42
   4  -4  -5    0.15    1.31
  -4   4   5    3.21    2.00
  -4   4   5    3.28    1.57
   4  -4  -4  535.79   13.82
   4  -4  -4  554.46   13.93
   4  -4  -3  420.61   11.15
   4  -4  -3  453.01   11.28
  -4   4   3  428.06   11.46
  -4   4   3  429.32   11.08
   4  -4  -2  321.39    8.46
   4  -4  -2  324.39    8.55
  -4   4   2  309.17    8.71
  -4   4   2  315.59    8.19
  -4   4   1   70.99    2.82
  -4   4   0  796.86   19.74
   4  -4   0  780.87   18.98
   4  -4   1  331.92    8.96
   4  -4   1  351.72    9.12
  -4   4  -1  338.12    9.01
   4  -4   1  338.02    8.30
   4  -4   2   27.02    1.81
   4  -4   2   28.02    1.79
  -4   4  -2   25.81    1.65
   4  -4   3   71.58    2.75
  -4   4  -3   71.78    2.54
   4  -4   3   74.41    2.83
   4  -4   4  424.28   11.31
   4  -4   4  453.85   11.48
   4  -4   5  538.89   13.91
   4  -4   5  553.96   14.05
   4  -4   6   55.30    2.47
   4  -4   6   49.40    2.39
   4  -4   6   55.78    2.75
   4  -4   7    1.41    1.83
   4  -4   7    2.06    1.46
   4  -4   7    3.31    1.56
   4  -4   8   57.19    2.59
   4  -4   8   50.93    2.70
   4  -4   8   57.09    2.44
   4  -4   8   54.37    2.39
   4  -4   8   49.25    2.94
   4  -4   8   51.54    2.72
   4  -4   9   96.46    3.57
   4  -4   9   97.97    4.04
   4  -4   9  101.62    3.92
   4  -4   9  100.30    3.35
   4  -4   9   88.08    3.64
   4  -4  10    2.61    1.57
   4  -4  10    0.88    2.73
   4  -4  10    2.00    1.63
   4  -4  10    0.57    2.10
   4  -4  10    3.48    2.48
   4  -4  10    2.11    2.43
   4  -4  11   34.44    3.30
   4  -4  11   35.07    3.21
   4  -4  11   37.36    3.28
   4  -4  11   32.55    2.66
   4  -4  12   71.69    3.84
   4  -4  12   65.01    4.11
   4  -4  12   60.60    3.98
   4  -4  12   62.05    3.34
   4  -4  13  112.70    5.35
   4  -4  13  100.27    5.01
   4  -4  14   13.53    3.86
   4  -4  15   -1.80    4.09
  -4   3  15   33.64    4.86
  -4   3  14   11.77    4.35
  -4   3  13   29.05    4.44
  -4   3  13   31.32    4.63
  -4   3  12   99.84    5.44
  -4   3  12   98.08    5.47
   4  -3 -11  105.72    3.18
  -4   3  11  109.02    5.37
  -4   3  11  112.68    5.44
   4  -3 -11  110.42    3.14
   4  -3 -10   68.73    2.46
   4  -3 -10   70.87    2.42
   4  -3 -10   74.78    2.60
  -4   3  10   75.15    4.33
  -4   3  10   65.61    4.17
   4  -3 -10   71.34    2.52
   4  -3  -9    8.19    1.55
   4  -3  -9    7.92    1.39
  -4   3   9    4.31    2.67
  -4   3   9    6.20    2.62
   4  -3  -8  116.88    3.11
  -4   3   8  122.92    4.90
  -4   3   8  126.78    4.74
   4  -3  -8  128.68    3.71
   4  -3  -7   58.98    2.39
  -4   3   7   62.00    3.07
   4  -3  -6  495.64   12.57
  -4   3   6  496.30   13.12
  -4   3   5  555.52   13.88
   4  -3  -5  554.03   13.66
  -4   3   4  709.66   17.30
   4  -3  -4  678.48   17.06
  -4   3   4  665.20   17.16
  -4   3   3   26.78    1.71
   4  -3  -3   28.30    1.70
  -4   3   3   28.68    1.54
  -4   3   2    0.60    1.09
   4  -3  -2    0.54    0.72
  -4   3   2    0.18    0.86
   4  -3  -1  865.55   21.05
   4  -3   0  308.72    7.56
  -4   3   0  311.27    8.14
   4  -3   0  284.93    7.99
  -4   3   0  293.24    7.99
   4  -3   1  134.74    4.01
  -4   3  -1  127.04    3.86
  -4   3  -2  434.12   11.07
   4  -3   2  419.91   10.94
  -4   3  -2  422.49   10.76
   4  -3   3  356.26    9.29
  -4   3  -3  359.36    9.34
   4  -3   3  347.86    9.22
  -4   3  -3  349.93    8.91
   4  -3   4   77.91    2.84
  -4   3  -4   83.01    2.91
   4  -3   5    2.91    1.39
   4  -3   5    2.91    1.49
   4  -3   5    2.16    1.27
   4  -3   6   37.09    2.01
   4  -3   6   39.52    1.97
   4  -3   6   37.88    2.21
   4  -3   7  282.58    7.49
   4  -3   7  269.89    7.70
   4  -3   7  275.20    7.64
   4  -3   7  292.02    7.45
   4  -3   7  273.24    7.78
   4  -3   8    3.56    1.92
   4  -3   8    5.41    1.92
   4  -3   8    7.58    1.61
   4  -3   8    6.28    1.45
   4  -3   8    6.53    1.61
   4  -3   8    6.62    1.33
   4  -3   9   19.48    2.36
   4  -3   9   20.29    2.28
   4  -3   9   20.34    1.68
   4  -3   9   20.23    1.65
   4  -3  10   62.47    3.41
   4  -3  10   63.45    3.13
   4  -3  11   78.80    3.65
   4  -3  11   83.05    4.31
   4  -3  11   81.02    4.04
   4  -3  11   91.87    3.95
   4  -3  12   37.40    3.84
   4  -3  12   31.35    3.36
   4  -3  12   33.08    3.00
   4  -3  13    4.42    3.58
   4  -3  14    2.50    3.95
   4  -3  15   43.13    4.98
   4  -3  16   16.25    4.85
   4  -2 -17   18.87    4.86
  -4   2  17   19.91    5.69
   4  -2 -16   54.45    5.19
   4  -2 -15    5.40    3.93
  -4   2  15    3.96    4.23
   4  -2 -14   49.22    4.20
  -4   2  14   52.40    4.66
  -4   2  13   24.04    3.91
  -4   2  12   89.05    4.84
  -4   2  11  149.55    5.83
   4  -2 -11  139.60    3.84
   4  -2 -11  142.53    3.83
   4  -2 -11  139.20    3.85
   4  -2 -11  150.68    3.88
   4  -2 -10   12.56    1.33
   4  -2 -10   12.89    1.29
   4  -2  -9  121.38    3.51
   4  -2  -9  118.87    3.60
   4  -2  -9  115.55    3.54
   4  -2  -8  195.79    5.45
   4  -2  -8  206.61    5.46
   4  -2  -8  197.55    5.55
  -4   2   7  198.59    5.63
   4  -2  -7  198.68    5.44
   4  -2  -7  197.96    5.46
   4  -2  -7  203.77    5.57
  -4   2   7  193.16    6.14
   4  -2  -6    7.18    1.29
  -4   2   6    5.41    1.34
   4  -2  -6    8.61    1.08
   4  -2  -6    7.23    1.24
  -4   2   6    7.53    1.59
  -4   2   5  205.71    5.77
   4  -2  -5  204.83    5.59
   4  -2  -5  194.96    5.68
   4  -2  -5  211.44    5.85
   4  -2  -5  207.23    5.63
   4  -2  -4  419.76   10.54
   4  -2  -4  414.95   10.65
  -4   2   4  420.33   10.68
   4  -2  -4  424.23   10.55
   4  -2  -4  387.62   10.44
  -4   2   4  408.83   10.67
   4  -2  -3  921.23   22.37
  -4   2   3  922.23   22.53
   4  -2  -3  928.78   22.40
  -4   2   3  905.25   22.40
   4  -2  -3  874.14   22.20
  -4   2   2 1476.60   35.64
   4  -2  -2 1445.52   35.29
   4  -2  -1 1143.69   27.79
   4  -2   0    9.10    1.09
   4  -2   0    9.84    1.24
   4  -2   0    8.89    1.23
   4  -2   1  156.48    4.55
   4  -2   1  158.82    4.67
   4  -2   1  160.54    4.56
  -4   2  -2  181.78    5.07
   4  -2   2  173.41    5.11
   4  -2   2  176.15    4.99
   4  -2   2  174.76    4.99
  -4   2  -2  168.31    4.66
   4  -2   2  191.26    4.96
  -4   2  -3  145.82    2.72
   4  -2   3  142.15    3.33
  -4   2  -3  144.97    3.39
   4  -2   3  139.21    3.28
   4  -2   3  135.78    3.43
   4  -2   4  210.57    6.01
  -4   2  -4  224.11    5.99
   4  -2   4  213.63    5.89
   4  -2   4  208.39    5.90
   4  -2   4  217.28    5.98
  -4   2  -5  680.65   16.93
   4  -2   5  680.76   16.88
   4  -2   5  678.39   17.00
   4  -2   5  672.39   16.86
   4  -2   5  670.46   16.86
   4  -2   6  226.26    6.55
   4  -2   6  228.05    6.40
   4  -2   6  240.06    6.31
   4  -2   6  235.83    6.26
   4  -2   6  230.08    6.38
   4  -2   7  104.33    3.20
   4  -2   7   99.76    3.10
   4  -2   7   91.31    3.18
   4  -2   7   96.46    3.45
   4  -2   7  101.68    3.62
   4  -2   8    8.84    1.92
   4  -2   8    6.86    1.99
   4  -2   8    6.27    1.32
   4  -2   8    5.07    1.23
   4  -2   8    6.10    1.33
   4  -2   9   73.20    3.31
   4  -2   9   76.52    2.31
   4  -2   9   67.56    3.27
   4  -2   9   63.15    2.21
   4  -2  10   15.75    2.48
   4  -2  10   11.01    2.48
   4  -2  11    4.94    2.48
   4  -2  11    4.82    2.57
   4  -2  12  126.45    5.02
   4  -2  12  147.63    6.09
   4  -2  13  110.63    5.67
   4  -2  13   86.00    4.36
   4  -2  14   20.32    4.43
   4  -2  15   -1.72    4.67
   4  -1 -17    2.26    4.43
  -4   1  17   -8.36    5.36
   4  -1 -16   16.75    4.36
  -4   1  16   19.80    5.13
   4  -1 -15   14.61    3.85
  -4   1  15   14.10    4.01
  -4   1  15   12.69    4.57
   4  -1 -14   63.35    4.40
  -4   1  14   73.43    4.70
  -4   1  14   75.94    5.36
  -4   1  13   47.66    4.45
  -4   1  13   45.93    4.04
   4  -1 -13   46.35    3.60
   4  -1 -12   94.08    4.33
  -4   1  12   92.82    5.11
   4  -1 -11    3.76    0.98
   4  -1 -11    4.14    2.25
   4  -1 -11    3.89    0.96
   4  -1 -11    4.43    1.05
   4  -1 -10   24.25    2.33
   4  -1 -10   29.00    1.42
   4  -1 -10   28.51    1.45
   4  -1 -10   26.95    1.51
   4  -1  -9   52.20    2.63
   4  -1  -9   47.85    1.97
  -4   1   9   49.39    2.13
   4  -1  -9   53.41    1.99
   4  -1  -8   63.35    2.39
  -4   1   8   72.19    2.60
   4  -1  -8   69.30    2.41
  -4   1   7  234.20    6.41
   4  -1  -7  240.85    6.24
   4  -1  -7  227.68    6.24
   4  -1  -7  235.62    6.30
   4  -1  -6  329.02    8.56
  -4   1   6  318.24    8.40
   4  -1  -6  326.77    8.23
   4  -1  -6  304.88    8.29
   4  -1  -6  319.71    8.26
   4  -1  -6  311.59    8.37
  -4   1   5  157.55    4.48
   4  -1  -5  156.12    4.31
   4  -1  -5  143.37    4.34
   4  -1  -5  152.00    4.39
   4  -1  -4   53.97    1.98
   4  -1  -4   54.98    2.07
  -4   1   4   54.78    2.12
   4  -1  -4   52.14    1.95
   4  -1  -4   48.81    2.00
  -4   1   3   18.93    1.30
   4  -1  -3   18.81    1.16
   4  -1  -3   20.39    1.21
  -4   1   2  362.82    9.46
   4  -1  -2  361.28    9.33
  -4   1   2  364.89    9.37
   4  -1  -2  363.82    9.25
   4  -1  -1 1342.04   32.78
  -4   1   1 1346.16   32.80
   4  -1   0 1715.41   41.78
   4  -1   0 1726.71   41.86
   4  -1   1 1316.40   30.90
  -4   1  -1 1233.11   31.11
   4  -1   1 1257.73   31.04
   4  -1   1 1257.67   31.12
  -4   1  -2   47.03    1.96
   4  -1   2   48.29    1.84
   4  -1   2   47.39    1.90
   4  -1   2   47.67    2.04
  -4   1  -3   22.37    1.41
   4  -1   3   22.25    1.37
   4  -1   3   22.85    1.54
   4  -1   3   23.94    1.51
   4  -1   4    7.95    1.33
   4  -1   4    8.45    1.21
  -4   1  -4    8.47    1.23
   4  -1   4    8.90    1.27
   4  -1   4    7.79    1.10
   4  -1   4    8.77    0.98
   4  -1   5  181.12    5.07
   4  -1   5  178.56    5.06
   4  -1   5  179.20    4.96
  -4   1  -5  186.17    5.09
   4  -1   5  177.81    5.31
  -4   1  -6  145.01    5.27
   4  -1   6  151.76    4.29
  -4   1  -6  154.32    4.42
   4  -1   6  155.86    4.39
   4  -1   6  163.56    4.45
   4  -1   6  156.34    4.84
   4  -1   6  150.11    4.49
   4  -1   7  301.06    7.29
   4  -1   7  271.95    7.18
   4  -1   7  266.31    7.14
  -4   1  -7  284.75    8.48
   4  -1   7  276.04    7.60
   4  -1   7  280.72    7.80
  -4   1  -8  175.74    6.45
   4  -1   8  181.26    4.78
   4  -1   8  187.66    5.68
  -4   1  -9   45.19    3.77
   4  -1   9   40.35    2.89
   4  -1  10   -1.04    2.49
  -4   1 -10    0.40    3.21
   4  -1  11    7.65    2.81
   4  -1  12   20.54    3.20
   4  -1  13    1.73    3.16
   4  -1  13    8.86    4.20
   4  -1  14   13.61    4.61
   4  -1  15   26.48    5.20
   4   0 -18   67.14    5.64
  -4   0  18   58.34    6.53
  -4   0  17   21.40    5.40
   4   0 -17   22.22    4.47
   4   0 -16   11.97    4.06
  -4   0  16   10.24    4.78
   4   0 -15   17.62    3.76
  -4   0  15   14.21    3.71
  -4   0  15   14.73    4.47
   4   0 -14   14.16    3.23
  -4   0  14    5.51    3.88
   4   0 -13   50.67    3.66
  -4   0  13   64.13    4.58
   4   0 -12   93.64    3.82
   4   0 -12   56.01    1.73
   4   0 -12   72.70    1.77
   4   0 -12   60.05    1.77
  -4   0  12   94.44    4.60
   4   0 -11  190.22    5.71
   4   0 -11  154.77    4.50
  -4   0  11  149.52    4.66
   4   0 -11  189.06    4.50
   4   0 -11  178.05    4.45
  -4   0  11  197.30    6.54
   4   0 -11  157.94    4.69
   4   0 -10  233.71    6.27
   4   0 -10  229.87    5.99
   4   0 -10  248.43    7.05
  -4   0  10  242.73    7.68
  -4   0  10  245.30    6.42
   4   0 -10  246.71    6.15
   4   0 -10  248.35    6.19
   4   0 -10  226.78    6.23
   4   0  -9    6.96    1.12
   4   0  -9    8.73    1.26
   4   0  -9    7.86    1.64
   4   0  -9    8.44    1.13
  -4   0   9   10.81    1.37
  -4   0   9   10.94    2.28
   4   0  -9    8.25    1.10
   4   0  -8   29.97    1.84
   4   0  -8   28.39    1.50
   4   0  -8   28.29    1.44
  -4   0   8   31.26    1.67
  -4   0   8   28.67    2.29
   4   0  -7    0.10    1.05
  -4   0   7    1.65    1.11
  -4   0   7    1.48    1.07
   4   0  -7    0.97    1.02
   4   0  -6    4.76    1.20
   4   0  -6    4.93    1.05
  -4   0   6    6.01    1.04
  -4   0   6    3.56    1.07
   4   0  -6    4.52    1.10
  -4   0   5  371.95    9.70
   4   0  -5  385.71    9.56
  -4   0   5  375.74    9.63
   4   0  -5  371.06    9.65
   4   0  -5  371.20    9.60
   4   0  -5  370.18    9.69
  -4   0   4  177.97    4.95
  -4   0   4  177.51    5.02
   4   0  -4  175.29    4.86
   4   0  -4  176.60    4.89
   4   0  -4  184.78    4.96
   4   0  -3 1439.92   34.77
  -4   0   3 1436.02   34.85
  -4   0   3 1444.12   34.76
   4   0  -3 1398.55   34.59
   4   0  -2    3.30    0.61
   4   0  -1   58.16    2.07
   4   0  -1   57.67    2.11
   4   0  -1   58.99    1.70
  -4   0   0   62.82    2.27
   4   0   0   67.29    1.95
   4   0   0   61.18    2.18
   4   0   0   62.10    2.24
   4   0   1  605.59   14.09
  -4   0  -1  566.79   14.37
   4   0   1  544.80   14.23
   4   0   1  559.15   14.29
  -4   0  -1  562.00   14.26
   4   0   2  866.12   21.29
   4   0   2  879.67   21.43
  -4   0  -2  855.07   21.48
  -4   0  -2  873.06   21.39
  -4   0  -3  842.15    9.86
  -4   0  -3  815.78    9.44
  -4   0  -3  831.27    9.26
   4   0   3  820.79    9.28
   4   0   3  834.23    9.68
  -4   0  -4  113.99    3.92
   4   0   4  110.14    3.52
   4   0   4  108.78    3.35
  -4   0  -4  121.03    3.53
   4   0   4  116.40    3.44
   4   0   4  119.47    3.79
  -4   0  -5   67.62    3.09
   4   0   5   68.55    2.37
   4   0   5   67.74    2.32
  -4   0  -5   71.06    2.49
   4   0   5   72.53    2.88
   4   0   6   20.59    1.57
  -4   0  -6   17.61    1.42
   4   0   6   19.69    1.33
  -4   0  -6   20.58    2.37
   4   0   6   20.66    1.39
   4   0   6   22.21    2.07
   4   0   7   -0.60    1.92
   4   0   7    0.29    1.06
  -4   0  -7    3.17    2.41
   4   0   7    1.12    1.26
  -4   0  -7    0.71    1.10
   4   0   7    0.66    1.04
   4   0   8   10.96    2.35
  -4   0  -8    7.98    2.74
  -4   0  -9   40.92    3.64
   4   0   9   39.20    3.03
  -4   0 -10  172.05    6.71
   4   0  10  167.65    5.91
   4   0  11   61.24    3.89
  -4   0 -11   59.57    4.76
   4   0  12    8.00    3.28
  -4   0 -12    4.10    4.05
   4   0  13    4.89    3.37
  -4   0 -13    4.86    4.42
   4   0  13    0.67    4.32
   4   0  14   -1.09    4.59
   4   1 -18    0.35    4.36
  -4  -1  18   -4.64    5.25
   4   1 -17   24.96    4.40
  -4  -1  17   23.17    5.19
   4   1 -16  112.05    5.78
  -4  -1  16  118.65    6.77
   4   1 -15  122.98    5.68
  -4  -1  15  128.34    6.63
   4   1 -14   47.80    3.86
  -4  -1  14   41.67    4.53
   4   1 -13   23.57    2.98
  -4  -1  13   18.78    3.62
   4   1 -12    2.31    1.15
   4   1 -12    1.66    1.02
   4   1 -12    2.64    2.35
   4   1 -12    1.57    0.85
  -4  -1  12    1.71    1.16
   4   1 -12    1.89    0.90
  -4  -1  12    0.30    3.00
  -4  -1  12   -3.37    2.96
   4   1 -11    0.31    1.02
   4   1 -11    0.92    1.94
   4   1 -11    1.23    1.06
   4   1 -11    0.57    0.95
  -4  -1  11    0.84    1.23
  -4  -1  11    0.36    2.57
   4   1 -11    0.13    1.16
  -4  -1  11   -0.27    2.61
   4   1 -10   91.13    2.83
   4   1 -10   97.72    2.86
   4   1 -10   96.51    3.69
  -4  -1  10  101.06    3.18
   4   1 -10  102.12    2.92
   4   1 -10  102.28    2.97
  -4  -1  10   96.36    4.33
   4   1  -9  288.12    8.11
   4   1  -9  286.51    7.52
  -4  -1   9  302.25    7.89
   4   1  -9  302.82    7.61
   4   1  -9  307.36    7.67
  -4  -1   9  297.96    7.80
  -4  -1   9  298.11    8.77
   4   1  -8  458.36   11.81
   4   1  -8  464.79   11.48
  -4  -1   8  462.32   11.74
   4   1  -8  463.37   11.55
  -4  -1   8  456.18   11.66
  -4  -1   8  455.83   12.39
  -4  -1   8  435.93   12.41
   4   1  -7  214.29    5.89
   4   1  -7  218.38    5.74
  -4  -1   7  221.44    6.00
  -4  -1   7  216.26    5.91
   4   1  -7  220.52    5.81
   4   1  -7  209.12    6.14
   4   1  -6  134.77    3.86
   4   1  -6  137.61    3.89
  -4  -1   6  140.91    4.15
  -4  -1   6  137.86    4.06
   4   1  -6  142.36    3.96
   4   1  -5   27.21    1.46
  -4  -1   5   27.92    1.51
   4   1  -5   24.40    1.13
   4   1  -5   28.41    1.38
  -4  -1   5   26.19    1.51
   4   1  -5   25.90    1.42
   4   1  -5   26.48    1.49
  -4  -1   4   23.81    1.43
   4   1  -4   24.50    1.41
  -4  -1   4   22.07    1.35
   4   1  -4   24.40    1.27
  -4  -1   4   26.01    1.44
   4   1  -3   32.07    1.51
  -4  -1   3   33.57    1.58
  -4  -1   3   32.34    1.61
  -4  -1   3   30.16    1.37
  -4  -1   2  522.51   12.85
   4   1  -1 1364.60   32.15
   4   1  -1 1301.83   32.52
   4   1  -1 1281.46   32.58
  -4  -1   0  666.32   16.81
   4   1   0  687.97   16.43
   4   1   0  658.90   16.70
   4   1   0  673.42   16.77
   4   1   1    7.23    0.80
  -4  -1  -1    6.97    0.93
   4   1   1    7.53    1.04
  -4  -1  -1    6.38    1.10
  -4  -1  -1    6.70    1.09
   4   1   1    6.89    1.05
  -4  -1  -2  112.91    3.31
   4   1   2   98.67    3.02
   4   1   2  101.05    3.12
  -4  -1  -2   99.72    3.28
  -4  -1  -2  103.81    3.22
   4   1   2  101.62    3.16
   4   1   2  111.01    3.40
   4   1   3    6.47    1.46
   4   1   3    5.40    1.10
  -4  -1  -3    5.76    1.38
  -4  -1  -3    6.50    1.16
  -4  -1  -3    5.44    1.14
   4   1   3    4.45    1.11
  -4  -1  -3    6.55    0.95
   4   1   4  258.35    6.81
  -4  -1  -4  265.07    7.36
   4   1   4  253.65    6.74
  -4  -1  -4  258.89    6.92
  -4  -1  -4  253.65    6.54
  -4  -1  -4  265.19    6.85
   4   1   4  265.33    7.23
  -4  -1  -5  330.48    9.18
  -4  -1  -5  320.58    8.50
   4   1   5  322.01    8.34
  -4  -1  -5  321.67    8.42
   4   1   5  337.63    8.39
   4   1   5  334.48    8.96
  -4  -1  -6  184.80    6.18
  -4  -1  -6  182.80    5.18
   4   1   6  195.47    5.06
   4   1   6  192.24    5.84
  -4  -1  -7  161.65    5.54
   4   1   7  160.47    4.00
   4   1   7  150.23    3.92
   4   1   7  158.91    5.05
  -4  -1  -8   55.92    3.74
   4   1   8   57.06    3.35
   4   1   9    2.83    2.67
  -4  -1  -9    0.98    2.97
   4   1  10    1.10    3.01
  -4  -1 -10   -0.48    3.37
   4   1  11   41.67    3.86
  -4  -1 -11   49.76    4.48
   4   1  12   95.87    5.11
  -4  -1 -12  105.53    5.93
  -4  -1 -13    9.04    4.44
   4   1  13    9.21    4.67
  -4  -1 -14   14.20    4.84
   4   1  14   22.66    5.25
   4   2 -19   14.60    4.66
  -4  -2  19   24.36    5.73
   4   2 -18   42.42    4.96
  -4  -2  18   50.67    5.90
   4   2 -17   36.97    4.56
  -4  -2  17   35.42    5.31
   4   2 -16    4.21    3.65
  -4  -2  16    5.40    4.35
   4   2 -15   18.08    3.54
  -4  -2  15   23.71    4.41
   4   2 -14  114.08    5.10
  -4  -2  14  116.29    5.98
  -4  -2  14  119.15    5.98
   4   2 -13   85.89    3.90
  -4  -2  13   58.67    2.09
   4   2 -13   58.46    1.88
   4   2 -13   58.20    1.83
   4   2 -13   47.64    1.90
  -4  -2  13   92.48    4.70
  -4  -2  13   87.05    4.72
   4   2 -12   58.77    3.27
   4   2 -12   49.14    1.87
  -4  -2  12   49.65    2.12
   4   2 -12   51.68    1.80
  -4  -2  12   55.00    3.87
  -4  -2  12   64.25    3.95
   4   2 -12   42.93    1.72
   4   2 -11  110.73    4.00
   4   2 -11  100.20    2.97
  -4  -2  11  116.80    4.74
  -4  -2  11  104.92    3.26
  -4  -2  11  105.98    3.21
   4   2 -11   99.92    2.92
  -4  -2  11  107.00    4.63
   4   2 -10   52.47    2.67
  -4  -2  10   60.52    2.31
   4   2 -10   56.28    1.97
  -4  -2  10   58.93    2.22
  -4  -2  10   53.40    3.27
   4   2 -10   51.13    1.66
   4   2  -9   74.99    2.53
   4   2  -9   79.85    3.09
  -4  -2   9   84.44    2.96
   4   2  -9   91.91    2.69
   4   2  -9   79.50    2.34
   4   2  -9   90.51    2.77
  -4  -2   9   92.64    2.95
  -4  -2   9   87.26    3.74
   4   2  -8   -0.76    1.26
  -4  -2   8    0.03    1.21
   4   2  -8    3.70    1.13
  -4  -2   8    0.19    1.63
  -4  -2   8    0.07    1.20
   4   2  -8    2.58    1.06
   4   2  -7  512.85   13.83
   4   2  -7  563.18   13.78
  -4  -2   7  572.40   14.11
  -4  -2   7  559.24   13.96
   4   2  -7  561.36   13.86
  -4  -2   7  562.64   14.52
   4   2  -6  365.76    9.29
  -4  -2   6  366.83    9.60
   4   2  -6  366.82    9.23
   4   2  -6  380.36    9.38
   4   2  -6  348.36    9.52
  -4  -2   6  360.34    9.46
   4   2  -5  312.43    7.83
  -4  -2   5  311.55    8.37
   4   2  -5  311.18    8.04
  -4  -2   5  318.84    8.24
   4   2  -4   14.98    0.65
  -4  -2   4   15.14    1.27
  -4  -2   4   14.67    1.20
  -4  -2   3   17.86    1.12
  -4  -2   2    0.82    0.65
  -4  -2   1    8.40    0.56
   4   2  -1    6.38    1.06
   4   2  -1    8.48    1.07
  -4  -2   0  137.36    3.50
   4   2   0  122.92    3.69
  -4  -2   0  121.69    3.92
  -4  -2   0  124.51    3.81
   4   2   0  126.02    3.76
  -4  -2  -1   87.47    2.51
  -4  -2  -1   69.52    1.93
   4   2   1   75.69    2.51
  -4  -2  -1   74.09    2.69
   4   2   1   82.63    2.59
  -4  -2  -1   78.05    2.60
   4   2   2  211.82    5.83
  -4  -2  -2  214.93    6.05
  -4  -2  -2  214.19    5.92
  -4  -2  -2  225.82    6.02
   4   2   2  220.74    5.92
  -4  -2  -2  214.10    5.45
   4   2   2  232.89    6.20
  -4  -2  -3  422.84   10.91
   4   2   3  410.98   10.53
  -4  -2  -3  404.47   10.72
  -4  -2  -3  414.07   10.62
  -4  -2  -3  419.32   10.51
   4   2   3  419.71   10.59
   4   2   3  417.81   10.94
  -4  -2  -4  407.57   10.47
  -4  -2  -4  385.77   10.00
   4   2   4  389.50    9.79
  -4  -2  -4  387.22    9.90
  -4  -2  -4  374.30    9.78
   4   2   4  384.24    9.87
   4   2   4  381.49   10.33
   4   2   5   11.14    2.11
  -4  -2  -5    9.83    2.10
  -4  -2  -5   11.68    1.37
   4   2   5   11.16    1.26
  -4  -2  -5    9.77    1.36
  -4  -2  -6   89.04    3.83
  -4  -2  -6   79.12    2.76
   4   2   6   85.91    2.75
   4   2   6   83.73    2.63
  -4  -2  -6   74.54    2.71
   4   2   6   84.26    3.69
  -4  -2  -7  163.83    5.45
   4   2   7  151.44    3.86
   4   2   7  148.51    5.17
   4   2   8  105.35    4.71
  -4  -2  -8  119.08    5.03
   4   2   9   83.12    4.40
  -4  -2  -9   95.69    4.82
   4   2  10    7.03    3.35
  -4  -2 -10   -0.29    3.52
   4   2  11    1.37    3.46
  -4  -2 -11    2.91    3.84
  -4  -2 -12   -4.42    4.20
  -4  -2 -13    3.37    4.36
   4   2  13    4.34    4.85
   4   3 -19   -8.09    4.52
  -4  -3  19    4.44    5.41
   4   3 -18   17.56    4.41
  -4  -3  18   16.16    5.12
   4   3 -17   17.16    4.04
  -4  -3  17   14.12    4.77
   4   3 -16   68.04    4.74
  -4  -3  16   70.72    5.65
  -4  -3  16   75.57    5.67
   4   3 -15  260.26    8.81
  -4  -3  15  256.85    9.58
   4   3 -14   55.56    3.72
  -4  -3  14   58.14    4.53
  -4  -3  14   58.27    4.40
  -4  -3  13    9.51    3.21
   4   3 -13    7.36    1.19
   4   3 -13   11.40    2.69
  -4  -3  13    9.10    1.50
   4   3 -13    8.48    1.35
  -4  -3  13    7.72    3.14
   4   3 -12   46.08    1.76
   4   3 -12   39.86    2.95
   4   3 -12   35.84    2.07
  -4  -3  12   40.54    3.61
  -4  -3  12   39.90    2.13
  -4  -3  12   39.52    2.07
  -4  -3  12   45.33    3.66
   4   3 -11  140.86    3.63
  -4  -3  11  149.17    2.93
  -4  -3  11  150.96    4.58
  -4  -3  11  152.80    2.79
   4   3 -11  138.07    2.51
  -4  -3  10  115.13    4.65
   4   3 -10  110.13    3.44
   4   3 -10  108.46    3.98
  -4  -3  10  112.59    3.73
  -4  -3  10  116.93    3.62
   4   3  -9  386.85    8.78
   4   3  -9  379.02    9.17
  -4  -3   9  397.45    9.21
  -4  -3   9  410.86    9.06
  -4  -3   9  397.55    9.98
  -4  -3   8  459.22   11.72
   4   3  -8  448.60   11.70
  -4  -3   8  465.99   12.41
  -4  -3   7  518.38   12.58
   4   3  -7  472.53   12.36
   4   3  -6   39.16    1.56
  -4  -3   6   42.42    1.92
  -4  -3   6   41.33    2.10
  -4  -3   6   45.83    2.24
  -4  -3   5  283.46    7.53
  -4  -3   5  267.23    7.32
  -4  -3   4  586.51   14.47
   4   3  -4  575.77   14.01
   4   3  -3   90.76    2.79
  -4  -3   2    4.27    0.40
   4   3  -2   10.19    1.03
  -4  -3   1   23.22    0.99
  -4  -3   1   22.74    1.52
  -4  -3   0  401.89   10.55
  -4  -3   0  411.87   10.26
  -4  -3   0  417.08   10.72
  -4  -3  -1  400.77   10.52
  -4  -3  -1  415.95   10.40
   4   3   1  409.15   10.72
  -4  -3  -2   72.94    2.73
  -4  -3  -2   75.37    2.74
  -4  -3  -2   77.08    2.73
  -4  -3  -2   78.67    2.32
   4   3   2   76.00    3.04
  -4  -3  -3  207.64    5.90
  -4  -3  -3  199.73    5.79
   4   3   3  197.10    5.53
  -4  -3  -3  199.94    5.66
  -4  -3  -3  204.43    5.65
  -4  -3  -3  206.72    5.37
   4   3   3  207.67    6.14
  -4  -3  -4  370.80    9.91
   4   3   4  380.31    9.45
  -4  -3  -4  354.07    9.44
  -4  -3  -4  353.76    9.54
   4   3   4  356.54    9.30
  -4  -3  -4  359.31    9.41
  -4  -3  -4  371.88    9.26
   4   3   4  354.93   10.01
   4   3   5    3.81    1.33
   4   3   5    5.09    1.54
  -4  -3  -5    5.15    1.33
   4   3   5    3.96    2.27
  -4  -3  -5    6.07    2.07
  -4  -3  -5    4.82    1.48
  -4  -3  -5    4.77    1.41
   4   3   6  221.36    6.88
   4   3   6  223.22    5.87
  -4  -3  -6  205.13    5.91
  -4  -3  -6  203.33    5.85
   4   3   7   18.36    2.98
   4   3   7   11.77    1.53
  -4  -3  -7   21.50    2.90
  -4  -3  -7   10.72    1.40
   4   3   8    1.26    3.00
  -4  -3  -8    3.37    2.94
   4   3   9   23.84    3.65
  -4  -3  -9   27.90    3.71
   4   3  10   10.09    3.71
  -4  -3 -10   15.87    3.84
  -4  -3 -11   19.74    4.16
  -4  -3 -12   13.19    4.43
  -4  -3 -13   27.33    4.80
  -4  -4  19    6.10    5.37
   4   4 -18   -0.33    4.00
  -4  -4  18    9.39    5.06
  -4  -4  18   -2.31    4.94
   4   4 -17    7.67    3.89
  -4  -4  17   14.23    4.76
  -4  -4  17    1.90    4.55
   4   4 -16    6.01    3.51
  -4  -4  16   -0.92    4.12
  -4  -4  16    7.62    4.21
   4   4 -15   10.95    3.19
  -4  -4  15    4.89    3.83
  -4  -4  15    5.71    3.81
   4   4 -14  163.95    4.73
  -4  -4  14  183.87    7.28
   4   4 -14  194.27    6.45
  -4  -4  14  170.29    5.03
  -4  -4  14  199.79    7.32
  -4  -4  13  518.47   10.18
   4   4 -13  324.53    9.45
   4   4 -13  505.18   11.19
  -4  -4  13  528.73   12.22
   4   4 -13  300.36    9.37
  -4  -4  13  553.71   12.32
  -4  -4  12  335.48    8.61
  -4  -4  12  316.57    9.95
   4   4 -12  314.78    9.23
  -4  -4  12  329.71    8.75
   4   4 -12  304.84    8.32
   4   4 -12  329.41    8.43
   4   4 -11    7.20    1.36
  -4  -4  11    9.06    2.57
   4   4 -11    9.43    2.01
   4   4 -11    9.95    1.60
  -4  -4  11   11.26    1.66
   4   4 -10   13.78    1.66
   4   4 -10   13.81    1.88
  -4  -4  10   14.70    2.51
   4   4 -10   14.53    1.45
  -4  -4  10   14.25    1.67
  -4  -4  10   14.69    2.48
  -4  -4   9  343.19    8.91
   4   4  -9  311.65    9.00
  -4  -4   9  345.20    9.16
  -4  -4   9  326.62    9.72
   4   4  -9  347.44    8.78
  -4  -4   9  344.61    8.98
  -4  -4   8  345.49    8.43
  -4  -4   8  354.99    8.84
   4   4  -8  357.37    8.44
  -4  -4   8  347.15    8.63
  -4  -4   7   44.42    2.33
  -4  -4   7   42.29    1.74
  -4  -4   7   41.90    2.08
   4   4  -7   43.79    1.96
   4   4  -7   42.58    1.39
  -4  -4   6  138.09    3.96
  -4  -4   6  151.13    4.66
   4   4  -6  152.19    4.30
   4   4  -6  151.22    4.55
  -4  -4   6  139.68    4.40
   4   4  -6  152.38    3.92
  -4  -4   5  699.90   17.60
  -4  -4   5  751.57   18.35
  -4  -4   5  709.60   18.09
   4   4  -5  753.31   17.74
  -4  -4   4  440.35   11.03
   4   4  -4  481.08   11.37
  -4  -4   3   27.00    1.90
   4   4  -3   32.56    1.52
   4   4  -2  150.44    4.59
   4   4  -2  144.77    4.35
   4   4  -1  420.75   10.92
  -4  -4   1  410.24   10.97
  -4  -4   0  167.41    4.66
  -4  -4   0  169.13    4.93
  -4  -4   0  177.37    5.20
   4   4   0  169.54    4.87
  -4  -4  -1   51.38    2.09
  -4  -4  -1   51.60    2.45
   4   4   1   50.61    2.21
  -4  -4  -1   48.73    2.22
   4   4   1   51.19    2.60
  -4  -4  -2  234.24    6.41
  -4  -4  -2  230.73    6.46
   4   4   2  240.15    6.54
  -4  -4  -2  236.20    6.63
  -4  -4  -2  224.11    6.50
   4   4   2  229.85    6.33
   4   4   2  230.67    6.84
  -4  -4  -3   26.64    2.02
   4   4   3   27.84    2.00
  -4  -4  -3   27.05    1.81
  -4  -4  -3   25.87    2.08
   4   4   3   25.41    1.77
  -4  -4  -3   26.58    1.55
   4   4   3   26.58    2.47
  -4  -4  -4    0.28    1.25
   4   4   4   -0.03    1.42
   4   4   4    1.80    2.31
  -4  -4  -4    1.37    1.84
  -4  -4  -4    0.83    1.40
   4   4   4   -0.19    1.63
  -4  -4  -4    0.40    1.54
  -4  -4  -4    0.39    1.71
  -4  -4  -5    8.30    1.69
   4   4   5    6.06    2.57
  -4  -4  -5    9.25    2.19
  -4  -4  -5    9.47    1.58
   4   4   5    7.67    1.73
  -4  -4  -6   45.75    2.31
   4   4   6   44.65    2.37
  -4  -4  -6   48.96    3.29
  -4  -4  -6   49.36    2.37
  -4  -4  -7   99.62    4.37
   4   4   7   89.39    4.60
   4   4   8   92.41    4.96
  -4  -4  -8   95.57    4.83
  -4  -4  -9   40.27    4.07
   4   4   9   38.45    4.22
  -4  -4 -10   19.80    3.93
  -4  -4 -11   -2.27    3.96
  -4  -4 -12    1.85    4.23
  -4  -5  20   -0.16    5.44
  -4  -5  19   15.86    5.40
  -4  -5  19   19.10    5.51
  -4  -5  18    8.69    4.93
  -4  -5  18   15.87    4.98
  -4  -5  17   29.92    5.08
  -4  -5  17   33.62    4.98
  -4  -5  16   40.44    4.79
  -4  -5  16   31.48    4.66
  -4  -5  15   17.57    4.03
  -4  -5  15   17.76    4.15
   4   5 -15   22.23    1.63
  -4  -5  14    4.53    3.50
   4   5 -14    5.77    1.77
  -4  -5  14    4.83    1.92
  -4  -5  14    3.35    3.39
   4   5 -13    5.41    1.83
  -4  -5  13    5.34    1.96
  -4  -5  13    3.08    3.14
   4   5 -12   73.22    3.01
  -4  -5  12   81.73    4.36
  -4  -5  11  494.33   13.50
  -4  -5  11  482.56   12.54
   4   5 -11  471.20   12.22
  -4  -5  11  449.91   13.33
  -4  -5  10  465.25   12.23
   4   5 -10  458.53   11.93
  -4  -5   9   40.28    2.04
   4   5  -9   42.39    2.32
  -4  -5   9   43.34    2.65
  -4  -5   8    5.43    1.20
  -4  -5   8    5.33    1.83
   4   5  -8    5.14    1.71
   4   5  -7    1.55    0.77
  -4  -5   7    0.31    1.00
  -4  -5   7    0.10    1.74
   4   5  -7   -2.29    1.66
  -4  -5   6   30.32    1.40
  -4  -5   6   29.67    2.22
   4   5  -6   29.49    1.40
  -4  -5   5  263.13    6.90
  -4  -5   5  271.93    7.70
   4   5  -5  285.87    7.11
   4   5  -4  189.17    5.18
   4   5  -3  646.70   16.22
   4   5  -2  244.54    6.80
   4   5  -1   11.26    1.76
   4   5  -1   13.14    1.84
  -4  -5   1   11.88    1.88
   4   5   0   49.83    2.55
  -4  -5   0   51.84    2.64
  -4  -5  -1   36.37    1.93
   4   5   1   40.89    2.38
  -4  -5  -1   35.30    2.44
   4   5   2   68.83    3.39
  -4  -5  -2   72.41    2.85
  -4  -5  -2   67.10    3.03
   4   5   2   64.59    2.97
   4   5   3    7.74    2.41
  -4  -5  -3   11.30    1.90
  -4  -5  -3   10.27    2.02
   4   5   3   11.66    2.04
  -4  -5  -4  114.60    4.26
   4   5   4  115.77    4.03
   4   5   4  110.65    4.80
  -4  -5  -4  119.20    3.74
   4   5   5  130.12    5.41
  -4  -5  -5  138.80    4.84
  -4  -5  -5  132.47    4.34
   4   5   5  124.99    4.34
  -4  -5  -6   15.43    2.74
   4   5   6   12.85    2.10
   4   5   6   19.49    3.44
  -4  -5  -6   13.29    1.89
   4   5   7    4.40    3.49
  -4  -5  -7    0.53    2.98
  -4  -5  -7    1.71    1.63
   4   5   8    7.30    3.85
  -4  -5  -8   10.15    3.37
  -4  -5  -9   18.45    3.77
  -4  -5 -10   45.20    4.56
  -4  -5 -11   24.84    4.50
  -4  -6  20   -0.62    5.26
  -4  -6  19    6.63    5.20
  -4  -6  19   15.87    5.54
  -4  -6  18   -6.62    4.79
  -4  -6  18    2.15    4.87
  -4  -6  17   14.88    4.80
  -4  -6  17   17.41    4.73
  -4  -6  16   68.37    5.41
  -4  -6  16   59.76    5.26
  -4  -6  15   23.38    4.22
  -4  -6  15   20.42    2.33
  -4  -6  15   17.97    4.04
   4   6 -15   18.10    2.20
  -4  -6  14   24.32    3.97
   4   6 -14   20.24    2.29
  -4  -6  14   23.31    3.71
   4   6 -13   85.24    3.45
  -4  -6  12   83.90    3.72
   4   6 -12   81.01    3.38
  -4  -6  11  103.17    4.13
   4   6 -11   99.01    3.77
  -4  -6  10   19.26    2.47
   4   6 -10   16.98    2.15
  -4  -6   9  326.05    8.61
  -4  -6   9  325.70    9.19
   4   6  -9  323.17    8.92
  -4  -6   8 1102.15   27.28
   4   6  -8 1109.71   27.64
  -4  -6   8 1135.15   27.88
  -4  -6   7  351.01    9.59
  -4  -6   7  353.10    8.86
   4   6  -6  521.00   13.20
  -4  -6   6  533.64   13.20
  -4  -6   6  537.47   14.00
   4   6  -5   65.73    3.03
  -4  -6   5   68.12    3.20
   4   6  -4    5.72    1.45
   4   6  -4    4.79    1.83
   4   6  -3   57.08    2.51
   4   6  -3   50.13    2.76
   4   6  -2  111.66    4.18
  -4  -6   2  126.34    4.40
   4   6  -2  123.81    4.16
   4   6  -1  481.37   12.56
   4   6  -1  466.60   12.48
  -4  -6   1  470.64   12.58
  -4  -6   0  489.43   12.98
   4   6   0  488.85   12.88
  -4  -6  -1   79.43    3.46
   4   6   1   73.99    3.37
   4   6   2    1.69    2.49
  -4  -6  -2    3.40    1.69
  -4  -6  -2    5.03    2.17
   4   6   2    3.15    2.20
   4   6   3    2.96    2.82
  -4  -6  -3    1.07    1.91
  -4  -6  -3   -0.90    2.20
   4   6   3    2.85    2.18
   4   6   4   11.12    2.36
  -4  -6  -4   14.87    2.33
   4   6   4   14.67    3.21
  -4  -6  -5   46.15    3.18
   4   6   5   42.98    3.92
   4   6   5   40.21    2.84
   4   6   6   98.69    5.24
  -4  -6  -6  100.00    4.49
  -4  -6  -6   91.64    3.64
  -4  -6  -7   77.98    4.42
  -4  -6  -8   14.43    3.53
  -4  -6  -9    1.47    3.71
  -4  -6 -10    4.38    4.02
  -4  -6 -11    4.17    4.28
  -4  -7  19   13.18    5.41
  -4  -7  18   38.97    5.45
  -4  -7  17   11.84    4.61
   4   7 -16   -1.58    2.28
  -4  -7  16    1.58    4.28
   4   7 -15   10.93    2.45
  -4  -7  15   17.83    4.16
   4   7 -14   14.92    2.46
  -4  -7  14   21.11    2.80
   4   7 -13   74.08    3.62
  -4  -7  13   84.35    3.93
  -4  -7  12   51.60    3.31
   4   7 -12   41.89    2.96
  -4  -7  11  115.31    4.52
   4   7 -11   99.92    4.13
  -4  -7  10  174.21    5.73
   4   7 -10  158.85    5.43
  -4  -7   9   76.75    3.74
   4   7  -9   75.22    3.53
  -4  -7   8    9.01    1.48
  -4  -7   8    8.10    2.43
   4   7  -8    8.51    2.19
  -4  -7   7  263.90    7.06
  -4  -7   7  264.09    7.98
  -4  -7   6 1201.58   30.19
   4   7  -5  273.10    7.31
   4   7  -5  256.90    7.77
   4   7  -4   54.82    2.68
   4   7  -4   57.51    3.10
   4   7  -3   40.25    2.58
   4   7  -3   45.67    2.91
   4   7  -2   39.78    2.72
  -4  -7   2   38.39    2.91
   4   7  -2   37.83    2.83
   4   7  -1   18.57    2.61
  -4  -7   1   19.87    2.48
   4   7  -1   20.67    2.61
   4   7   0   20.62    2.72
  -4  -7   0   22.17    2.67
   4   7   0   18.41    2.60
  -4  -7  -1  169.82    5.74
   4   7   1  172.89    5.75
  -4  -7  -2  169.09    5.53
  -4  -7  -2  187.95    5.88
   4   7   2  176.82    5.92
   4   7   3  200.58    7.39
  -4  -7  -3  202.30    6.42
  -4  -7  -3  220.44    6.60
   4   7   3  209.27    6.60
   4   7   4   18.91    3.66
  -4  -7  -4   14.10    2.52
   4   7   4   11.88    2.73
  -4  -7  -4   12.87    2.54
  -4  -7  -5    1.30    2.61
   4   7   5    1.63    2.55
  -4  -7  -6   10.93    2.20
  -4  -7  -6   10.32    3.01
  -4  -7  -7    4.00    3.30
  -4  -7  -8   12.98    3.67
  -4  -7  -9   20.43    4.12
  -4  -7 -10   10.84    4.26
  -4  -8  19   -3.69    5.28
  -4  -8  18    3.38    4.85
  -4  -8  17   15.86    4.85
  -4  -8  16   14.46    4.50
   4   8 -16    9.66    2.69
  -4  -8  15    4.45    2.88
   4   8 -15    6.26    2.67
  -4  -8  14   41.18    3.50
   4   8 -14   38.00    3.13
   4   8 -13   10.55    2.70
  -4  -8  13    7.74    2.95
  -4  -8  12   13.15    3.05
   4   8 -12   14.86    2.76
  -4  -8  11   54.57    3.58
   4   8 -11   42.57    3.30
   4   8 -10   13.99    2.72
  -4  -8  10   17.27    2.95
  -4  -8   9   36.94    3.34
   4   8  -9   38.73    3.11
  -4  -8   8  196.12    6.59
   4   8  -8  193.19    6.43
  -4  -8   7  146.78    4.55
  -4  -8   7  168.53    5.73
  -4  -8   6   51.07    3.42
   4   8  -6   50.24    3.39
   4   8  -5    0.82    2.54
   4   8  -4  228.24    7.21
   4   8  -3  198.75    6.22
   4   8  -3  193.21    6.54
   4   8  -2  185.99    6.20
  -4  -8   2  187.85    6.41
   4   8  -2  186.43    6.33
   4   8  -1  115.30    4.74
  -4  -8   1  106.01    4.63
   4   8  -1  105.77    4.60
   4   8   0   98.08    4.60
  -4  -8   0   91.23    4.27
   4   8   0   98.03    4.50
   4   8   1    0.49    2.86
  -4  -8  -1    2.67    2.71
   4   8   2    6.67    2.89
  -4  -8  -2    2.14    2.14
  -4  -8  -2    5.38    2.73
  -4  -8  -3   78.48    3.69
  -4  -8  -3   75.78    3.92
   4   8   3   70.05    4.01
  -4  -8  -4   87.03    4.14
  -4  -8  -4   84.59    4.04
   4   8   4   77.35    4.18
  -4  -8  -5   50.20    3.63
  -4  -8  -6    4.11    3.05
  -4  -8  -7   23.70    3.68
  -4  -8  -8   16.58    3.95
  -4  -9  19   13.09    5.64
  -4  -9  18    9.70    5.19
  -4  -9  17    5.80    4.84
   4   9 -16   41.62    3.58
  -4  -9  16   61.01    5.62
  -4  -9  15    1.13    3.21
   4   9 -15    2.21    2.92
  -4  -9  14  112.85    5.08
   4   9 -14   95.28    4.68
  -4  -9  14  105.94    6.20
  -4  -9  13   84.31    4.54
   4   9 -13   77.18    4.25
  -4  -9  12   49.22    3.87
   4   9 -12   41.68    3.60
  -4  -9  11   25.76    3.45
   4   9 -11   28.66    3.31
   4   9 -10    8.67    3.00
  -4  -9  10    3.23    3.13
   4   9  -9    6.44    3.03
  -4  -9   9    7.43    3.05
  -4  -9   8   -0.69    2.87
  -4  -9   7   73.65    4.19
   4   9  -6  140.76    5.62
  -4  -9   5  321.66    9.79
   4   9  -5  327.99    9.79
   4   9  -4  245.30    7.99
   4   9  -3   21.68    3.32
  -4  -9   3   22.17    3.21
  -4  -9   2  165.63    6.11
   4   9  -2  155.02    6.07
  -4  -9   1  189.51    6.64
   4   9  -1  184.05    6.67
  -4  -9   0   88.69    4.41
   4   9   0   80.73    4.56
  -4  -9  -1  120.24    5.04
   4   9   1  109.87    5.20
  -4  -9  -2   18.89    2.65
   4   9   2   18.44    3.53
  -4  -9  -2   19.74    3.26
  -4  -9  -3   38.97    3.18
  -4  -9  -3   37.17    3.47
   4   9   3   39.24    3.76
  -4  -9  -4    4.37    2.87
  -4  -9  -4    5.17    3.00
   4   9   4    6.96    3.32
  -4  -9  -5    3.51    3.07
  -4  -9  -6   30.96    3.74
  -4  -9  -7   38.03    4.15
  -4 -10  18   37.22    5.87
  -4 -10  17   27.23    5.37
   4  10 -17   18.43    3.53
  -4 -10  16   15.75    3.73
   4  10 -16   12.69    3.48
  -4 -10  15    1.56    3.56
   4  10 -15    4.81    3.35
   4  10 -14    0.55    3.33
  -4 -10  14   -1.62    3.50
  -4 -10  13    6.84    3.62
   4  10 -13    7.82    3.39
  -4 -10  12    6.67    3.45
   4  10 -12    5.93    3.35
  -4 -10  11   53.07    4.25
   4  10 -11   47.24    4.11
   4  10 -10   57.89    4.32
  -4 -10  10   60.55    4.37
  -4 -10   9   96.55    5.04
   4  10  -9   91.08    4.95
  -4 -10   8    7.50    3.50
  -4 -10   7    1.85    3.33
   4  10  -6   10.07    3.45
   4  10  -5    5.05    3.44
   4  10  -4   86.33    4.96
  -4 -10   3  181.42    6.82
   4  10  -3  179.10    6.89
  -4 -10   2   74.54    4.53
   4  10  -2   68.33    4.68
   4  10  -1   34.02    4.13
  -4 -10   1   39.08    3.89
   4  10   0   12.67    3.74
  -4 -10   0    7.42    3.36
   4  10   1   24.55    3.91
  -4 -10  -1   24.57    3.57
  -4 -10  -2   27.76    3.04
  -4 -10  -2   30.20    3.72
   4  10   2   31.23    3.94
  -4 -10  -3   58.55    3.78
  -4 -10  -3   55.35    4.08
   4  10   3   52.67    4.42
  -4 -10  -4   41.62    3.65
  -4 -10  -4   34.54    3.72
  -4 -11  18    6.93    5.59
   4  11 -17    0.27    3.63
  -4 -11  16   11.76    3.98
   4  11 -16   11.37    3.86
  -4 -11  15   12.48    4.01
   4  11 -15    7.91    3.81
   4  11 -14    7.07    3.74
  -4 -11  14    8.86    3.98
   4  11 -13    5.58    3.77
  -4 -11  13    9.68    3.90
   4  11 -12   25.12    4.06
  -4 -11  12   26.59    4.18
   4  11 -11    8.91    3.84
  -4 -11  11   10.28    3.85
   4  11 -10   -0.09    3.69
  -4 -11  10    0.55    3.82
   4  11  -9   17.38    4.09
  -4 -11   9   18.08    4.05
  -4 -11   8    6.26    3.82
   4  11  -7   40.41    4.60
  -4 -11   6   41.83    4.32
   4  11  -6   41.25    4.46
   4  11  -5   28.35    4.33
   4  11  -4   -2.48    3.98
  -4 -11   4   -0.36    3.70
   4  11  -3    0.27    3.91
  -4 -11   3   -0.96    3.76
  -4 -11   2    1.37    3.68
   4  11  -2    0.81    3.99
  -4 -11   1   98.40    5.23
   4  11  -1   81.48    5.44
  -4 -11   0   61.55    4.68
   4  11   0   67.46    4.99
  -4 -11  -1   48.02    4.30
   4  11   1   39.89    4.52
  -4 -11  -2    9.39    2.98
  -4 -11  -2   13.39    3.77
   4  11   2   13.19    4.18
  -4 -11  -3   -0.07    3.56
   4  12 -17   26.03    4.34
   4  12 -16    9.89    4.22
  -4 -12  16   16.18    4.38
  -4 -12  15    1.17    4.19
   4  12 -15   -6.50    4.14
  -4 -12  14   15.03    4.32
   4  12 -14   12.14    4.31
  -4 -12  13   13.06    4.23
   4  12 -13    4.63    4.16
   4  12 -12   23.07    4.55
  -4 -12  12   20.72    4.50
   4  12 -11   22.66    4.56
  -4 -12  11   33.82    4.65
   4  12 -10   20.39    4.48
  -4 -12  10   14.45    4.33
  -4 -12   9  105.23    5.97
  -4 -12   8    2.40    4.19
   4  12  -7   12.54    4.45
   4  12  -6   26.56    4.71
   4  12  -5   52.02    5.21
  -4 -12   4   64.38    5.15
   4  12  -4   56.75    5.32
   4  12  -3   24.77    4.83
  -4 -12   3   23.16    4.40
  -4 -12   2   -0.90    3.97
   4  12  -2    2.76    4.43
  -4 -12   1    7.99    4.06
   4  12  -1    7.80    4.39
  -4 -12   0    1.72    3.92
   4  12   0   -3.81    4.61
  -4 -12  -1   17.81    4.21
   4  12   1   19.85    4.61
   4  12   2   42.67    5.09
  -4 -12  -2   51.21    4.62
  -4 -12  -3   29.59    4.14
   4  13 -17   17.41    4.61
   4  13 -16   18.61    4.74
  -4 -13  16   17.68    4.76
  -4 -13  15   16.69    4.77
   4  13 -15   15.78    4.66
  -4 -13  14   16.03    4.73
   4  13 -14   17.62    4.79
  -4 -13  13   -2.80    4.43
   4  13 -13    4.71    4.58
   4  13 -12   15.54    4.74
  -4 -13  12    8.48    4.69
   4  13 -11    4.70    4.74
  -4 -13  11    6.98    4.59
  -4 -13  10   54.54    5.28
   4  13 -10   32.69    5.27
  -4 -13   9   39.10    5.20
   4  13  -8    5.42    4.80
  -4 -13   8    8.61    4.66
   4  13  -7   11.23    4.95
   4  13  -6    0.67    4.90
   4  13  -5   -2.66    4.90
  -4 -13   5    5.34    4.47
  -4 -13   4    4.93    4.62
   4  13  -4    6.59    4.90
  -4 -13   3   14.55    4.58
   4  13  -3    0.76    4.95
  -4 -13   2   38.17    4.88
   4  13  -2   32.53    5.35
   4  13  -1    7.08    4.91
  -4 -13   1    3.29    4.48
  -4 -13   0   11.71    4.39
   4  13   0    1.75    4.98
   4  13   1    9.12    4.89
  -4 -13  -1    6.97    4.33
  -4 -13  -2    3.77    4.04
   4  14 -16   -0.59    4.80
  -4 -14  16   -7.59    4.89
   4  14 -15   13.73    5.06
  -4 -14  15   10.04    5.01
  -4 -14  14   10.31    5.06
   4  14 -14    9.62    5.05
  -4 -14  13   34.68    5.27
   4  14 -13   21.02    5.40
  -4 -14  12   19.08    5.13
   4  14 -12   23.02    5.46
  -4 -14  11   14.45    5.04
   4  14 -11    4.29    5.16
  -4 -14  10    4.56    4.96
   4  14 -10    3.19    5.30
  -4 -14   9   -2.63    4.94
   4  14  -8    3.52    5.31
   4  14  -7   -1.95    5.47
  -4 -14   6   10.70    5.10
   4  14  -6   15.65    5.55
  -4 -14   5   27.85    5.30
   4  14  -5   33.53    5.83
  -4 -14   4   14.45    4.98
   4  14  -4    5.40    5.40
  -4 -14   3    1.65    4.73
   4  14  -3    3.30    5.39
  -4 -14   2    1.33    4.81
   4  14  -2    3.36    5.24
   4  14  -1    2.14    5.27
  -4 -14   1    0.49    4.66
  -4 -15  12   13.88    5.27
   4  15 -12   16.90    5.77
  -4 -15  11   19.59    5.47
   4  15 -11    7.20    5.85
  -4 -15  10   43.29    5.97
  -4 -15   9   27.57    5.68
   4  15  -8    5.11    5.92
   4  15  -7    3.93    5.74
  -4 -15   6   -9.76    5.43
   4  15  -6   -5.76    5.91
  -4 -15   5   19.38    5.38
   4  15  -5    8.82    5.89
  -5  15  -4    3.18    6.49
   5 -15   5    5.53    4.86
  -5  14   3   52.65    6.61
   5 -14  -3   45.19    5.19
  -5  14   2   60.43    6.75
   5 -14  -2   46.23    5.20
   5 -14  -1    8.32    4.68
  -5  14   1    8.30    6.06
   5 -14   0    4.29    4.57
  -5  14   0    3.52    5.97
   5 -14   1    1.20    4.75
  -5  14  -1    8.93    6.04
  -5  14  -2   25.03    6.29
  -5  14  -3    9.22    6.05
   5 -14   4    9.33    4.64
  -5  14  -4   12.50    6.28
   5 -14   5   43.89    5.13
   5 -14   5   46.19    5.32
   5 -14   6   33.61    5.01
   5 -14   6   34.04    5.39
  -5  14  -6   43.74    6.41
   5 -14   7   12.19    4.66
  -5  14  -7    7.57    5.88
   5 -14   8    0.59    4.58
  -5  14  -8   -1.49    5.72
  -5  14  -9   -0.13    5.53
   5 -14   9    0.10    4.51
  -5  14 -10   40.33    5.94
   5 -14  10   32.02    5.02
   5 -13  -6   16.24    4.05
   5 -13  -5   20.04    4.23
   5 -13  -4    5.26    4.11
  -5  13   4    6.36    5.37
   5 -13  -3   -0.26    4.12
  -5  13   3    5.56    5.50
   5 -13  -2   10.13    4.37
  -5  13   2   23.37    5.66
  -5  13   1   63.19    6.43
   5 -13  -1   53.04    5.10
  -5  13   0  162.27    8.24
   5 -13   0  132.65    6.72
   5 -13   1   34.50    4.88
   5 -13   1   31.59    4.37
  -5  13  -1   36.18    6.19
  -5  13  -2    3.39    5.50
   5 -13   2    2.86    4.11
   5 -13   3    4.26    4.28
  -5  13  -3    3.68    5.41
   5 -13   4    8.23    4.30
   5 -13   4    0.18    4.34
   5 -13   5   -2.34    4.33
   5 -13   5   -7.45    4.59
   5 -13   6    8.34    4.32
  -5  13  -6   10.78    5.44
  -5  13  -7   55.47    6.13
   5 -13   7   52.06    5.01
   5 -13   8   17.48    4.53
  -5  13  -8   32.39    5.65
   5 -13   9    3.33    4.25
   5 -13   9    5.60    4.91
  -5  13  -9    6.69    5.19
   5 -13  10    8.79    4.30
   5 -13  10    9.57    5.00
  -5  13 -10   16.06    5.12
   5 -13  11    1.22    4.95
   5 -13  11   -2.47    4.26
   5 -12  -7    4.44    4.14
   5 -12  -7    7.18    3.69
   5 -12  -6   48.73    4.45
   5 -12  -5   59.92    4.68
   5 -12  -4   56.51    4.71
  -5  12   4   66.94    5.98
   5 -12  -3   22.83    4.21
  -5  12   3   21.22    5.30
   5 -12  -2   25.18    4.28
  -5  12   2   20.14    5.29
   5 -12  -1   11.50    3.59
  -5  12   1    3.32    5.05
   5 -12  -1    5.38    4.02
   5 -12   0    2.19    4.06
   5 -12   0    0.85    3.59
  -5  12   0    4.27    5.10
   5 -12   1    4.04    3.77
  -5  12  -1   -0.13    5.02
   5 -12   2  140.03    6.19
  -5  12  -2  132.36    7.35
   5 -12   3  130.76    6.16
  -5  12  -3  130.33    7.32
   5 -12   4   19.91    4.32
   5 -12   4   29.74    4.38
   5 -12   5    9.17    4.12
   5 -12   5    4.82    4.26
  -5  12  -5   10.00    5.04
   5 -12   6   10.81    4.14
  -5  12  -6   14.21    4.93
   5 -12   7    1.09    3.98
  -5  12  -7   -3.24    4.81
   5 -12   8   -4.65    3.95
   5 -12   8    2.84    4.53
  -5  12  -8    2.78    4.72
   5 -12   9   22.38    4.16
   5 -12   9   26.76    4.96
  -5  12  -9   31.74    5.15
   5 -12  10   39.86    5.24
   5 -12  10   27.18    4.37
   5 -12  11    6.47    4.86
   5 -12  11   10.31    3.97
   5 -12  12   29.18    5.30
   5 -11  -7  114.69    5.88
   5 -11  -7  105.57    5.20
  -5  11   7  113.11    5.75
   5 -11  -6   60.57    4.35
  -5  11   6   53.79    4.22
   5 -11  -5   -3.34    3.52
  -5  11   5    2.38    4.53
  -5  11   5    6.26    3.04
  -5  11   4   61.39    5.52
   5 -11  -4   54.80    4.45
  -5  11   4   55.71    3.45
  -5  11   3   62.23    5.57
   5 -11  -3   54.65    4.52
   5 -11  -2  107.44    4.86
  -5  11   2  114.58    6.55
   5 -11  -2  107.23    5.50
   5 -11  -1  129.79    5.29
  -5  11   1  114.86    6.59
   5 -11  -1  114.27    5.73
   5 -11   0  200.33    6.94
  -5  11   0  191.56    8.23
   5 -11   0  189.45    7.29
   5 -11   1   78.44    4.68
  -5  11  -1   77.01    5.86
   5 -11   2    4.99    3.60
  -5  11  -2   11.88    4.69
   5 -11   3   18.98    3.88
   5 -11   3   24.46    3.97
   5 -11   4   87.49    5.24
   5 -11   4   85.51    5.10
  -5  11  -5  256.32    9.33
   5 -11   5  240.14    8.47
  -5  11  -6   72.56    5.62
   5 -11   6   72.19    4.83
   5 -11   7   10.92    3.74
   5 -11   7   11.69    4.24
  -5  11  -7   12.63    4.41
  -5  11  -8   44.30    4.96
   5 -11   8   48.34    4.98
   5 -11   8   38.91    4.34
   5 -11   9    1.36    3.68
   5 -11   9    1.15    4.37
  -5  11  -9   -4.41    4.33
   5 -11  10    1.13    3.61
   5 -11  10   -0.48    4.47
   5 -11  11    5.38    3.61
   5 -11  11    4.57    4.58
   5 -11  12   22.02    4.94
   5 -11  13   43.03    5.39
   5 -11  14    9.40    4.90
  -5  10  11    9.25    4.86
  -5  10  10   -1.74    4.63
  -5  10   9   12.77    4.39
   5 -10  -8    5.74    3.61
  -5  10   8    5.01    3.93
   5 -10  -8    7.41    3.20
   5 -10  -7    5.61    3.19
  -5  10   7    5.04    3.54
  -5  10   6   72.91    6.16
   5 -10  -6   74.35    4.35
  -5  10   6   64.78    4.26
  -5  10   5  146.66    5.56
   5 -10  -5  153.60    5.98
  -5  10   5  161.50    6.99
   5 -10  -4  109.37    4.27
  -5  10   4  114.04    5.98
   5 -10  -4  107.01    5.10
   5 -10  -3   83.24    3.94
  -5  10   3   76.97    5.32
  -5  10   3   70.28    5.59
  -5  10   3   68.12    3.24
   5 -10  -3   73.30    4.53
   5 -10  -2   13.21    3.47
   5 -10  -2   13.64    3.06
  -5  10   2   16.18    4.27
   5 -10  -1  203.13    7.32
   5 -10  -1  216.63    7.01
  -5  10   1  203.25    8.07
   5 -10   0   80.52    4.42
  -5  10   0   81.06    5.43
   5 -10   1  135.35    5.64
  -5  10  -1  135.37    6.59
   5 -10   2  159.85    6.11
  -5  10  -2  145.41    6.86
   5 -10   3  106.21    5.17
   5 -10   3  105.85    5.12
   5 -10   4   21.20    3.55
   5 -10   5   -4.89    3.38
  -5  10  -5   -1.97    3.98
   5 -10   6   80.71    4.73
  -5  10  -6   99.22    5.48
   5 -10   7  192.42    7.06
   5 -10   7  187.23    7.44
   5 -10   8   12.98    3.57
   5 -10   8   13.87    4.20
  -5  10  -8   19.28    4.05
   5 -10   9    1.10    3.44
   5 -10   9   -0.82    4.18
   5 -10  10   32.59    3.88
   5 -10  10   36.44    4.80
   5 -10  11   50.56    5.03
   5 -10  11   49.86    4.07
   5 -10  12   -3.67    4.43
   5 -10  13    4.25    4.47
   5 -10  13    9.70    4.62
   5 -10  14    7.03    4.56
  -5   9  12   12.12    5.22
  -5   9  11   27.20    5.05
  -5   9  10   24.85    5.85
  -5   9  10   23.04    4.62
   5  -9  -9    8.48    3.24
  -5   9   9   10.90    4.12
   5  -9  -9   10.90    2.85
  -5   9   9    2.90    5.14
   5  -9  -8    9.61    2.88
   5  -9  -8    6.31    3.34
  -5   9   8    0.40    5.07
  -5   9   8    6.92    3.67
   5  -9  -7    2.45    2.99
  -5   9   7    9.65    4.93
  -5   9   7    3.70    3.32
  -5   9   6    8.00    4.46
  -5   9   6    0.60    2.92
   5  -9  -6    4.24    3.05
   5  -9  -5   27.39    2.56
   5  -9  -5   20.66    3.29
  -5   9   5   18.04    3.97
  -5   9   5   15.66    4.48
  -5   9   5   18.84    2.86
   5  -9  -4   20.15    3.25
   5  -9  -4   20.31    2.57
  -5   9   4   19.37    3.94
  -5   9   4   16.76    2.45
  -5   9   3  212.01    7.69
  -5   9   3  184.00    7.84
  -5   9   3  202.29    6.12
   5  -9  -3  199.81    7.01
   5  -9  -2  247.47    7.45
  -5   9   2  239.09    8.47
  -5   9   2  241.02    6.55
   5  -9  -2  234.69    7.76
   5  -9  -1  197.85    6.87
  -5   9   1  203.57    7.53
   5  -9  -1  205.52    6.56
   5  -9   0  112.41    4.78
  -5   9   0  113.75    5.58
  -5   9   0   97.12    5.23
   5  -9   1   90.72    4.49
  -5   9  -1   85.58    5.15
   5  -9   2   55.23    3.80
   5  -9   2   58.71    3.96
  -5   9  -2   63.06    4.56
   5  -9   3   77.18    4.23
   5  -9   4   96.70    4.67
  -5   9  -4  106.57    5.39
  -5   9  -5  174.27    6.72
   5  -9   5  156.28    6.05
   5  -9   6   79.02    4.80
  -5   9  -6   76.59    4.81
   5  -9   6   78.04    4.33
   5  -9   7   94.41    5.21
  -5   9  -7   99.56    5.20
   5  -9   7   91.20    4.67
   5  -9   8    7.49    3.24
   5  -9   8    3.23    3.70
   5  -9   9   59.11    4.76
   5  -9   9   54.80    3.99
   5  -9  10   30.29    3.58
   5  -9  10   36.12    4.50
   5  -9  11   33.52    3.54
   5  -9  11   37.54    4.14
   5  -9  12   66.38    5.24
   5  -9  13   14.51    4.47
   5  -9  13   22.59    4.44
   5  -9  14    4.50    4.38
  -5   8  13    9.18    5.29
  -5   8  12    9.79    5.57
  -5   8  12   16.84    5.05
  -5   8  11   28.79    5.77
  -5   8  11   28.83    4.94
  -5   8  10   -4.26    5.11
  -5   8  10   -2.13    4.11
   5  -8 -10    1.44    2.45
   5  -8 -10    5.29    2.80
   5  -8  -9   11.96    2.68
  -5   8   9   13.15    5.03
  -5   8   9   15.90    4.00
   5  -8  -9   15.88    2.99
   5  -8  -8   18.48    3.14
   5  -8  -8   18.56    2.86
  -5   8   8   22.29    4.85
  -5   8   8   17.79    3.61
  -5   8   7   99.87    6.15
  -5   8   7  112.30    5.12
   5  -8  -7  114.29    4.61
   5  -8  -6   78.51    3.11
  -5   8   6   66.74    5.27
  -5   8   6   75.30    4.11
   5  -8  -6   81.36    4.01
   5  -8  -5   59.00    2.96
  -5   8   5   49.23    4.72
  -5   8   5   54.51    3.32
  -5   8   5   55.26    4.24
   5  -8  -5   55.44    3.58
   5  -8  -4   73.02    3.96
   5  -8  -4   78.98    3.52
  -5   8   4   78.58    4.65
  -5   8   4   75.43    3.41
   5  -8  -3   59.56    3.63
   5  -8  -3   58.00    3.25
  -5   8   3   64.22    4.24
  -5   8   3   55.30    2.68
  -5   8   2    4.26    3.13
   5  -8  -2    2.83    2.63
   5  -8  -2    2.62    2.47
  -5   8   2    3.14    1.44
   5  -8  -1  481.09   12.83
  -5   8   1  497.69   13.60
   5  -8   0  527.66   13.97
  -5   8   0  528.06   14.58
  -5   8   0  492.99   14.30
  -5   8  -1  295.81    9.15
  -5   8  -1  274.34    8.72
   5  -8   2   73.86    3.91
   5  -8   3   15.05    2.91
  -5   8  -4    2.20    3.07
   5  -8   4    4.34    2.68
   5  -8   5  134.24    5.24
  -5   8  -5  136.91    5.65
   5  -8   6  150.65    5.72
   5  -8   6  159.35    6.15
  -5   8  -6  167.47    6.22
   5  -8   7  390.30   11.03
   5  -8   7  386.18   11.46
   5  -8   8  144.96    5.53
   5  -8   8  154.40    6.23
   5  -8   9  119.54    5.60
   5  -8   9  110.45    4.81
   5  -8  10    2.15    2.90
   5  -8  10   10.46    3.95
   5  -8  10    4.65    3.34
   5  -8  11   19.35    3.03
   5  -8  11   21.62    4.14
   5  -8  11   27.61    3.58
   5  -8  12   52.56    4.80
   5  -8  12   55.67    4.66
   5  -8  13    0.29    3.86
   5  -8  13    3.16    3.99
  -5   7  14    1.28    5.62
   5  -7 -13   10.91    4.62
  -5   7  13   15.82    5.56
  -5   7  13   16.29    5.12
  -5   7  12    3.37    5.16
  -5   7  12   10.43    4.66
  -5   7  11   22.03    5.30
  -5   7  11   36.77    4.77
   5  -7 -10   23.29    2.84
   5  -7 -10   23.80    2.53
  -5   7  10   19.53    5.04
  -5   7  10   21.28    4.28
  -5   7   9  121.05    5.84
   5  -7  -9  122.93    4.85
  -5   7   9  111.39    6.50
   5  -7  -9  127.17    4.55
   5  -7  -8   52.46    3.52
  -5   7   8   51.03    4.03
  -5   7   8   58.78    5.15
   5  -7  -8   58.95    3.34
   5  -7  -7   17.73    1.76
   5  -7  -7   20.25    2.70
   5  -7  -7   16.79    2.87
  -5   7   7   17.58    4.15
  -5   7   7   16.04    3.07
   5  -7  -6  134.05    5.02
   5  -7  -6  144.38    4.37
  -5   7   6  138.27    6.27
  -5   7   6  130.08    5.16
   5  -7  -5  128.11    4.97
   5  -7  -5  136.14    4.44
  -5   7   5  132.28    5.96
  -5   7   5  136.97    4.82
   5  -7  -4   62.60    3.53
   5  -7  -4   61.46    3.05
  -5   7   4   57.05    3.91
  -5   7   4   62.02    2.96
   5  -7  -3   66.13    3.49
  -5   7   3   62.66    3.90
  -5   7   2    3.58    2.78
  -5   7   2    2.91    1.30
  -5   7   1   63.77    3.78
  -5   7   1   56.00    3.58
  -5   7   0   47.23    3.57
  -5   7   0   46.32    3.28
  -5   7  -1    7.06    2.78
  -5   7  -1    8.93    2.40
  -5   7  -2  322.32    9.28
  -5   7  -3  500.55   13.87
  -5   7  -4  522.75   14.39
   5  -7   5    7.13    2.61
  -5   7  -5    6.09    2.86
   5  -7   6   21.95    2.92
   5  -7   7   46.18    3.29
   5  -7   7   40.67    1.52
   5  -7   8   23.83    3.42
   5  -7   8   18.72    2.76
   5  -7   8   19.58    1.58
   5  -7   9   76.70    4.53
   5  -7   9   76.17    3.83
   5  -7   9   71.31    4.24
   5  -7  10  127.51    5.68
   5  -7  10  122.98    5.14
   5  -7  10  116.55    4.62
   5  -7  11   48.41    4.32
   5  -7  11   38.63    3.06
   5  -7  11   48.29    4.07
   5  -7  12   -0.94    3.43
   5  -7  12    6.72    3.85
   5  -7  13    7.00    3.92
  -5   6  14   46.98    5.90
  -5   6  14   42.64    5.74
  -5   6  13   48.41    5.83
  -5   6  13   31.56    5.26
  -5   6  12    7.47    4.88
  -5   6  12    0.62    4.34
   5  -6 -11    9.35    2.04
   5  -6 -11   13.20    2.32
  -5   6  11   14.26    4.80
  -5   6  11   13.16    4.24
   5  -6 -10    2.50    2.10
   5  -6 -10    2.29    2.33
  -5   6  10   -1.66    4.22
  -5   6  10    5.33    3.58
  -5   6   9   86.40    5.69
   5  -6  -9   83.08    3.83
  -5   6   9   84.58    4.82
   5  -6  -9   92.09    3.65
   5  -6  -8   84.03    3.62
  -5   6   8   80.15    5.24
   5  -6  -8   85.36    3.82
  -5   6   8   79.08    4.37
   5  -6  -7  111.96    3.53
   5  -6  -7  117.03    4.37
  -5   6   7  106.88    5.57
   5  -6  -7  118.88    4.53
  -5   6   7  109.28    4.73
   5  -6  -6   34.68    2.81
   5  -6  -6   32.42    2.16
  -5   6   6   29.09    2.76
  -5   6   6   30.80    3.69
  -5   6   5   16.60    3.20
  -5   6   5   12.70    2.09
  -5   6   4   -0.49    2.46
  -5   6   4   -1.84    1.71
  -5   6   3    1.82    2.45
  -5   6   3   -0.70    0.97
  -5   6   2    0.98    2.44
  -5   6   2    1.74    1.14
  -5   6   1  189.75    6.35
  -5   6   1  190.52    6.41
  -5   6   0  188.31    6.25
  -5   6   0  182.00    6.04
  -5   6  -1  330.02    9.31
  -5   6  -2  413.80   11.16
  -5   6  -3    7.53    2.56
  -5   6  -3    4.28    1.97
   5  -6   5   47.68    1.53
   5  -6   6  158.76    4.33
   5  -6   7  316.40    9.21
   5  -6   7  313.25    8.83
   5  -6   7  302.55    8.03
   5  -6   8   47.06    3.08
   5  -6   8   48.03    3.42
   5  -6   8   48.66    2.35
   5  -6   9    1.03    2.29
   5  -6   9    2.95    2.63
   5  -6   9   -0.49    1.90
   5  -6  10   -0.95    2.42
   5  -6  10    1.09    2.84
   5  -6  10    3.92    3.40
   5  -6  10   -0.86    2.57
   5  -6  10    0.68    2.35
   5  -6  10    0.87    2.20
   5  -6  11   20.53    2.72
   5  -6  11   23.87    3.33
   5  -6  11   24.26    3.78
   5  -6  11   19.32    2.67
   5  -6  12   55.82    4.33
   5  -6  12   54.57    4.09
   5  -6  13   99.04    5.18
  -5   5  15   -7.20    5.25
  -5   5  15    7.10    5.27
  -5   5  14   45.66    5.68
  -5   5  14   36.71    5.43
  -5   5  13   96.49    6.33
  -5   5  13   89.97    6.17
  -5   5  12  123.10    6.84
  -5   5  12  139.92    6.74
   5  -5 -11  108.76    3.87
  -5   5  11  122.56    6.39
   5  -5 -11  106.10    3.67
  -5   5  11  115.60    5.85
   5  -5 -10   17.94    2.11
   5  -5 -10   16.71    2.31
  -5   5  10   17.87    4.11
  -5   5  10   16.88    3.64
   5  -5  -9    0.28    2.03
  -5   5   9   -1.05    3.65
   5  -5  -9    0.39    2.08
  -5   5   9    2.80    3.02
   5  -5  -8   -0.31    1.22
   5  -5  -8   -2.65    2.15
  -5   5   8    3.00    3.20
   5  -5  -8   -1.09    2.05
  -5   5   8    2.49    2.65
   5  -5  -7   46.15    2.15
  -5   5   7   44.28    3.75
   5  -5  -7   48.77    2.88
  -5   5   7   45.04    3.15
   5  -5  -6    5.58    2.13
  -5   5   6    5.36    2.09
  -5   5   6    4.06    2.67
  -5   5   5  378.87   10.92
  -5   5   5  371.52   10.21
  -5   5   4  600.96   15.38
  -5   5   3  451.01   11.62
  -5   5   2    7.97    1.20
  -5   5   1    1.85    1.91
  -5   5   1    0.51    2.02
  -5   5   0  138.06    4.90
  -5   5   0  137.29    4.70
  -5   5  -1  154.85    4.97
   5  -5   2  315.57    7.74
  -5   5  -2  325.56    8.67
  -5   5  -3  186.58    5.46
   5  -5   5  163.99    5.60
   5  -5   6  153.88    5.42
   5  -5   7   73.86    3.60
   5  -5   8  253.93    7.64
   5  -5   8  262.42    7.44
   5  -5   8  252.03    7.19
   5  -5   9  169.13    5.52
   5  -5   9  164.02    5.35
   5  -5   9  157.50    5.44
   5  -5   9  162.25    5.72
   5  -5   9  175.08    5.28
   5  -5  10  108.38    4.88
   5  -5  10  101.65    4.04
   5  -5  10  108.90    3.80
   5  -5  10  100.86    4.21
   5  -5  10   94.06    4.39
   5  -5  10  102.19    4.17
   5  -5  11    3.31    2.80
   5  -5  11    8.80    2.56
   5  -5  11    9.79    3.41
   5  -5  11    2.80    2.70
   5  -5  12   18.53    3.58
   5  -5  12    9.59    3.13
   5  -4 -16   50.75    5.21
  -5   4  16   48.80    6.29
   5  -4 -15   68.45    5.40
  -5   4  15   80.47    6.12
  -5   4  15   79.67    6.45
   5  -4 -14   -4.00    3.96
  -5   4  14    3.15    4.74
  -5   4  14   -4.90    4.79
   5  -4 -13   -0.93    3.45
  -5   4  13    0.12    4.51
  -5   4  13    6.44    4.29
   5  -4 -12   15.09    1.61
   5  -4 -12   10.48    3.43
  -5   4  12   21.23    4.49
  -5   4  12   20.13    4.20
   5  -4 -11   36.40    3.54
  -5   4  11   34.34    4.45
   5  -4 -11   32.42    2.21
  -5   4  11   32.40    4.10
   5  -4 -11   34.47    2.12
   5  -4 -10  284.62    7.56
   5  -4 -10  269.68    7.64
  -5   4  10  273.38    9.27
  -5   4  10  269.59    9.01
   5  -4  -9  221.81    5.55
   5  -4  -9  232.09    6.55
  -5   4   9  220.72    7.81
  -5   4   9  220.38    7.53
   5  -4  -8   83.92    3.39
  -5   4   8   80.74    4.49
  -5   4   8   88.49    4.18
   5  -4  -7    2.34    1.81
  -5   4   7    2.27    2.56
  -5   4   7    4.62    2.15
  -5   4   6  152.01    5.68
   5  -4  -6  161.24    5.11
  -5   4   6  155.30    5.24
   5  -4  -5   44.40    2.54
  -5   4   5   41.84    2.40
  -5   4   4  218.69    6.45
   5  -4  -4  211.83    6.46
  -5   4   3  263.59    7.20
  -5   4   3  270.70    7.66
  -5   4   2  339.11    8.88
   5  -4  -2  308.06    8.04
  -5   4   1  170.04    5.31
   5  -4  -1  170.14    4.50
  -5   4   0   14.89    1.77
  -5   4   0   19.54    1.83
   5  -4   0   19.12    0.99
  -5   4  -1   29.09    1.96
   5  -4   1   26.70    1.19
  -5   4  -2   26.99    2.08
  -5   4  -2   31.45    1.92
   5  -4   2   28.14    2.24
   5  -4   3   18.10    2.07
  -5   4  -3   17.60    1.86
  -5   4  -3   16.73    1.55
   5  -4   4   29.34    2.39
   5  -4   5  108.40    4.10
   5  -4   6  374.83   10.33
   5  -4   7  117.37    4.29
   5  -4   8    1.39    2.13
   5  -4   8    1.00    2.06
   5  -4   8    2.09    2.02
   5  -4   9   18.06    2.47
   5  -4   9   17.82    2.10
   5  -4   9   13.97    2.51
   5  -4   9   15.54    2.17
   5  -4  10   59.95    3.42
   5  -4  10   57.99    3.53
   5  -4  10   62.79    3.33
   5  -4  11  111.97    4.78
   5  -4  11  104.19    4.69
   5  -4  11   98.77    4.42
   5  -4  11   95.75    4.17
   5  -4  12   28.47    3.47
   5  -4  12   26.23    3.61
   5  -4  12   33.27    3.05
   5  -4  13   -0.78    3.52
   5  -4  14    4.65    3.93
   5  -3 -16    4.13    4.15
  -5   3  16    9.60    5.30
   5  -3 -15   27.14    4.20
  -5   3  15   19.49    4.95
  -5   3  15   27.54    5.25
   5  -3 -14   20.06    3.82
  -5   3  14   13.65    4.55
  -5   3  14   15.04    4.54
   5  -3 -13  138.55    5.93
  -5   3  13  149.03    7.01
  -5   3  13  153.26    6.85
   5  -3 -12   79.21    4.37
  -5   3  12   89.18    5.31
   5  -3 -12   88.99    2.80
  -5   3  12   81.46    5.28
   5  -3 -12   83.03    2.79
   5  -3 -11   50.32    2.43
   5  -3 -11   50.21    3.52
  -5   3  11   52.41    4.30
  -5   3  11   49.68    4.31
   5  -3 -10    1.26    1.39
   5  -3 -10    4.19    1.59
   5  -3 -10   -0.49    1.64
  -5   3  10    2.87    3.05
  -5   3  10   -0.65    2.89
   5  -3  -9   17.88    1.81
   5  -3  -9   15.16    1.60
   5  -3  -9   18.14    1.92
  -5   3   9   14.91    2.85
   5  -3  -8  176.71    5.18
   5  -3  -8  180.11    5.39
  -5   3   8  177.77    6.09
  -5   3   7  347.39    9.22
   5  -3  -7  338.62    8.91
   5  -3  -7  327.91    9.08
  -5   3   7  328.75    9.54
  -5   3   6  692.57   17.47
   5  -3  -6  685.08   17.21
   5  -3  -6  686.01   17.19
   5  -3  -6  676.24   17.40
  -5   3   6  674.97   17.63
  -5   3   5   53.89    2.57
   5  -3  -5   53.71    2.32
   5  -3  -5   54.34    2.56
   5  -3  -5   54.27    2.44
  -5   3   5   53.73    2.54
  -5   3   4   12.69    1.67
   5  -3  -4   11.86    1.41
   5  -3  -4   13.07    1.62
   5  -3  -4   10.46    1.18
   5  -3  -4   10.61    1.61
  -5   3   3   38.51    2.19
   5  -3  -3   35.09    1.90
  -5   3   3   35.87    1.81
   5  -3  -3   33.65    1.57
   5  -3  -3   33.06    2.01
  -5   3   2   25.03    1.83
   5  -3  -2   23.84    1.26
   5  -3  -1   37.20    1.50
   5  -3   0  158.93    5.04
   5  -3   0  165.47    4.89
   5  -3   0  161.77    4.41
   5  -3   0  160.30    4.87
   5  -3   1  512.41   13.21
   5  -3   1  532.73   13.28
   5  -3   1  516.09   13.45
  -5   3  -1  499.20   13.04
  -5   3  -2  243.37    6.75
   5  -3   2  237.57    6.60
   5  -3   2  229.25    6.78
  -5   3  -2  229.40    6.29
   5  -3   2  232.93    6.57
  -5   3  -3  306.22    8.25
   5  -3   3  292.47    8.10
   5  -3   3  296.93    8.34
  -5   3  -3  302.13    7.69
   5  -3   3  292.63    8.09
   5  -3   4  109.72    3.96
  -5   3  -4  114.65    3.85
   5  -3   5   36.67    2.36
  -5   3  -5   41.67    2.28
   5  -3   6  146.65    4.79
   5  -3   7  138.46    4.24
   5  -3   7  133.12    4.18
   5  -3   7  141.36    4.45
   5  -3   7  122.90    4.30
   5  -3   7  130.52    4.58
   5  -3   8  181.12    5.30
   5  -3   8  173.27    5.64
   5  -3   8  171.82    5.43
   5  -3   9  136.64    4.07
   5  -3   9  119.35    4.52
   5  -3   9  128.03    4.68
   5  -3   9  125.61    4.04
   5  -3  10   36.72    2.89
   5  -3  10   36.90    2.96
   5  -3  11    6.70    2.67
   5  -3  11   10.50    3.00
   5  -3  12   -0.21    2.81
   5  -3  12    4.89    3.43
   5  -3  13   26.12    4.14
   5  -3  14   60.11    5.11
   5  -3  15   28.37    4.90
   5  -2 -17   41.99    5.09
   5  -2 -16    1.36    4.03
  -5   2  16   -6.41    4.71
   5  -2 -15    1.23    3.60
  -5   2  15   -3.08    4.39
   5  -2 -14    7.10    3.39
  -5   2  14    3.43    4.06
   5  -2 -13   -1.21    3.00
  -5   2  13    3.88    3.69
   5  -2 -12   76.86    2.59
   5  -2 -12   69.95    3.99
   5  -2 -12   75.45    2.51
   5  -2 -11  211.36    6.81
  -5   2  11  211.21    7.67
   5  -2 -11  214.29    5.79
   5  -2 -10  311.45    7.50
   5  -2 -10  306.03    8.30
  -5   2  10  319.07    9.14
  -5   2   9  158.50    5.10
   5  -2  -9  175.78    4.93
   5  -2  -9  164.39    4.83
   5  -2  -9  168.26    4.77
  -5   2   9  156.75    5.92
  -5   2   8   74.44    3.00
   5  -2  -8   70.21    2.62
   5  -2  -8   74.43    2.79
  -5   2   8   71.06    3.61
   5  -2  -8   75.37    2.84
  -5   2   7   10.51    1.67
   5  -2  -7    9.19    1.58
   5  -2  -7    9.52    1.33
   5  -2  -7    8.06    1.55
  -5   2   7    8.70    1.96
   5  -2  -6  454.42   11.46
  -5   2   6  438.29   11.66
   5  -2  -6  452.79   11.44
   5  -2  -6  435.44   11.58
  -5   2   6  432.18   11.86
   5  -2  -5  264.63    7.13
  -5   2   5  264.60    7.32
   5  -2  -5  266.60    7.10
   5  -2  -5  262.85    7.25
   5  -2  -5  255.33    7.00
  -5   2   5  256.77    7.36
  -5   2   4  795.03   19.45
   5  -2  -4  787.07   19.20
   5  -2  -4  792.16   19.22
   5  -2  -4  768.83   19.34
   5  -2  -4  758.58   19.04
  -5   2   4  717.40   19.26
  -5   2   3   49.27    2.29
   5  -2  -3   51.00    1.94
   5  -2  -2  966.01   23.69
   5  -2  -1  357.52    9.46
   5  -2  -1  354.91    9.12
   5  -2   0   25.04    1.61
   5  -2   0   25.51    1.78
  -5   2  -1  197.60    5.86
   5  -2   1  207.42    5.72
   5  -2   1  198.60    5.75
  -5   2  -2  165.44    3.74
   5  -2   2  166.92    3.62
   5  -2   2  167.84    3.55
   5  -2   3  456.86   11.57
   5  -2   3  438.45   11.60
  -5   2  -3  451.36   11.75
   5  -2   3  447.44   11.61
  -5   2  -3  449.97   11.12
  -5   2  -4  760.55   18.52
   5  -2   4  728.01   18.36
   5  -2   4  712.93   18.51
   5  -2   4  729.29   18.37
  -5   2  -5   91.58    3.28
   5  -2   5   91.00    3.12
   5  -2   5   91.00    3.23
   5  -2   5   87.55    3.33
   5  -2   5   91.25    2.94
  -5   2  -6   31.45    2.07
   5  -2   6   38.63    2.19
   5  -2   6   35.47    2.12
   5  -2   6   38.14    1.94
   5  -2   6   34.41    1.93
   5  -2   6   38.40    2.49
   5  -2   7   14.11    1.76
   5  -2   7   12.82    2.28
   5  -2   7   16.17    1.79
   5  -2   7   14.90    1.79
   5  -2   8    2.07    2.24
   5  -2   8    0.79    1.49
   5  -2   8    0.77    1.73
   5  -2   9  107.46    4.03
   5  -2   9  109.68    4.35
   5  -2  10   47.31    3.29
   5  -2  11  145.92    5.44
   5  -2  12   73.22    4.18
   5  -2  12   91.28    5.21
   5  -2  13   -2.13    4.12
   5  -2  14    5.89    4.34
   5  -2  15    6.54    4.76
   5  -1 -18    5.66    4.56
  -5   1  18   -6.69    5.86
   5  -1 -17   48.56    5.07
  -5   1  17   59.52    6.30
   5  -1 -16   10.62    3.99
  -5   1  16   12.11    4.42
  -5   1  16    9.42    4.94
   5  -1 -15   15.98    3.71
  -5   1  15    6.79    4.04
  -5   1  15   17.79    4.87
   5  -1 -14   43.89    3.79
   5  -1 -13   40.11    3.39
   5  -1 -13   31.13    1.41
   5  -1 -12   31.58    2.97
   5  -1 -12   34.71    1.64
   5  -1 -12   36.68    1.70
   5  -1 -12   32.82    1.79
   5  -1 -11   -0.40    0.66
   5  -1 -11    0.24    2.16
  -5   1  11   -1.76    1.59
   5  -1 -11    7.24    1.06
   5  -1 -11    1.96    1.40
   5  -1 -11    5.99    1.10
   5  -1 -10  113.20    4.20
  -5   1  10  116.41    3.82
   5  -1 -10  110.13    3.57
   5  -1  -9  143.02    4.69
  -5   1   9  152.71    4.58
   5  -1  -9  142.51    4.34
  -5   1   8  284.35    4.26
   5  -1  -8  267.28    3.77
  -5   1   7  359.87    5.02
   5  -1  -7  336.24    4.53
  -5   1   6  238.15    3.84
   5  -1  -6  223.98    3.46
  -5   1   6  222.38    4.17
   5  -1  -5   -0.07    0.68
  -5   1   5   44.33    1.89
   5  -1  -5   -1.42    0.87
   5  -1  -5   43.25    1.61
  -5   1   5   47.14    1.92
  -5   1   4    4.85    1.26
  -5   1   4    5.21    1.32
   5  -1  -4    4.27    1.06
   5  -1  -4    4.57    1.05
  -5   1   3  394.44   10.16
   5  -1  -3  380.53    9.99
  -5   1   3  400.79   10.29
   5  -1  -3  384.44    9.91
   5  -1  -2 1358.92   33.33
   5  -1  -2 1370.54   33.17
  -5   1   0  151.99    4.51
   5  -1   1  436.51   10.84
  -5   1  -1  414.27   11.19
   5  -1   2   -0.89    0.75
  -5   1  -2    3.57    1.34
   5  -1   3    6.42    1.26
   5  -1   3    8.55    1.56
  -5   1  -3    7.59    1.43
   5  -1   3    6.96    0.78
   5  -1   4    3.45    0.89
   5  -1   4    3.46    1.50
  -5   1  -4    1.48    1.38
   5  -1   4    2.92    1.25
   5  -1   4    4.57    1.49
   5  -1   5  116.27    3.74
  -5   1  -5  117.80    3.74
   5  -1   5  116.39    3.71
   5  -1   5  108.98    3.30
   5  -1   5  109.44    3.99
   5  -1   6  147.86    4.41
  -5   1  -6  151.49    4.63
   5  -1   6  151.80    4.54
   5  -1   6  162.99    4.65
   5  -1   6  156.69    5.07
   5  -1   7  161.51    5.13
  -5   1  -7  151.81    4.55
   5  -1   7  148.48    4.40
   5  -1   8   71.73    2.51
   5  -1   8   73.30    3.50
   5  -1   9   35.14    2.95
   5  -1  10    3.87    2.86
   5  -1  11   10.10    3.16
   5  -1  12    3.19    3.25
   5  -1  13   21.32    4.58
   5  -1  14   31.60    5.12
   5   0 -18   30.78    4.81
  -5   0  18   35.20    6.03
   5   0 -17   13.59    4.22
  -5   0  17    5.22    5.19
   5   0 -16   14.77    3.96
  -5   0  16   13.81    4.20
  -5   0  16   10.86    4.98
   5   0 -15    9.45    3.50
  -5   0  15    4.05    4.41
   5   0 -14   84.19    4.56
  -5   0  14   96.16    5.67
   5   0 -13  109.69    4.74
  -5   0  13  115.08    5.84
   5   0 -12   18.19    2.57
   5   0 -12   18.16    1.35
   5   0 -12   15.55    1.51
  -5   0  12   13.91    1.67
   5   0 -12   16.68    1.40
  -5   0  12   18.10    3.42
   5   0 -11   11.32    1.11
   5   0 -11   11.32    1.56
   5   0 -11    9.54    2.12
   5   0 -11   15.35    1.14
  -5   0  11    9.99    1.70
   5   0 -11    6.95    1.08
  -5   0  11   13.42    3.01
   5   0 -10   97.58    3.23
   5   0 -10  106.49    3.85
   5   0 -10  103.77    3.38
   5   0  -9  175.17    5.42
  -5   0   9  190.29    5.42
   5   0  -8    4.28    1.32
  -5   0   8    6.04    1.46
  -5   0   8    5.13    1.41
  -5   0   7  146.78    4.49
  -5   0   7  141.26    4.34
   5   0  -6  540.13   13.91
  -5   0   6  544.43   14.03
  -5   0   6  550.27   13.92
   5   0  -6  554.48   13.96
  -5   0   5  276.60    7.63
  -5   0   5  271.31    7.51
   5   0  -5  277.39    7.47
   5   0  -5  287.64    7.45
  -5   0   4  523.38   13.22
  -5   0   4  515.05   13.09
   5   0  -4  513.59   13.04
   5   0  -4  500.94   12.87
  -5   0   3  248.19    7.00
  -5   0   3  252.48    6.89
   5   0  -3  256.89    6.57
   5   0  -3  248.27    6.83
   5   0  -2  110.62    3.07
   5   0  -1   13.42    0.75
  -5   0   0  278.98    8.01
  -5   0   0  284.85    7.90
   5   0   1  172.68    4.51
  -5   0  -1  158.47    4.92
  -5   0  -1  159.05    4.77
   5   0   2  183.70    4.82
  -5   0  -2  166.14    5.15
  -5   0  -2  170.52    5.03
   5   0   3  535.21   13.72
  -5   0  -3  558.35   13.99
  -5   0  -3  545.72   13.84
   5   0   3  548.29   14.06
   5   0   4  266.03    6.98
  -5   0  -4  255.16    7.18
   5   0   4  262.55    7.07
   5   0   4  261.30    7.41
   5   0   5   14.03    2.04
   5   0   5   14.85    1.47
  -5   0  -5   16.56    1.69
   5   0   5   12.73    1.56
   5   0   5   14.46    1.78
   5   0   6   23.53    2.37
  -5   0  -6   24.36    2.70
   5   0   6   25.68    1.91
  -5   0  -6   24.29    1.77
   5   0   6   21.62    1.58
   5   0   6   26.89    1.72
  -5   0  -7   26.98    3.02
  -5   0  -7   22.61    1.73
   5   0   7   25.16    1.66
   5   0   7   26.80    2.65
  -5   0  -8   68.76    4.22
   5   0   8   71.30    3.64
  -5   0  -9   41.62    3.92
   5   0   9   35.63    3.28
   5   0  10  136.08    5.46
   5   0  11   94.27    4.81
   5   0  12   33.35    3.87
   5   0  13   -1.67    3.75
   5   0  13    0.34    4.54
   5   0  14   -3.06    4.89
   5   1 -19    1.75    4.59
   5   1 -18   13.10    4.43
  -5  -1  18   24.19    5.57
   5   1 -17    0.10    3.97
  -5  -1  17   -0.45    4.88
   5   1 -16   82.91    5.05
  -5  -1  16   79.28    6.08
   5   1 -15   30.87    3.61
  -5  -1  15   30.55    4.68
   5   1 -14   44.60    3.47
  -5  -1  14   43.36    4.40
   5   1 -13    7.38    2.62
   5   1 -13    1.41    1.33
  -5  -1  13    3.51    1.50
   5   1 -13    5.29    1.11
  -5  -1  13    3.61    3.49
   5   1 -12    3.06    1.18
   5   1 -12    1.58    1.21
   5   1 -12    5.78    2.26
   5   1 -12   13.96    1.16
  -5  -1  12    2.97    1.57
   5   1 -12   15.81    1.25
   5   1 -12    4.20    1.42
  -5  -1  12    5.04    3.02
   5   1 -11   54.88    2.10
   5   1 -11   62.12    2.14
   5   1 -11   61.74    2.97
  -5  -1  11   64.28    2.65
  -5  -1  11   60.49    3.91
   5   1 -10   83.73    3.29
  -5  -1  10   84.41    3.14
  -5  -1  10   85.59    3.06
  -5  -1  10   84.78    4.15
  -5  -1  10   85.00    4.26
   5   1  -9   95.76    2.51
  -5  -1   9  101.13    2.62
  -5  -1   9   94.76    3.45
   5   1  -9   18.95    1.39
  -5  -1   9   96.34    2.45
   5   1  -8  245.09    4.01
  -5  -1   8  251.56    4.37
  -5  -1   8  256.07    4.17
  -5  -1   8  252.92    5.24
   5   1  -8   81.34    3.05
   5   1  -7   63.62    1.75
  -5  -1   7   68.53    2.24
   5   1  -7    4.12    1.03
  -5  -1   7   66.30    2.67
   5   1  -7   10.73    1.17
  -5  -1   7   70.34    2.17
   5   1  -6   33.39    1.18
  -5  -1   6   37.28    1.81
   5   1  -6   -0.25    0.76
  -5  -1   6   38.91    1.74
   5   1  -6   -0.73    0.85
   5   1  -6   32.87    1.66
  -5  -1   6   35.97    1.88
  -5  -1   5   17.91    1.48
  -5  -1   5   18.00    1.57
   5   1  -5   16.48    1.41
  -5  -1   5   15.75    1.43
   5   1  -5   16.06    1.30
  -5  -1   4  115.52    3.77
  -5  -1   4  110.03    3.62
   5   1  -4  113.65    3.65
  -5  -1   4  116.29    3.56
  -5  -1   3  710.57   17.55
   5   1  -2  459.80   11.17
   5   1  -1 1299.54   31.07
  -5  -1   1 1254.75   31.67
   5   1   0  270.39    6.76
  -5  -1   0  259.26    7.41
  -5  -1   0  267.43    7.27
   5   1   1   32.54    1.41
  -5  -1  -1   35.13    1.98
  -5  -1  -1   33.21    1.83
  -5  -1  -2   23.11    1.61
   5   1   2   22.03    1.30
  -5  -1  -2   20.55    1.68
  -5  -1  -2   23.08    1.64
   5   1   2   23.02    1.83
   5   1   3  329.06    8.60
  -5  -1  -3  332.68    8.87
   5   1   3  315.95    8.49
  -5  -1  -3  329.50    8.77
  -5  -1  -3  319.78    8.62
   5   1   3  341.07    8.96
  -5  -1  -4  156.14    4.85
   5   1   4  142.79    4.21
  -5  -1  -4  147.19    4.48
  -5  -1  -4  133.73    3.88
  -5  -1  -4  146.85    4.35
   5   1   4  158.71    4.85
   5   1   4  152.92    4.34
   5   1   5  320.07    8.35
  -5  -1  -5  314.47    9.10
  -5  -1  -5  316.10    8.49
   5   1   5  317.49    8.26
   5   1   5  322.64    8.95
  -5  -1  -6   67.61    3.61
  -5  -1  -6   66.94    2.67
   5   1   6   71.50    2.58
   5   1   6   68.83    3.40
  -5  -1  -7   69.47    3.83
  -5  -1  -7   59.57    2.47
   5   1   7   70.13    3.57
   5   1   8   11.93    2.81
  -5  -1  -8   13.56    3.15
  -5  -1  -8    6.95    1.28
  -5  -1  -9   11.13    3.44
   5   1   9    5.21    3.03
   5   1  10   64.56    4.18
  -5  -1 -10   66.35    4.88
   5   1  11   73.95    4.63
  -5  -1 -11   76.07    5.27
   5   1  12   26.75    4.11
   5   1  13   17.70    4.10
   5   2 -19   13.62    4.59
  -5  -2  19   24.12    5.89
   5   2 -18   -1.62    4.13
  -5  -2  18   -0.32    5.11
   5   2 -17    4.02    3.75
  -5  -2  17    7.08    4.91
   5   2 -16   12.49    3.56
  -5  -2  16    7.07    4.43
   5   2 -15    3.85    3.13
  -5  -2  15    8.30    4.10
   5   2 -14   97.99    4.38
  -5  -2  14   97.80    5.40
  -5  -2  14   94.54    5.37
   5   2 -13  122.04    4.41
   5   2 -13  101.78    2.81
  -5  -2  13   99.96    3.28
  -5  -2  13  103.95    5.27
   5   2 -13   80.11    2.68
  -5  -2  13  117.75    5.41
   5   2 -13   74.09    2.58
   5   2 -12  121.31    2.42
   5   2 -12  132.81    3.85
  -5  -2  12  122.44    3.05
  -5  -2  12  128.44    4.98
  -5  -2  11    8.82    1.72
   5   2 -11    8.31    0.98
   5   2 -11   13.52    1.41
   5   2 -11    6.48    1.95
   5   2 -11   16.22    1.33
  -5  -2  11    6.04    1.58
   5   2 -11   19.11    1.52
  -5  -2  11    6.50    2.77
  -5  -2  11   11.86    2.80
   5   2 -10   35.81    2.22
   5   2 -10   37.37    1.94
  -5  -2  10   32.74    2.14
   5   2 -10   35.05    1.80
  -5  -2  10   38.17    2.10
  -5  -2  10   33.69    2.99
   5   2  -9    1.16    1.40
  -5  -2   9    0.55    1.50
   5   2  -9    4.09    1.27
  -5  -2   9    1.47    1.45
  -5  -2   9    0.23    1.96
   5   2  -9   -1.26    1.37
   5   2  -8    0.79    1.17
  -5  -2   8    1.97    1.40
  -5  -2   8    0.97    1.48
   5   2  -8    2.63    1.18
   5   2  -8    3.04    1.27
  -5  -2   8    0.83    1.75
   5   2  -7   81.02    2.66
   5   2  -7   82.32    2.78
  -5  -2   7   85.95    3.23
  -5  -2   7   88.45    3.09
   5   2  -7   90.35    2.95
  -5  -2   7   84.67    3.40
   5   2  -6  173.81    4.70
   5   2  -6  182.04    5.00
  -5  -2   6  180.93    5.44
  -5  -2   6  180.93    5.23
   5   2  -6  178.73    5.08
  -5  -2   6  184.03    5.41
   5   2  -5  711.75   17.45
  -5  -2   5  739.38   18.30
  -5  -2   5  741.22   18.12
  -5  -2   5  710.27   18.10
  -5  -2   4  113.18    3.85
  -5  -2   4  110.26    3.69
  -5  -2   4  121.22    3.59
  -5  -2   3   30.89    1.44
   5   2  -2   92.47    3.06
  -5  -2   2   93.57    2.66
   5   2  -1  177.94    4.88
  -5  -2   1  181.45    5.06
  -5  -2   1  167.66    4.27
   5   2   0  240.30    6.43
  -5  -2   0  229.79    6.79
  -5  -2   0  239.05    6.58
   5   2   0  240.00    6.61
  -5  -2  -1  402.75   10.02
   5   2   1  379.44   10.04
  -5  -2  -1  374.55   10.38
  -5  -2  -1  392.14   10.23
   5   2   1  405.52   10.37
   5   2   2  149.12    4.64
  -5  -2  -2  153.76    4.43
   5   2   2  140.34    4.24
  -5  -2  -2  139.01    4.53
  -5  -2  -2  141.98    4.39
  -5  -2  -3   44.13    2.39
   5   2   3   39.36    1.98
  -5  -2  -3   40.92    2.23
  -5  -2  -3   41.18    2.11
  -5  -2  -3   39.96    1.90
   5   2   3   39.63    2.08
   5   2   3   41.45    2.45
   5   2   4    1.61    2.03
  -5  -2  -4    1.22    1.83
  -5  -2  -4    1.43    1.47
  -5  -2  -4    0.63    1.40
   5   2   4   -0.37    1.36
   5   2   4   -0.03    1.46
  -5  -2  -4   -0.05    1.33
   5   2   5   15.60    2.46
  -5  -2  -5   17.92    2.46
  -5  -2  -5   15.56    1.78
  -5  -2  -5   15.88    1.70
   5   2   5   17.28    1.56
  -5  -2  -6   40.49    3.15
  -5  -2  -6   31.56    2.04
   5   2   6   40.52    2.97
  -5  -2  -7   70.34    3.98
   5   2   7   61.55    2.35
   5   2   7   66.39    3.76
   5   2   8  101.26    4.32
  -5  -2  -8  103.92    4.61
   5   2   9   48.87    4.02
  -5  -2  -9   55.15    4.34
   5   2  10   -0.15    3.48
  -5  -2 -10    6.63    3.82
   5   2  11    2.59    3.89
  -5  -2 -11    9.27    4.10
   5   2  12    3.71    3.97
  -5  -2 -12    5.61    4.27
   5   3 -19   31.12    4.76
  -5  -3  19   25.52    5.88
   5   3 -18   97.77    5.72
  -5  -3  18  105.14    7.11
   5   3 -17   92.01    5.31
  -5  -3  17   83.68    6.41
  -5  -3  16   33.11    4.90
   5   3 -16   31.74    3.85
  -5  -3  16   32.06    4.92
   5   3 -15    5.45    3.03
   5   3 -15    3.18    1.30
  -5  -3  15    6.63    4.06
  -5  -3  15    1.73    3.98
   5   3 -14    1.26    2.66
  -5  -3  14   -0.89    1.66
  -5  -3  14    3.73    3.73
  -5  -3  14    1.14    3.54
   5   3 -13   -0.30    1.32
   5   3 -13    1.12    2.36
  -5  -3  13    1.76    1.69
  -5  -3  13    1.22    3.23
   5   3 -12   38.61    2.68
   5   3 -12   33.91    1.93
   5   3 -12   33.23    1.69
  -5  -3  12   33.06    2.15
  -5  -3  12   34.84    2.06
  -5  -3  12   38.59    3.60
   5   3 -11  104.17    3.58
  -5  -3  11  108.97    3.47
   5   3 -11  100.53    2.88
  -5  -3  11  100.98    4.53
  -5  -3  10  203.86    6.02
   5   3 -10  197.07    5.68
  -5  -3  10  207.40    6.90
   5   3 -10  198.15    5.91
   5   3  -9  266.06    7.54
  -5  -3   9  284.47    7.90
   5   3  -9  286.21    7.43
   5   3  -9  284.90    7.57
  -5  -3   9  273.46    8.48
   5   3  -8   18.56    1.43
  -5  -3   8   20.93    2.19
   5   3  -8   19.08    1.56
  -5  -3   8   19.45    1.88
  -5  -3   8   17.11    1.72
   5   3  -8   19.15    1.63
   5   3  -7    0.04    1.32
  -5  -3   7    1.05    1.55
   5   3  -7    0.49    0.94
   5   3  -7    0.48    1.24
  -5  -3   7    0.68    1.40
  -5  -3   6    2.00    1.43
  -5  -3   6    3.05    1.38
   5   3  -6    1.37    1.22
  -5  -3   5   96.04    3.40
  -5  -3   5  102.77    3.41
  -5  -3   4   51.23    2.14
   5   3  -3   -1.39    0.73
   5   3  -2  450.17   11.90
  -5  -3   2  445.96   12.05
   5   3  -2  488.95   12.05
   5   3  -2  479.93   11.94
  -5  -3   1    8.06    0.78
   5   3  -1    6.89    1.38
  -5  -3   1    5.56    1.41
   5   3  -1    7.34    1.41
  -5  -3   0   31.68    1.48
  -5  -3   0   28.04    2.04
  -5  -3   0   30.80    1.91
   5   3   0   30.17    1.92
   5   3   1   10.58    1.80
  -5  -3  -1   12.08    1.37
  -5  -3  -1   11.20    1.64
   5   3   1   12.01    1.60
  -5  -3  -1    9.80    0.63
  -5  -3  -2   40.10    2.14
  -5  -3  -2   40.23    2.33
   5   3   2   40.84    2.22
   5   3   2   41.57    2.54
  -5  -3  -3  503.74    8.87
  -5  -3  -3  485.76    8.75
   5   3   3  483.91    9.08
  -5  -3  -4  108.11    4.06
  -5  -3  -4  100.70    3.67
  -5  -3  -4   98.52    3.52
  -5  -3  -4  106.76    3.39
   5   3   4  103.13    4.18
  -5  -3  -5  114.42    4.45
   5   3   5  115.35    3.72
  -5  -3  -5  109.07    3.79
  -5  -3  -5  107.24    3.65
   5   3   5  108.79    4.54
   5   3   6   74.02    2.83
  -5  -3  -6   68.51    2.92
   5   3   6   75.58    4.05
  -5  -3  -7    0.46    1.55
   5   3   7    2.71    2.90
  -5  -3  -7    1.40    2.84
   5   3   8   12.93    3.49
  -5  -3  -8   15.54    3.42
   5   3   9   27.36    3.95
  -5  -3  -9   28.01    3.93
   5   3  10   40.18    4.42
  -5  -3 -10   48.39    4.61
   5   3  11   25.23    4.37
  -5  -3 -11   34.78    4.56
  -5  -3 -12   13.50    4.55
  -5  -4  19   10.93    5.52
   5   4 -18   -4.50    3.95
  -5  -4  18    5.77    5.07
   5   4 -17   27.29    4.06
  -5  -4  17   20.84    4.95
  -5  -4  17   26.21    5.09
  -5  -4  16   92.33    6.03
   5   4 -16   86.83    4.90
  -5  -4  16  105.62    6.14
  -5  -4  15  100.98    5.98
   5   4 -15   85.78    4.67
   5   4 -15  103.26    3.17
  -5  -4  15  103.16    5.89
   5   4 -14   17.92    2.88
  -5  -4  14   21.57    3.98
   5   4 -14   16.79    1.86
  -5  -4  14   22.11    2.15
   5   4 -13   43.69    3.10
   5   4 -13   38.68    2.27
  -5  -4  13   45.67    2.63
  -5  -4  13   40.57    4.01
   5   4 -12   32.78    2.63
   5   4 -12   36.13    2.20
  -5  -4  12   34.22    2.42
  -5  -4  12   29.95    3.54
   5   4 -11   22.87    2.12
  -5  -4  11   20.07    2.12
  -5  -4  11   18.03    2.94
   5   4 -10   10.79    1.73
  -5  -4   9  428.99   11.53
   5   4  -9  416.95   10.64
   5   4  -9  404.03    9.98
   5   4  -8  110.64    3.07
   5   4  -8  111.85    3.79
  -5  -4   8  115.02    4.31
  -5  -4   7  142.09    4.84
   5   4  -7  151.21    4.58
   5   4  -7  146.07    3.99
  -5  -4   7  144.02    4.91
   5   4  -6    9.23    1.12
  -5  -4   6    7.53    1.90
   5   4  -5  296.21    8.24
  -5  -4   5  290.99    8.45
   5   4  -5  311.58    7.86
   5   4  -4    2.39    1.45
   5   4  -3    3.81    1.28
   5   4  -3    3.27    1.44
  -5  -4   2   71.75    2.04
   5   4  -2   74.74    2.92
   5   4  -2   76.62    2.84
  -5  -4   1  116.70    3.31
  -5  -4   1  125.38    4.25
   5   4  -1  118.43    3.97
  -5  -4   0  276.24    7.34
   5   4   0  291.04    7.81
  -5  -4  -1  201.50    5.55
   5   4   1  188.17    5.98
  -5  -4  -2  100.08    3.52
  -5  -4  -2   98.34    3.71
  -5  -4  -2   97.64    3.55
  -5  -4  -2   99.87    2.88
   5   4   2   91.18    3.89
  -5  -4  -3    2.17    1.08
   5   4   3    0.69    2.27
  -5  -4  -3   -0.19    1.82
  -5  -4  -3    1.39    1.82
   5   4   3    1.48    1.87
  -5  -4  -3    0.39    1.80
  -5  -4  -4   63.37    3.21
   5   4   4   60.75    2.81
  -5  -4  -4   59.67    2.87
  -5  -4  -4   58.35    2.83
  -5  -4  -4   60.76    2.21
   5   4   4   59.70    3.59
   5   4   5  112.12    4.86
  -5  -4  -5  117.61    4.59
   5   4   5  109.58    3.86
  -5  -4  -5  111.66    3.99
  -5  -4  -6   98.40    3.65
   5   4   6  100.30    3.64
   5   4   7   44.50    3.98
  -5  -4  -7   49.64    3.72
  -5  -4  -8   28.06    3.73
   5   4   8   22.75    3.89
   5   4   9    6.03    3.99
  -5  -4  -9   -3.82    3.69
   5   4  10    6.80    4.15
  -5  -4 -10    5.49    3.96
  -5  -4 -11    8.15    4.19
  -5  -5  20   18.90    5.79
  -5  -5  19   13.20    5.45
  -5  -5  19   15.55    5.47
  -5  -5  18   23.40    5.24
  -5  -5  18   17.84    5.11
  -5  -5  17   90.81    6.48
  -5  -5  17   97.45    6.39
  -5  -5  16   53.52    5.23
  -5  -5  16   59.22    5.37
   5   5 -15    1.33    1.90
  -5  -5  15    1.14    2.07
  -5  -5  15    1.40    3.81
   5   5 -14   71.31    3.16
  -5  -5  14   85.88    3.54
  -5  -5  14   80.34    5.17
   5   5 -13  164.43    5.16
  -5  -5  13  177.31    5.59
  -5  -5  13  165.27    6.83
  -5  -5  13  170.49    6.88
   5   5 -12   91.49    3.46
   5   5 -11   90.46    3.50
   5   5 -10   93.55    3.61
  -5  -5  10  100.37    3.98
  -5  -5   9   69.58    2.49
  -5  -5   9   69.67    3.38
  -5  -5   9   70.75    3.54
   5   5  -9   61.49    1.81
   5   5  -8    1.43    0.88
  -5  -5   8   -0.05    1.07
  -5  -5   8    0.62    2.05
  -5  -5   7   62.59    2.14
  -5  -5   7   71.42    3.28
   5   5  -7   67.49    2.18
  -5  -5   6   91.26    2.64
  -5  -5   6   93.87    3.82
   5   5  -6   99.13    2.97
  -5  -5   5  140.21    3.62
  -5  -5   4   47.40    1.44
   5   5  -4   56.64    2.26
   5   5  -3  134.50    4.22
  -5  -5   2  114.35    4.09
   5   5  -2  114.11    3.69
  -5  -5   1   93.48    2.93
  -5  -5   1  100.82    3.90
   5   5  -1  101.06    3.67
  -5  -5   0   32.58    1.77
  -5  -5   0   35.04    2.59
  -5  -5  -1  196.48    5.68
   5   5   1  200.58    6.07
  -5  -5  -1  202.32    6.22
  -5  -5  -2  281.94    7.82
   5   5   2  280.20    7.94
  -5  -5  -2  283.26    7.39
   5   5   2  282.51    8.49
  -5  -5  -3    8.30    1.35
   5   5   3    3.46    2.62
  -5  -5  -3    8.21    2.03
  -5  -5  -3    7.65    2.00
   5   5   3    6.72    2.10
   5   5   4   52.11    3.77
  -5  -5  -4   58.11    3.23
   5   5   4   51.20    2.94
  -5  -5  -4   54.24    2.96
  -5  -5  -4   61.28    2.28
   5   5   5   28.04    3.56
  -5  -5  -5   27.14    2.89
   5   5   5   25.19    2.44
  -5  -5  -5   23.74    2.29
   5   5   6    3.54    3.39
  -5  -5  -6    7.88    2.93
  -5  -5  -6    2.20    1.94
   5   5   7   15.85    3.91
  -5  -5  -7   23.42    3.51
   5   5   8    9.36    4.04
  -5  -5  -8   13.32    3.61
   5   5   9   12.83    4.36
  -5  -5  -9   16.98    3.90
  -5  -5 -10   24.38    4.34
  -5  -5 -11   26.39    4.53
  -5  -6  19   12.44    5.44
  -5  -6  19   -2.60    5.16
  -5  -6  18   11.73    5.03
  -5  -6  18   14.34    5.21
  -5  -6  17   59.42    5.66
  -5  -6  17   50.83    5.55
   5   6 -16   47.42    2.84
  -5  -6  16   76.24    5.53
  -5  -6  15  156.54    5.24
   5   6 -15  140.83    4.84
   5   6 -14  135.94    4.75
  -5  -6  14  152.61    5.22
  -5  -6  14  142.11    6.58
   5   6 -13   11.31    2.25
  -5  -6  12   30.26    2.98
   5   6 -12   26.96    2.44
  -5  -6  11  208.37    6.32
   5   6 -11  173.42    5.79
  -5  -6  10  214.64    6.62
   5   6 -10  197.21    6.18
  -5  -6  10  202.33    7.02
  -5  -6   9  126.67    3.87
   5   6  -9  124.09    4.50
  -5  -6   9  132.41    4.87
   5   6  -8   25.45    1.38
  -5  -6   8   28.49    1.56
   5   6  -8   28.43    2.43
  -5  -6   8   28.56    2.76
   5   6  -7  272.25    7.04
  -5  -6   7  265.86    6.96
  -5  -6   7  273.47    8.11
  -5  -6   6  126.32    2.41
  -5  -6   6  127.24    4.03
   5   6  -5   10.37    1.60
  -5  -6   5    8.65    0.91
   5   6  -5    8.65    2.11
   5   6  -4   18.33    2.29
   5   6  -4   14.43    1.86
   5   6  -3  153.25    5.16
   5   6  -3  154.05    4.88
   5   6  -2  222.45    6.85
  -5  -6   2  235.81    7.11
   5   6  -2  227.71    6.81
  -5  -6   1  162.94    4.84
   5   6  -1  171.70    5.58
  -5  -6   1  186.41    5.87
   5   6  -1  188.86    5.74
  -5  -6   0   39.61    2.09
  -5  -6   0   42.67    3.00
   5   6   0   42.27    2.85
  -5  -6  -1   23.57    2.03
  -5  -6  -1   28.86    2.73
   5   6   1   27.82    2.59
   5   6   2   13.87    2.84
  -5  -6  -2   12.45    2.04
  -5  -6  -2   14.00    2.50
   5   6   2    9.79    2.44
   5   6   3   26.07    3.38
  -5  -6  -3   26.48    2.47
   5   6   3   23.55    2.73
   5   6   4   35.76    3.75
  -5  -6  -4   33.68    2.90
   5   6   4   27.49    2.75
  -5  -6  -4   31.26    2.65
   5   6   5   40.25    4.13
  -5  -6  -5   46.80    3.43
  -5  -6  -5   40.10    2.77
   5   6   5   35.51    2.91
   5   6   6   88.36    5.23
  -5  -6  -6   75.54    3.55
   5   6   7   34.66    4.52
  -5  -6  -7   40.11    3.84
  -5  -6  -8   19.55    3.75
  -5  -6  -9   -2.12    3.86
  -5  -7  19   35.40    5.90
  -5  -7  18   10.19    5.07
  -5  -7  17    2.10    4.67
   5   7 -16   30.52    2.79
   5   7 -15   21.33    2.72
   5   7 -14   29.95    2.83
  -5  -7  13  129.34    5.12
   5   7 -13  124.39    4.67
  -5  -7  12  220.37    6.90
   5   7 -12  192.23    6.36
  -5  -7  11   53.00    3.63
   5   7 -11   51.85    3.21
  -5  -7  11   47.34    3.94
  -5  -7  10    6.90    2.79
   5   7 -10    4.29    2.31
  -5  -7   9    8.81    1.44
  -5  -7   9    7.68    2.60
   5   7  -9   12.01    2.44
  -5  -7   8   23.77    1.60
  -5  -7   8   23.18    2.98
   5   7  -8   23.96    2.59
  -5  -7   7  150.35    3.92
  -5  -7   7  164.22    5.43
   5   7  -6  516.96   12.95
  -5  -7   6  494.49   12.60
   5   7  -6  515.94   13.55
  -5  -7   6  509.18   13.87
   5   7  -5  172.59    5.17
   5   7  -5  164.65    5.62
   5   7  -4   42.62    2.57
   5   7  -4   38.50    2.97
   5   7  -3    2.65    2.03
  -5  -7   3    1.87    2.48
   5   7  -3    5.22    2.31
   5   7  -2    1.88    2.19
  -5  -7   2    2.10    2.53
   5   7  -2   -1.19    2.35
   5   7  -1   -0.06    2.42
  -5  -7   1    2.97    2.55
   5   7  -1    0.51    2.39
   5   7   0   76.68    4.01
  -5  -7   0   87.89    4.00
   5   7   0   80.00    3.81
  -5  -7  -1   38.90    2.41
  -5  -7  -1   39.97    3.29
   5   7   1   40.63    3.16
  -5  -7  -2  117.33    4.34
  -5  -7  -2  125.75    4.86
   5   7   2  119.69    4.76
   5   7   3  121.73    5.63
  -5  -7  -3  114.15    4.40
   5   7   3  107.57    4.62
   5   7   4    3.91    3.71
   5   7   4    3.76    2.76
  -5  -7  -4    5.12    2.55
   5   7   5    8.95    3.94
  -5  -7  -5    5.36    2.85
  -5  -7  -5    1.14    2.33
  -5  -7  -6    7.31    3.18
  -5  -7  -7    8.03    3.50
  -5  -7  -8   26.81    4.11
  -5  -8  19   11.06    5.39
  -5  -8  18   45.68    5.94
   5   8 -16    7.42    2.81
   5   8 -15   38.98    3.26
   5   8 -14    4.72    2.81
  -5  -8  14    9.10    3.20
   5   8 -13    0.90    2.71
  -5  -8  13   -0.36    3.06
  -5  -8  12   19.03    3.78
  -5  -8  12   21.73    3.31
   5   8 -12   16.42    2.84
  -5  -8  11   76.42    4.27
   5   8 -11   68.12    3.79
  -5  -8  10  375.02   10.79
   5   8 -10  355.05   10.38
  -5  -8   9  251.50    7.89
   5   8  -9  228.56    7.49
  -5  -8   8  162.19    4.82
  -5  -8   8  182.22    6.27
  -5  -8   7   55.04    2.28
  -5  -8   7   60.90    3.81
   5   8  -6   68.05    3.00
   5   8  -6   71.34    3.88
   5   8  -5   30.47    2.48
   5   8  -5   34.19    3.06
   5   8  -4   66.65    3.38
   5   8  -4   70.50    3.83
   5   8  -3  155.28    5.40
  -5  -8   3  144.05    5.74
   5   8  -3  149.39    5.55
   5   8  -2  135.55    5.23
  -5  -8   2  138.86    5.43
   5   8  -2  129.70    5.25
   5   8  -1   50.41    3.63
  -5  -8   1   52.35    3.69
   5   8  -1   57.84    3.74
   5   8   0   15.50    3.26
  -5  -8   0   10.33    1.90
  -5  -8   0   12.01    3.00
   5   8   0   14.66    3.06
   5   8   1    1.12    2.87
  -5  -8  -1    1.00    2.02
  -5  -8  -1    2.66    2.87
   5   8   2    5.57    3.08
  -5  -8  -2    6.34    2.31
  -5  -8  -2    8.59    3.03
  -5  -8  -3   42.31    3.13
   5   8   3   43.32    3.65
  -5  -8  -4   57.53    3.57
   5   8   4   44.67    3.66
  -5  -8  -5   38.39    3.54
  -5  -8  -5   30.29    3.04
  -5  -8  -6    3.12    3.26
  -5  -9  19   16.54    5.59
  -5  -9  18   -2.28    5.14
   5   9 -17   -0.70    3.04
   5   9 -16    6.64    3.06
  -5  -9  15  110.87    5.20
   5   9 -15   91.65    4.66
  -5  -9  14  109.48    5.24
   5   9 -14  101.10    4.86
  -5  -9  13   87.39    4.85
   5   9 -13   79.41    4.42
  -5  -9  13   91.60    5.68
   5   9 -12   14.68    3.25
  -5  -9  12   17.22    3.56
   5   9 -11   -1.75    3.02
  -5  -9  11   -2.84    3.40
  -5  -9  10   39.57    3.93
   5   9 -10   36.24    3.57
  -5  -9   9   35.51    3.81
   5   9  -9   35.52    3.51
  -5  -9   8  348.49   10.52
  -5  -9   7  137.22    5.61
   5   9  -7  119.75    5.34
   5   9  -6   61.17    4.01
   5   9  -5   22.09    3.33
   5   9  -4   18.69    3.38
  -5  -9   3   27.79    3.54
   5   9  -3   27.19    3.52
   5   9  -2  140.02    5.58
  -5  -9   2  141.73    5.78
   5   9  -2  133.65    5.71
   5   9  -1   68.67    4.45
  -5  -9   1   78.19    4.45
   5   9  -1   75.57    4.50
  -5  -9   0   42.31    2.73
  -5  -9   0   56.27    4.02
   5   9   0   50.02    3.96
  -5  -9  -1   42.39    2.90
  -5  -9  -1   44.46    3.84
   5   9   1   43.39    3.88
  -5  -9  -2   46.25    3.17
   5   9   2   46.87    4.06
  -5  -9  -2   42.89    3.87
  -5  -9  -3    3.30    2.71
   5   9   3    3.81    3.34
  -5  -9  -4    5.62    2.94
  -5 -10  17    3.86    5.12
   5  10 -17   -1.18    3.41
   5  10 -16   12.47    3.56
  -5 -10  16   19.36    3.92
   5  10 -15   -1.02    3.43
  -5 -10  15   -3.02    3.80
  -5 -10  14    9.59    4.58
   5  10 -14    7.57    3.45
  -5 -10  14    8.18    3.90
  -5 -10  13   71.33    4.83
   5  10 -13   55.19    4.39
  -5 -10  12   63.78    4.70
   5  10 -12   55.93    4.28
  -5 -10  11   25.50    3.99
   5  10 -11   24.73    3.71
  -5 -10  10   63.05    4.54
   5  10 -10   54.28    4.30
   5  10  -9    6.44    3.55
  -5 -10   9    4.86    3.53
  -5 -10   8   -0.98    3.56
   5  10  -7    1.55    3.41
  -5 -10   6   59.69    4.53
   5  10  -6   57.30    4.47
   5  10  -5  146.61    6.24
  -5 -10   4  112.53    5.55
   5  10  -4  109.43    5.55
   5  10  -3   13.37    3.71
  -5 -10   3   16.69    3.72
   5  10  -2   31.47    4.03
  -5 -10   2   44.20    4.11
   5  10  -1    3.75    3.61
  -5 -10   1    2.86    3.58
   5  10   0   17.60    3.93
  -5 -10   0   16.69    2.48
  -5 -10   0   18.98    3.75
  -5 -10  -1   46.45    3.22
  -5 -10  -1   57.71    4.39
   5  10   1   58.42    4.52
  -5 -10  -2   22.49    3.75
   5  10   2   21.41    3.94
   5  11 -17    2.18    3.69
  -5 -11  16   24.07    4.40
   5  11 -16   21.94    4.09
  -5 -11  15   35.50    5.48
  -5 -11  15   42.43    4.63
   5  11 -15   27.44    4.18
   5  11 -14   20.10    4.07
  -5 -11  14   23.55    4.43
   5  11 -13   16.74    3.97
  -5 -11  13   16.16    4.25
   5  11 -12   19.59    4.05
  -5 -11  12   18.36    4.29
   5  11 -11   11.16    3.97
  -5 -11  11    4.48    4.03
   5  11 -10   30.57    4.35
  -5 -11  10   35.60    4.48
  -5 -11   9   76.65    5.25
  -5 -11   8   70.21    5.04
   5  11  -7   30.03    4.40
   5  11  -6   19.76    4.30
   5  11  -5    7.48    4.11
   5  11  -4   32.23    4.44
  -5 -11   4   25.08    4.35
   5  11  -3   80.30    5.27
  -5 -11   3   79.77    5.26
  -5 -11   2   62.26    4.86
   5  11  -2   53.41    4.94
  -5 -11   1   57.05    4.71
   5  11  -1   51.09    4.89
   5  11   0   10.44    4.18
  -5 -11   0   13.90    4.02
  -5 -11  -1    6.69    3.84
   5  11   1    3.82    4.13
  -5 -11  -2   -4.06    3.80
   5  11   2   -6.73    4.20
   5  12 -17   -4.18    4.20
  -5 -12  16    5.32    5.42
  -5 -12  16    9.35    4.51
   5  12 -16    4.18    4.03
  -5 -12  15    5.26    5.02
  -5 -12  15   -0.77    4.38
   5  12 -15   -1.18    4.21
  -5 -12  14    9.43    4.48
   5  12 -14    7.31    4.24
  -5 -12  13   22.63    4.76
   5  12 -13   21.87    4.55
  -5 -12  12   55.11    5.24
   5  12 -12   56.83    5.17
   5  12 -11   33.75    4.78
  -5 -12  11   38.46    4.83
   5  12 -10   20.58    4.61
  -5 -12  10   29.83    4.70
  -5 -12   9    0.52    4.26
   5  12  -8   21.46    4.78
  -5 -12   8   20.34    4.58
   5  12  -7   45.86    5.12
   5  12  -6   62.42    5.50
   5  12  -5   43.74    5.17
  -5 -12   5   43.35    4.94
   5  12  -4    9.98    4.51
  -5 -12   4   12.58    4.42
   5  12  -3    1.39    4.50
  -5 -12   3   -0.69    4.22
   5  12  -2   -0.49    4.53
  -5 -12   2    6.12    4.32
  -5 -12   1   18.64    4.41
   5  12  -1   14.73    4.53
   5  12   0    6.89    4.48
  -5 -12   0    5.82    4.19
  -5 -12  -1   33.00    4.58
   5  12   1   33.57    4.93
  -5 -12  -2   28.41    4.38
   5  13 -17    3.22    4.35
  -5 -13  16   16.51    5.71
  -5 -13  16   12.83    4.84
   5  13 -16   10.90    4.66
  -5 -13  15    0.83    4.77
   5  13 -15    5.57    4.58
  -5 -13  14    7.36    4.84
   5  13 -14    3.77    4.62
  -5 -13  13    4.78    4.73
   5  13 -13   -3.81    4.71
   5  13 -12    4.64    4.75
  -5 -13  12   -0.88    4.66
  -5 -13  11   20.04    4.89
   5  13 -11    8.24    4.91
   5  13 -10   19.03    5.06
  -5 -13  10   19.48    4.88
  -5 -13   9   29.50    5.02
   5  13  -8   22.32    5.18
   5  13  -7    6.50    4.98
   5  13  -6   -0.44    4.85
  -5 -13   6   -1.42    4.75
   5  13  -5   22.74    5.18
  -5 -13   5   16.53    4.94
   5  13  -4    4.46    5.02
  -5 -13   4   13.18    4.82
  -5 -13   3   27.12    5.07
   5  13  -3   24.26    5.26
  -5 -13   2   15.63    4.86
   5  13  -2   22.47    5.12
  -5 -13   1    8.86    4.65
   5  13  -1    8.40    4.95
   5  13   0   -1.78    4.86
  -5 -13   0    1.96    4.37
  -5 -13  -1    3.01    4.24
  -5 -14  15    4.31    5.02
   5  14 -15    8.36    5.06
  -5 -14  14   28.71    5.45
   5  14 -14   19.17    5.29
   5  14 -13   29.53    5.53
  -5 -14  13   28.23    5.57
   5  14 -12   12.74    5.25
  -5 -14  12    5.60    5.16
  -5 -14  11   17.24    5.39
   5  14 -11   15.01    5.34
  -5 -14  10   14.23    5.27
  -5 -14   9    1.18    5.04
   5  14  -8   18.23    5.62
   5  14  -7   26.34    5.68
   5  14  -6   26.91    5.80
  -5 -14   6   27.31    5.53
   5  14  -5   21.10    5.59
  -5 -14   5   31.58    5.53
   5  14  -4   -6.88    5.51
  -5 -14   4    1.67    5.01
  -5 -14   3   -7.82    5.09
   5  14  -3    4.69    5.26
  -5 -14   2    2.63    4.85
   5  14  -2    5.25    5.22
   6 -14  -2    5.60    4.59
   6 -14  -1    8.76    4.69
  -6  14   1    6.74    6.36
   6 -14   0   -2.31    4.73
  -6  14   0   -6.11    6.32
   6 -14   1    9.99    4.85
  -6  14  -1    4.79    6.29
  -6  14  -2   64.72    7.27
   6 -14   2   62.54    5.31
   6 -14   3   29.09    4.98
  -6  14  -3   33.77    6.71
   6 -14   4   10.25    4.81
   6 -14   4    0.96    4.79
   6 -14   5    5.10    4.71
   6 -14   5   16.36    5.10
  -6  14  -5   18.19    6.40
   6 -14   6    3.67    4.74
   6 -14   6    2.05    5.03
  -6  14  -6   11.53    6.21
   6 -14   7   -2.42    4.64
  -6  14  -7   -8.31    6.00
   6 -14   8    3.26    4.75
   6 -13  -6   46.12    5.38
   6 -13  -6   32.59    4.59
   6 -13  -5    3.94    4.24
   6 -13  -4   10.98    4.33
   6 -13  -3   19.04    4.51
   6 -13  -2    8.97    4.45
  -6  13   2    9.93    5.95
   6 -13  -1    6.72    4.54
   6 -13  -1   22.51    3.97
  -6  13   1   13.00    5.93
   6 -13   0    1.79    4.43
  -6  13   0   -2.61    5.92
   6 -13   0   -4.74    4.01
   6 -13   1   58.50    4.97
  -6  13  -1   47.57    6.55
   6 -13   2   13.46    4.40
  -6  13  -2   11.87    5.93
   6 -13   3   -1.10    4.45
  -6  13  -3   -3.65    5.77
   6 -13   4   12.92    4.59
   6 -13   4   13.43    4.69
   6 -13   5    3.34    4.47
   6 -13   5    1.77    4.68
  -6  13  -5   -0.28    5.61
   6 -13   6   14.82    4.69
  -6  13  -6   25.00    5.99
   6 -13   7   46.17    5.23
  -6  13  -7   66.88    6.53
   6 -13   8   17.88    4.59
   6 -13   9    4.66    4.42
   6 -13   9    3.39    5.12
   6 -13  10    5.80    4.31
   6 -13  10    5.30    5.32
   6 -13  11    7.12    5.17
   6 -13  11    7.62    4.33
   6 -12  -7    5.56    4.34
   6 -12  -7    7.75    3.82
   6 -12  -6   34.74    4.35
   6 -12  -6   45.43    5.26
   6 -12  -5   43.58    4.54
   6 -12  -4   68.87    5.11
   6 -12  -3   23.22    4.47
  -6  12   3   27.02    5.69
  -6  12   2   -1.32    5.25
   6 -12  -2    0.09    4.14
   6 -12  -2    4.55    3.55
   6 -12  -1   -0.37    4.12
   6 -12  -1    2.14    3.68
  -6  12   1    6.31    5.33
   6 -12   0   11.48    4.29
   6 -12   0   10.11    3.91
  -6  12   0   -0.68    5.34
   6 -12   1   43.66    4.57
  -6  12  -1   48.93    5.86
   6 -12   2   34.07    4.61
  -6  12  -2   22.04    5.45
   6 -12   3   65.76    5.19
   6 -12   3   58.47    5.13
   6 -12   4  105.35    5.97
   6 -12   4  100.24    5.82
   6 -12   5   17.86    4.36
  -6  12  -5   22.78    5.50
   6 -12   6   26.15    4.49
  -6  12  -6   33.97    5.62
  -6  12  -7   11.66    5.19
   6 -12   7    5.86    4.23
   6 -12   8   14.16    4.30
   6 -12   8    6.60    4.84
   6 -12   9   57.03    5.57
   6 -12   9   47.73    4.81
   6 -12  10   26.68    4.34
   6 -12  10   14.14    5.16
   6 -12  11   12.68    4.14
   6 -12  11   16.99    5.27
   6 -12  11   22.66    5.08
   6 -11  -8   20.74    3.75
   6 -11  -8   22.46    4.16
   6 -11  -7    9.12    3.64
   6 -11  -7   10.49    4.18
   6 -11  -6   -2.98    3.67
   6 -11  -6   -7.82    4.30
   6 -11  -5   10.16    3.93
   6 -11  -4   22.45    4.11
   6 -11  -4   32.64    3.30
   6 -11  -3   64.14    4.06
   6 -11  -3   57.02    4.66
  -6  11   3   65.55    5.84
   6 -11  -2  206.81    6.89
  -6  11   2  184.94    8.39
   6 -11  -2  186.51    7.43
   6 -11  -1  108.85    5.19
  -6  11   1   99.77    6.51
   6 -11  -1   98.50    5.52
   6 -11   0    1.07    3.64
  -6  11   0    7.27    4.80
   6 -11   1    0.16    3.70
  -6  11  -1    0.38    4.72
   6 -11   2   12.45    3.98
  -6  11  -2   14.40    4.74
   6 -11   3    8.52    3.93
   6 -11   3    9.75    3.97
   6 -11   4   21.28    4.13
  -6  11  -4   28.50    5.06
  -6  11  -5  103.44    6.28
   6 -11   5   89.63    5.39
  -6  11  -6   78.08    5.86
   6 -11   6   68.08    4.91
   6 -11   7   23.81    4.11
   6 -11   7   27.17    4.71
   6 -11   8    1.95    3.85
   6 -11   8   -0.10    4.39
   6 -11   9    2.30    3.92
   6 -11   9   -7.46    4.74
   6 -11  10    3.05    3.87
   6 -11  10    3.05    4.83
   6 -11  10    6.52    4.63
   6 -11  11   15.14    4.01
   6 -11  11   20.64    5.13
   6 -11  11   23.99    4.77
   6 -11  12   31.02    5.32
  -6  10  11    1.84    4.82
  -6  10  10    9.35    4.59
   6 -10  -9   -0.96    3.13
   6 -10  -9   -2.22    3.53
  -6  10   9   -0.75    5.74
  -6  10   9   -2.66    4.19
   6 -10  -8   49.64    4.42
   6 -10  -8   45.29    3.93
  -6  10   8   43.97    6.13
  -6  10   8   41.02    4.54
   6 -10  -7  125.06    5.91
  -6  10   7  105.38    7.24
   6 -10  -7  116.88    5.36
  -6  10   7  112.05    5.47
   6 -10  -6  105.02    5.17
  -6  10   6   99.06    6.87
  -6  10   6   96.42    4.71
   6 -10  -5   12.69    3.67
   6 -10  -5   10.23    2.76
  -6  10   5   10.49    2.76
   6 -10  -4    5.22    3.57
   6 -10  -4    0.36    2.84
  -6  10   4   -4.72    4.70
  -6  10   4    0.93    2.15
   6 -10  -3    5.45    3.55
   6 -10  -3   -1.23    3.01
  -6  10   3    0.56    4.29
   6 -10  -2   49.03    3.79
  -6  10   2   41.48    4.91
  -6  10   2   31.85    4.74
   6 -10  -2   42.06    4.13
  -6  10   1    9.16    4.40
   6 -10  -1    3.63    3.55
   6 -10  -1    7.43    3.37
  -6  10   1    0.11    4.00
   6 -10   0   76.82    4.57
  -6  10   0   76.82    5.58
   6 -10   1  107.77    5.34
  -6  10  -1  114.95    6.34
   6 -10   2   59.10    4.45
   6 -10   2   60.76    4.58
  -6  10  -2   61.46    5.27
   6 -10   3   33.36    3.91
   6 -10   3   25.81    4.05
   6 -10   4    5.98    3.46
  -6  10  -4    8.72    4.27
   6 -10   5    2.03    3.47
  -6  10  -5   -0.22    4.05
   6 -10   6   10.63    3.67
   6 -10   6   15.93    4.27
   6 -10   7   50.57    4.98
   6 -10   7   60.01    4.47
   6 -10   8  107.13    5.90
   6 -10   8  102.26    5.27
   6 -10   9    4.34    3.51
   6 -10   9    4.82    4.38
   6 -10  10   13.31    3.78
   6 -10  10   27.11    4.89
   6 -10  10   19.25    4.45
   6 -10  11    9.63    4.23
   6 -10  11    9.19    4.82
   6 -10  12   -1.79    4.72
   6 -10  13    7.66    4.84
  -6   9  12    3.30    5.05
  -6   9  11   19.47    6.01
  -6   9  11    7.72    4.84
  -6   9  10   54.79    6.40
  -6   9  10   54.36    5.24
   6  -9  -9   80.64    4.67
  -6   9   9   85.42    5.50
  -6   9   9   81.34    6.68
   6  -9  -9   86.84    4.36
   6  -9  -8   29.76    3.49
   6  -9  -8   28.18    3.78
  -6   9   8   17.07    5.34
  -6   9   8   29.20    4.11
   6  -9  -7   -3.05    3.25
   6  -9  -7    5.88    3.51
  -6   9   7    8.46    4.99
  -6   9   7    1.26    3.21
   6  -9  -6   53.96    3.02
  -6   9   6   42.74    5.26
  -6   9   6   46.89    3.60
   6  -9  -6   55.31    3.99
   6  -9  -5   88.62    3.91
  -6   9   5   80.31    3.92
   6  -9  -5   93.67    4.69
   6  -9  -4  166.88    6.15
  -6   9   4  137.24    7.06
   6  -9  -4  174.00    5.64
  -6   9   4  150.04    5.16
   6  -9  -3   99.52    5.00
   6  -9  -3  104.79    4.62
  -6   9   3   99.77    5.77
  -6   9   3  112.81    3.61
   6  -9  -2   94.87    4.93
   6  -9  -2  109.67    4.72
  -6   9   2  103.86    5.71
  -6   9   2   87.18    5.47
   6  -9  -1  163.76    5.96
  -6   9   1  170.46    6.91
  -6   9   0    1.68    3.86
   6  -9   0    4.19    3.13
  -6   9   0   -3.35    3.48
   6  -9   1   93.94    4.75
  -6   9  -1   96.58    5.46
   6  -9   2   76.13    4.42
   6  -9   2   72.64    4.46
   6  -9   3  204.12    7.21
   6  -9   4  179.86    6.68
  -6   9  -4  181.91    7.27
   6  -9   5   41.88    3.84
   6  -9   6   30.31    3.58
   6  -9   6   27.51    4.03
   6  -9   7   13.88    3.51
   6  -9   7   17.87    4.11
   6  -9   8    5.04    3.38
   6  -9   8   -0.66    4.01
   6  -9   9   18.64    3.52
   6  -9   9   17.30    4.42
   6  -9   9   15.06    4.03
   6  -9  10   74.96    5.35
   6  -9  10   65.66    4.32
   6  -9  10   71.05    4.95
   6  -9  11   79.57    5.61
   6  -9  12   39.19    5.10
   6  -9  13    2.85    4.56
  -6   8  13   10.98    6.03
  -6   8  13   -2.52    5.46
  -6   8  12    8.51    5.75
  -6   8  12   12.42    5.02
  -6   8  11    2.96    5.51
  -6   8  11    4.94    4.44
   6  -8 -10   85.42    4.31
  -6   8  10   71.84    6.42
   6  -8 -10   75.11    3.86
  -6   8  10   81.79    5.49
   6  -8  -9   41.16    3.39
   6  -8  -9   39.77    3.68
  -6   8   9   41.96    5.55
  -6   8   9   36.79    4.45
   6  -8  -8   67.39    4.22
  -6   8   8   60.02    5.82
  -6   8   8   68.63    4.57
   6  -8  -8   71.96    4.03
   6  -8  -7  100.25    3.63
  -6   8   7   89.83    6.14
   6  -8  -7  101.90    4.92
  -6   8   7   97.69    4.80
   6  -8  -7  104.05    4.63
   6  -8  -6   47.97    3.57
   6  -8  -6   50.66    2.90
   6  -8  -6   44.67    3.85
  -6   8   6   44.13    4.92
  -6   8   6   43.86    3.39
   6  -8  -5   75.85    4.18
   6  -8  -5   76.06    3.58
  -6   8   5   70.10    3.53
   6  -8  -4    3.87    3.10
   6  -8  -4   -2.14    2.60
  -6   8   4    1.27    1.97
   6  -8  -3  193.97    6.84
   6  -8  -3  200.16    6.47
   6  -8  -2  478.34   13.07
  -6   8   2  480.03   13.60
  -6   8   1  215.11    7.82
  -6   8   1  244.06    8.20
  -6   8   0  126.93    5.72
  -6   8   0  125.88    5.44
  -6   8  -1   55.67    3.87
  -6   8  -1   59.07    4.35
  -6   8  -2    0.94    2.73
   6  -8   3   27.43    3.28
  -6   8  -3   29.51    3.87
   6  -8   4   32.83    3.43
   6  -8   5  119.58    5.23
   6  -8   6  154.65    5.93
   6  -8   7   19.09    3.27
   6  -8   7   12.67    3.68
   6  -8   8   54.15    4.65
   6  -8   8   59.50    4.46
   6  -8   8   62.10    3.97
   6  -8   9   70.11    5.01
   6  -8   9   66.79    4.61
   6  -8   9   68.13    4.08
   6  -8  10   -2.71    3.52
   6  -8  10   -1.61    3.10
   6  -8  10    4.70    4.15
   6  -8  11   43.55    4.85
   6  -8  11   45.95    4.36
   6  -8  12   19.55    4.54
   6  -8  13   -1.48    4.41
  -6   7  14   18.95    5.88
  -6   7  14    4.10    5.51
  -6   7  13   21.00    5.85
  -6   7  13   15.72    5.26
  -6   7  12   26.56    5.68
  -6   7  12   36.96    5.20
   6  -7 -11    1.80    2.41
   6  -7 -11    0.87    2.74
  -6   7  11    3.93    5.19
  -6   7  11    2.66    4.29
   6  -7 -10    8.52    2.63
   6  -7 -10    8.93    2.89
  -6   7  10   10.82    4.86
  -6   7  10   10.56    4.03
   6  -7  -9   43.81    3.41
  -6   7   9   32.89    5.20
  -6   7   9   40.85    4.19
   6  -7  -9   37.16    3.15
   6  -7  -8    2.62    2.80
   6  -7  -8    2.93    2.73
   6  -7  -8   -0.19    1.68
  -6   7   8    1.61    4.32
  -6   7   8    3.31    3.16
   6  -7  -7   20.87    2.17
   6  -7  -7   25.34    3.08
   6  -7  -7   18.23    3.08
  -6   7   7   17.93    4.36
  -6   7   7   23.10    3.09
   6  -7  -6   92.43    4.25
   6  -7  -6   92.03    3.62
   6  -7  -6   87.33    4.44
  -6   7   6   79.57    5.27
  -6   7   6   86.15    4.06
   6  -7  -5  187.37    5.75
  -6   7   5  175.39    5.85
  -6   7   4  138.13    4.61
  -6   7   2   83.19    4.47
  -6   7   1   82.51    4.22
  -6   7   0  126.25    5.08
  -6   7  -1   95.02    4.29
  -6   7  -2   59.22    3.36
   6  -7   6   33.24    3.28
   6  -7   6   33.34    3.66
   6  -7   7   33.10    3.29
   6  -7   7   31.45    3.54
   6  -7   8   84.19    4.17
   6  -7   8   81.07    4.59
   6  -7   9   86.67    5.11
   6  -7   9   85.66    4.67
   6  -7   9   92.12    4.27
   6  -7  10   47.48    4.55
   6  -7  10   48.60    3.75
   6  -7  10   42.70    3.38
   6  -7  10   34.14    3.37
   6  -7  11   43.39    4.65
   6  -7  11   39.92    3.90
   6  -7  12    9.54    4.13
   6  -7  13    3.37    4.17
  -6   6  15   15.30    5.83
   6  -6 -14    4.17    4.32
  -6   6  14    9.48    5.44
  -6   6  14    7.15    5.06
   6  -6 -13   21.59    4.46
  -6   6  13   15.60    5.43
  -6   6  13    7.97    4.85
   6  -6 -12    3.25    3.81
  -6   6  12    2.91    5.11
  -6   6  12    5.50    4.56
   6  -6 -11    1.29    2.29
   6  -6 -11    4.25    2.47
  -6   6  11   -1.95    4.85
  -6   6  11    0.24    4.03
   6  -6 -10   25.91    2.92
  -6   6  10   23.48    4.90
  -6   6  10   26.68    4.07
   6  -6 -10   31.41    2.76
   6  -6  -9  155.57    5.30
   6  -6  -9  151.94    4.19
  -6   6   9  156.49    7.15
   6  -6  -9  155.63    5.51
  -6   6   9  141.41    6.22
   6  -6  -8  187.12    6.06
   6  -6  -8  188.77    5.17
   6  -6  -8  171.23    6.14
  -6   6   8  166.18    7.33
  -6   6   8  170.97    6.58
   6  -6  -7  149.05    4.72
   6  -6  -7  158.87    5.59
  -6   6   7  140.54    6.45
  -6   6   7  159.84    5.72
   6  -6  -6    5.53    2.61
  -6   6   6    3.47    3.28
  -6   6   6    3.51    2.22
   6  -6  -5    4.01    2.50
  -6   6   5    2.33    1.92
  -6   6   4   36.02    2.30
  -6   6   3  117.24    3.70
  -6   6   2  364.31   10.62
  -6   6   1  197.65    6.60
  -6   6   0  150.84    5.40
  -6   6  -1   16.95    2.39
  -6   6  -2    0.93    2.12
  -6   6  -3  181.00    5.68
   6  -6   4  195.25    4.96
   6  -6   4  202.11    4.99
   6  -6   5  430.89   11.65
   6  -6   5  392.70    9.88
   6  -6   6  182.23    6.44
   6  -6   6  176.65    4.87
   6  -6   7   37.73    3.41
   6  -6   7   36.78    2.02
   6  -6   8   -0.17    2.71
   6  -6   8    0.14    2.78
   6  -6   8    1.59    1.75
   6  -6   9    8.82    2.69
   6  -6   9   10.57    2.99
   6  -6   9    8.48    2.10
   6  -6  10   76.74    4.72
   6  -6  10   67.88    3.90
   6  -6  10   69.58    3.57
   6  -6  10   69.38    3.80
   6  -6  11    8.70    2.93
   6  -6  11    6.73    3.95
   6  -6  12   34.40    4.34
   6  -5 -15   13.03    4.50
  -6   5  15    2.68    5.47
  -6   5  15   -3.95    5.37
   6  -5 -14   29.30    4.54
  -6   5  14   28.94    5.56
  -6   5  14   33.66    5.54
   6  -5 -13   78.71    5.16
  -6   5  13   83.77    6.33
  -6   5  13   79.85    6.06
   6  -5 -12   71.05    4.69
   6  -5 -12   80.66    3.32
   6  -5 -12   75.40    3.16
  -6   5  12   77.56    5.98
  -6   5  12   81.93    5.64
   6  -5 -11   49.23    2.96
  -6   5  11   52.84    5.12
  -6   5  11   41.75    4.51
   6  -5 -11   46.03    2.78
   6  -5 -10   30.95    2.71
   6  -5 -10   33.48    2.83
  -6   5  10   29.28    4.44
  -6   5  10   32.61    4.02
   6  -5  -9   24.08    1.65
   6  -5  -9   24.21    2.64
  -6   5   9   28.69    4.24
  -6   5   9   29.72    3.59
   6  -5  -8  119.62    4.49
  -6   5   8  109.34    5.56
  -6   5   8  110.19    4.96
   6  -5  -7  140.92    5.05
  -6   5   7  134.95    5.88
  -6   5   7  136.60    5.20
   6  -5  -6  136.74    4.98
  -6   5   6  133.68    4.86
   6  -5  -5  328.20    9.54
  -6   5   5  331.49    9.20
   6  -5  -4   86.16    3.89
  -6   5   4   86.43    3.28
  -6   5   3   37.10    2.75
  -6   5   2   20.01    2.39
  -6   5   2   17.85    2.47
   6  -5  -1   39.81    2.88
  -6   5   1   36.75    2.72
   6  -5  -1   32.65    1.43
  -6   5   0  219.14    6.57
   6  -5   0  212.08    6.74
  -6   5   0  211.06    6.40
   6  -5   0  200.37    5.28
   6  -5   1  508.22   14.26
  -6   5  -1  547.43   13.86
   6  -5   1  523.16   12.88
   6  -5   2  582.31   15.81
  -6   5  -2  596.39   15.20
   6  -5   2  588.09   14.45
   6  -5   3    5.64    2.40
  -6   5  -3    5.80    1.77
   6  -5   4   12.94    2.55
   6  -5   5  187.92    6.34
   6  -5   6   56.94    3.46
   6  -5   7  123.58    4.89
   6  -5   8   49.34    3.31
   6  -5   9   61.33    3.30
   6  -5   9   57.55    3.15
   6  -5   9   59.19    3.47
   6  -5   9   57.78    3.51
   6  -5   9   53.71    3.33
   6  -5  10   -0.36    2.56
   6  -5  10    4.80    2.80
   6  -5  10    1.39    2.53
   6  -5  11   18.85    3.08
   6  -5  11   23.39    3.81
   6  -5  11   22.83    3.12
   6  -5  12   -3.39    3.86
   6  -4 -16   26.30    4.73
  -6   4  16   34.66    5.80
  -6   4  16   38.66    5.94
   6  -4 -15   27.47    4.48
  -6   4  15   26.25    5.52
  -6   4  15   20.10    5.38
   6  -4 -14    4.00    3.78
  -6   4  14    7.91    5.02
  -6   4  14    6.64    4.73
   6  -4 -13   22.45    3.75
  -6   4  13   19.90    4.87
  -6   4  13   16.16    4.60
   6  -4 -12   14.29    2.03
   6  -4 -12   13.69    3.25
   6  -4 -12   12.86    2.08
  -6   4  12   18.62    4.57
  -6   4  12   20.30    4.16
   6  -4 -11  130.17    4.40
   6  -4 -11  132.85    4.42
  -6   4  11  118.44    6.26
  -6   4  11  120.93    6.05
   6  -4 -10  127.68    3.51
   6  -4 -10  138.34    4.61
  -6   4  10  134.99    6.15
  -6   4  10  138.74    5.94
   6  -4  -9   60.83    3.08
  -6   4   9   55.69    4.15
  -6   4   9   52.63    3.92
   6  -4  -8    5.53    2.09
  -6   4   8    4.18    3.04
  -6   4   8    3.74    2.54
   6  -4  -7   16.10    2.24
  -6   4   7   17.03    2.48
   6  -4  -6   28.28    2.51
  -6   4   6   27.98    2.50
  -6   4   6   25.68    2.39
  -6   4   5   85.35    3.63
   6  -4  -5   84.44    3.58
  -6   4   5   76.29    3.31
  -6   4   4   15.39    2.10
   6  -4  -4   12.24    2.09
  -6   4   3  573.89   14.87
   6  -4  -3  556.99   14.05
  -6   4   2  417.65   11.13
   6  -4  -2  400.98   10.25
   6  -4  -1   90.71    3.78
  -6   4   1   90.52    3.59
   6  -4  -1   88.29    2.72
   6  -4   0    2.13    1.98
  -6   4   0    2.23    1.65
   6  -4   0    4.90    0.95
  -6   4  -1    3.75    1.65
   6  -4   1    4.86    1.02
   6  -4   1    5.62    2.04
  -6   4  -2  338.57    9.50
   6  -4   2  322.40    9.62
  -6   4  -2  349.40    9.08
  -6   4  -3   49.74    2.28
  -6   4  -3   51.80    2.83
   6  -4   3   45.92    2.92
  -6   4  -4   23.05    2.30
   6  -4   4   18.63    2.51
   6  -4   5  169.22    5.71
   6  -4   6  131.53    4.85
   6  -4   7    4.01    2.39
   6  -4   7    4.11    1.94
   6  -4   8   22.43    2.80
   6  -4   8   20.71    2.29
   6  -4   8   19.48    2.50
   6  -4   9   23.17    2.54
   6  -4   9   23.21    2.94
   6  -4   9   27.61    2.55
   6  -4   9   22.44    2.48
   6  -4  10   62.17    3.66
   6  -4  11   98.13    4.90
   6  -4  11   96.82    4.70
   6  -4  11   89.86    4.36
   6  -4  12   18.13    3.60
   6  -3 -17   -2.47    4.49
  -6   3  17   -2.28    5.65
   6  -3 -16   50.72    4.98
  -6   3  16   65.46    6.11
  -6   3  16   63.88    6.33
   6  -3 -15   64.25    4.92
  -6   3  15   70.71    5.92
  -6   3  15   70.46    6.09
   6  -3 -14   67.92    4.75
  -6   3  14   73.33    5.68
  -6   3  14   71.84    5.73
   6  -3 -13   74.16    4.56
  -6   3  13   79.28    5.59
  -6   3  13   73.73    5.60
   6  -3 -13   77.37    2.91
   6  -3 -12   57.65    2.70
   6  -3 -12   59.04    3.88
   6  -3 -12   56.09    2.65
  -6   3  12   55.51    4.84
  -6   3  12   50.57    4.73
   6  -3 -11   -0.14    2.59
   6  -3 -11   -1.56    1.89
  -6   3  11    0.64    3.31
   6  -3 -10   -3.30    1.94
  -6   3  10   -6.40    3.07
  -6   3   9   82.47    3.63
   6  -3  -9   87.30    3.48
  -6   3   9   86.67    4.34
  -6   3   8   62.40    3.11
   6  -3  -8   58.02    2.94
  -6   3   8   58.86    3.44
  -6   3   7  309.83    8.61
   6  -3  -7  300.64    8.48
  -6   3   7  293.45    8.80
  -6   3   6  573.89   14.51
   6  -3  -6  532.52   14.32
  -6   3   6  538.85   14.47
   6  -3  -5  408.96   11.04
   6  -3  -5  388.81   10.52
  -6   3   5  400.76   10.96
  -6   3   4   29.75    2.27
   6  -3  -4   28.29    2.22
   6  -3  -4   29.72    1.66
  -6   3   3   56.37    2.75
   6  -3  -3   52.97    2.09
   6  -3  -2  135.44    4.65
   6  -3  -2  138.83    3.99
   6  -3  -1  458.10   12.49
   6  -3  -1  471.12   11.80
   6  -3   0  732.80   18.88
  -6   3  -1   64.28    2.99
   6  -3   1   67.06    3.10
   6  -3   2   14.86    2.08
  -6   3  -2   16.12    1.96
  -6   3  -2   13.44    1.51
  -6   3  -3  330.82    9.06
   6  -3   3  310.74    9.11
  -6   3  -3  326.94    8.38
  -6   3  -4   25.55    2.21
   6  -3   4   25.49    2.41
  -6   3  -5  243.89    7.09
   6  -3   5  240.05    7.26
   6  -3   6  265.82    7.52
   6  -3   6  248.86    6.97
   6  -3   7  124.52    4.31
   6  -3   7  117.31    3.94
   6  -3   7  116.84    4.58
   6  -3   8  135.57    4.52
   6  -3   8  130.93    4.43
   6  -3   8  142.35    5.12
   6  -3   9    6.48    2.72
   6  -3  10   -3.27    2.88
   6  -3  11   12.51    3.11
   6  -3  12   59.99    4.54
   6  -3  12   49.48    3.89
   6  -3  13   39.54    4.57
   6  -2 -17   33.92    4.75
   6  -2 -16    0.50    3.98
  -6   2  16    0.70    4.73
   6  -2 -15    1.83    3.53
  -6   2  15    1.71    4.41
  -6   2  15   -3.33    4.73
   6  -2 -14   12.01    3.49
  -6   2  14   20.61    4.43
  -6   2  14   20.06    4.73
   6  -2 -13   37.71    3.49
   6  -2 -13   47.88    1.89
  -6   2  13   37.54    4.72
   6  -2 -12  113.90    4.78
   6  -2 -12  114.30    3.70
  -6   2  12  108.45    5.80
   6  -2 -11  235.41    7.32
   6  -2 -11  236.78    6.60
  -6   2  11  226.43    8.23
  -6   2  10  244.42    7.13
   6  -2 -10  243.30    6.89
  -6   2  10  245.63    8.17
  -6   2   9   18.05    2.14
   6  -2  -9   21.64    2.06
  -6   2   9   15.79    2.73
  -6   2   8  119.77    4.22
   6  -2  -8  111.80    3.98
  -6   2   8  112.19    4.60
   6  -2  -7  205.68    6.13
  -6   2   7  208.61    6.27
  -6   2   7  205.22    6.55
  -6   2   6  527.63   14.34
  -6   2   6  566.98   14.27
   6  -2  -6  534.40   14.13
  -6   2   5  595.08   14.96
   6  -2  -5  563.98   14.83
   6  -2  -5  562.85   14.45
  -6   2   4   84.28    3.31
   6  -2  -4   77.49    2.74
   6  -2  -4   78.75    2.88
  -6   2   3  267.34    7.49
   6  -2  -3  254.58    6.93
   6  -2  -2   67.62    2.96
   6  -2  -2   68.02    2.45
   6  -2  -1   80.49    3.23
   6  -2   0   10.55    1.74
   6  -2   1  333.39    8.94
  -6   2  -1  352.37    9.45
   6  -2   1  344.38    9.45
   6  -2   2  476.40   12.05
  -6   2  -2  460.72   12.39
   6  -2   2  463.44   12.45
  -6   2  -3  268.52    7.43
   6  -2   3  269.98    7.48
  -6   2  -3  249.21    6.64
   6  -2   4   18.14    2.10
  -6   2  -4   21.14    2.06
   6  -2   4   20.50    1.32
  -6   2  -5   78.05    3.18
   6  -2   5   71.79    3.18
   6  -2   5   68.72    2.43
   6  -2   6   14.19    2.44
  -6   2  -6   18.24    2.05
   6  -2   6   13.11    1.47
   6  -2   6   16.89    2.07
   6  -2   7   12.71    2.60
   6  -2   7   13.47    2.00
   6  -2   7   14.53    1.67
   6  -2   8   68.16    2.84
   6  -2   8   67.62    3.68
   6  -2   9   48.22    3.42
   6  -2  10   49.19    3.59
   6  -2  11    9.29    3.24
   6  -2  12    2.94    3.32
   6  -2  13    3.41    4.31
   6  -2  14   -6.91    4.68
   6  -1 -18    6.68    4.51
   6  -1 -17   49.71    4.80
  -6   1  17   38.36    5.40
   6  -1 -16    8.07    3.82
  -6   1  16    4.21    4.53
   6  -1 -15   72.12    4.60
   6  -1 -14   52.11    3.86
   6  -1 -13   53.43    3.68
   6  -1 -13   62.19    2.21
   6  -1 -12    6.33    1.02
   6  -1 -12   11.19    2.57
  -6   1  12    6.50    1.99
   6  -1 -12    8.51    1.65
   6  -1 -11   46.96    2.95
   6  -1 -11   48.72    2.37
  -6   1  11   44.57    2.69
   6  -1 -10  133.73    4.78
  -6   1  10  143.00    4.74
   6  -1 -10  148.51    4.47
  -6   1   9  178.25    5.44
   6  -1  -9  171.72    5.19
  -6   1   9  162.54    6.10
  -6   1   8  599.26   15.20
   6  -1  -8  587.85   14.97
  -6   1   8  556.96   15.63
  -6   1   7  151.39    4.83
   6  -1  -7  141.80    4.61
  -6   1   7  149.45    5.14
  -6   1   6    1.96    1.51
   6  -1  -6    0.94    1.50
  -6   1   6    1.75    1.61
  -6   1   5   11.11    1.68
   6  -1  -5    9.11    1.63
   6  -1  -5   10.33    1.37
   6  -1  -5    7.99    1.31
  -6   1   4    4.91    1.46
   6  -1  -4    4.32    1.18
  -6   1   3  125.94    4.12
   6  -1  -3  114.45    3.98
   6  -1  -3  116.62    3.72
   6  -1  -3  117.63    3.54
   6  -1  -2  438.99   11.80
   6  -1  -2  451.83   11.26
   6  -1  -1  408.45   10.89
   6  -1  -1  408.43   10.22
  -6   1   0  242.22    7.28
   6  -1   0  243.27    7.20
  -6   1  -1  226.86    5.80
   6  -1   1  213.39    5.66
   6  -1   2   14.85    1.41
  -6   1  -2   13.00    1.79
   6  -1   2   17.42    1.87
   6  -1   2   12.60    0.62
  -6   1  -3    2.50    1.63
   6  -1   3    3.31    1.69
   6  -1   3    1.11    0.43
   6  -1   4  244.32    7.03
  -6   1  -4  249.34    7.10
  -6   1  -5  123.73    4.16
   6  -1   5  116.31    4.05
   6  -1   5  122.17    4.43
   6  -1   6  102.73    3.65
  -6   1  -6  105.08    3.82
   6  -1   6  111.89    4.27
  -6   1  -7   69.17    2.97
   6  -1   7   73.31    2.87
   6  -1   7   76.87    3.74
   6  -1   8   25.28    1.89
   6  -1   8   27.05    3.05
   6  -1   9   -0.61    2.81
   6  -1  10   -2.93    3.14
   6  -1  11    6.40    3.47
   6  -1  12   23.81    3.84
   6  -1  13   26.21    4.91
   6   0 -18   -0.87    4.31
  -6   0  18    6.21    5.66
   6   0 -17    0.81    4.03
  -6   0  17    5.25    4.45
  -6   0  17   -2.56    5.05
   6   0 -16    7.71    3.67
  -6   0  16   10.54    5.00
   6   0 -15   22.19    3.58
  -6   0  15   13.56    4.63
   6   0 -14   64.16    3.94
  -6   0  14   71.50    5.46
   6   0 -13  148.52    5.34
   6   0 -13  151.25    4.19
   6   0 -12   92.67    2.85
   6   0 -12   99.48    4.04
  -6   0  12   91.75    3.59
   6   0 -12   95.37    3.09
   6   0 -12   98.80    3.22
   6   0 -11   97.68    3.90
  -6   0  11  100.14    3.74
   6   0 -11   97.29    3.36
   6   0 -10   31.69    2.29
   6   0 -10   39.57    2.12
  -6   0  10   37.64    2.42
   6   0  -9    3.74    1.51
  -6   0   9    5.88    1.79
   6   0  -9    6.10    1.58
  -6   0   8  156.96    5.08
   6   0  -8  162.08    4.87
  -6   0   7  134.58    4.52
   6   0  -7  136.22    4.29
  -6   0   6  767.53   19.21
   6   0  -6  766.00   19.00
   6   0  -6  730.00   18.85
  -6   0   5  622.75   15.93
   6   0  -5  609.57   15.61
  -6   0   4  650.16   16.40
   6   0  -4  641.82   16.09
   6   0  -4  619.84   15.81
   6   0  -3  112.40    3.29
   6   0  -2   14.37    1.56
   6   0  -2   13.34    0.97
   6   0  -1  341.21    8.34
   6   0  -1  322.86    8.93
   6   0  -1  325.03    8.15
   6   0   0  417.44   10.12
  -6   0   0  382.61   10.77
   6   0   0  386.24   10.63
  -6   0  -1  319.98    9.25
   6   0   1  328.80    9.13
  -6   0  -2  606.92    6.59
   6   0   2  615.18    6.24
  -6   0  -3  424.60   11.27
   6   0   3  419.67   11.10
   6   0   3  423.02   11.33
   6   0   4   12.55    2.16
   6   0   4   13.86    1.84
  -6   0  -4   14.80    1.94
   6   0   5    4.34    2.27
  -6   0  -5    4.12    1.70
   6   0   5    2.75    1.70
   6   0   6   14.31    2.57
  -6   0  -6   16.36    1.92
   6   0   6   15.49    1.81
   6   0   7  139.92    4.20
   6   0   7  149.64    5.21
   6   0   8   54.36    3.61
   6   0   9   93.39    4.61
   6   0  10   92.76    4.83
   6   0  11    0.86    3.49
   6   0  12   11.22    3.80
   6   0  13    5.41    4.77
   6   1 -19   32.96    4.91
  -6  -1  19   33.11    6.26
   6   1 -18    5.12    4.11
  -6  -1  18   18.47    5.60
   6   1 -17   11.80    3.87
  -6  -1  17   18.86    5.32
   6   1 -16   28.08    3.86
  -6  -1  16   29.03    5.15
   6   1 -15   47.84    3.87
  -6  -1  15   43.63    5.14
   6   1 -14    4.91    2.82
  -6  -1  14    1.16    3.75
   6   1 -13    6.84    2.53
  -6  -1  13    3.31    1.88
   6   1 -13    3.08    1.56
  -6  -1  13    7.99    3.56
   6   1 -12   80.09    2.53
   6   1 -12   71.98    3.47
   6   1 -12   82.23    2.92
  -6  -1  12   80.93    3.26
  -6  -1  12   82.19    4.75
   6   1 -11  148.24    4.98
  -6  -1  11  152.15    4.98
   6   1 -11  159.69    4.63
  -6  -1  11  149.60    6.14
   6   1 -10  151.50    4.54
   6   1 -10  145.78    4.69
  -6  -1  10  148.98    4.90
  -6  -1  10  155.55    5.88
   6   1  -9  302.71    8.35
  -6  -1   9  310.09    8.75
   6   1  -9  331.11    8.43
  -6  -1   9  304.16    9.30
   6   1  -8  101.13    3.30
  -6  -1   8  110.63    3.88
   6   1  -8  108.09    3.57
  -6  -1   8  100.53    4.22
   6   1  -7   29.30    1.50
  -6  -1   7   33.36    2.21
   6   1  -7   33.29    1.94
  -6  -1   7   27.11    2.24
  -6  -1   6   69.48    3.02
   6   1  -6   68.67    2.71
  -6  -1   6   72.47    3.04
   6   1  -6   68.52    2.64
  -6  -1   5   23.40    1.90
  -6  -1   4 1438.93   35.76
   6   1  -4 1430.12   35.48
   6   1  -4 1464.41   35.55
   6   1  -3  693.71   17.56
   6   1  -2  184.83    4.65
   6   1  -2  179.51    5.43
   6   1  -1  294.23    7.33
   6   1  -1  290.87    8.02
   6   1   0   29.12    1.28
  -6  -1   0   29.70    2.13
   6   1   0   27.89    1.93
   6   1   1   75.16    2.45
  -6  -1  -1   80.33    3.22
   6   1   1   77.74    2.98
  -6  -1  -2  252.53    7.45
   6   1   2  256.45    7.23
   6   1   2  275.96    7.54
  -6  -1  -3   75.05    3.20
   6   1   3   78.86    3.03
   6   1   3   84.15    3.44
  -6  -1  -4  215.36    5.88
   6   1   4  225.09    5.69
   6   1   4  223.81    6.26
  -6  -1  -5  169.64    5.32
   6   1   5  173.94    5.14
   6   1   5  178.39    5.80
  -6  -1  -6   64.74    2.94
   6   1   6   68.73    2.77
   6   1   6   74.19    3.70
   6   1   7   -0.82    2.79
  -6  -1  -7    0.91    1.68
   6   1   8    4.89    3.07
  -6  -1  -8    1.61    1.53
   6   1   9   36.54    3.86
   6   1  10   37.73    4.00
   6   1  11    7.85    3.80
   6   1  12   28.54    4.34
   6   2 -19    8.69    4.36
  -6  -2  19    7.94    5.84
   6   2 -18    3.79    3.96
  -6  -2  18    8.11    5.39
   6   2 -17   -0.19    3.62
  -6  -2  17    0.32    4.99
   6   2 -16   21.16    3.71
  -6  -2  16   29.34    4.99
   6   2 -15   50.53    3.68
  -6  -2  15   48.34    4.99
   6   2 -14   65.99    3.80
   6   2 -14   62.69    2.58
  -6  -2  14   62.52    2.93
  -6  -2  14   69.36    5.18
   6   2 -13   27.96    2.78
  -6  -2  13   31.19    2.34
  -6  -2  13   35.94    4.09
  -6  -2  13   31.22    3.91
   6   2 -13   21.24    1.34
   6   2 -12   38.46    2.71
  -6  -2  12   39.60    2.50
   6   2 -12   42.20    2.20
  -6  -2  12   42.55    3.96
   6   2 -11   19.77    2.10
  -6  -2  11   18.90    2.15
   6   2 -11   18.31    1.87
  -6  -2  11   17.73    3.00
   6   2 -10   22.98    1.92
  -6  -2  10   25.40    2.20
   6   2 -10   25.39    1.95
  -6  -2  10   20.43    2.86
   6   2  -9   65.98    2.59
  -6  -2   9   65.08    3.05
   6   2  -9   68.50    2.76
  -6  -2   9   67.09    3.48
   6   2  -8  214.78    5.91
  -6  -2   8  220.71    6.65
  -6  -2   8  212.25    6.82
   6   2  -8  231.55    6.27
   6   2  -7  113.05    3.31
  -6  -2   7  123.52    4.25
   6   2  -7  121.55    3.85
  -6  -2   7  111.56    4.17
   6   2  -6  433.99   10.82
  -6  -2   6  448.41   11.86
  -6  -2   6  448.82   11.67
   6   2  -5   91.08    2.42
  -6  -2   5   98.03    3.64
   6   2  -4   20.64    1.73
  -6  -2   4   22.96    1.52
   6   2  -3    6.44    1.44
  -6  -2   3    5.15    1.61
  -6  -2   3    5.10    0.99
   6   2  -2  205.64    5.93
  -6  -2   1  496.00   13.48
   6   2  -1  519.12   13.16
  -6  -2   0  130.64    4.55
   6   2   0  132.92    4.25
   6   2   0  134.12    4.36
  -6  -2  -1  305.82    8.78
   6   2   1  312.36    8.49
   6   2   1  321.26    8.73
  -6  -2  -2  436.34   11.02
  -6  -2  -2  396.06   11.21
   6   2   2  419.15   11.01
   6   2   2  423.31   11.30
  -6  -2  -3    1.72    1.42
   6   2   3    1.38    2.03
  -6  -2  -3   -0.20    1.78
   6   2   3    1.12    1.71
  -6  -2  -3    0.05    1.69
   6   2   4   10.64    2.40
  -6  -2  -4    8.71    2.24
  -6  -2  -4    9.33    1.93
   6   2   4    8.91    1.84
  -6  -2  -4    8.92    1.50
  -6  -2  -5   47.93    3.24
  -6  -2  -5   44.15    2.59
   6   2   5   45.92    2.45
   6   2   5   41.92    3.20
  -6  -2  -6   70.10    3.97
  -6  -2  -6   68.06    3.01
   6   2   6   73.16    3.89
  -6  -2  -7   77.18    4.30
   6   2   7   75.50    4.15
  -6  -2  -8   69.83    4.62
   6   2   8   69.35    4.35
   6   2   9   30.87    3.97
  -6  -2  -9   35.89    4.19
   6   2  10   40.30    4.36
   6   2  11    1.85    4.01
   6   2  12    2.84    4.15
   6   3 -19    2.42    4.10
  -6  -3  19   -5.31    5.57
   6   3 -18   46.56    4.52
  -6  -3  18   34.59    6.04
   6   3 -17   33.03    4.08
  -6  -3  17   32.03    5.38
   6   3 -16    8.88    3.34
  -6  -3  16    8.07    4.52
  -6  -3  16    5.09    4.50
   6   3 -15    3.99    2.94
   6   3 -15    5.68    1.70
  -6  -3  15   11.22    4.22
   6   3 -14   -1.58    2.55
  -6  -3  14    1.25    1.98
   6   3 -14    0.58    1.71
  -6  -3  14    1.78    3.72
   6   3 -13    1.92    0.67
   6   3 -13    2.61    2.34
  -6  -3  13    7.99    3.41
  -6  -3  13    5.10    2.08
   6   3 -12   94.75    3.59
  -6  -3  12   98.06    3.58
  -6  -3  12   94.96    4.87
   6   3 -11  159.40    5.11
   6   3 -11  163.14    4.96
   6   3 -10  174.58    5.34
  -6  -3  10  184.12    5.86
   6   3 -10  186.86    5.44
  -6  -3  10  183.51    6.40
   6   3  -9   46.23    2.06
  -6  -3   9   44.33    2.70
   6   3  -9   44.93    2.41
  -6  -3   9   42.92    2.97
  -6  -3   8    2.22    1.83
   6   3  -8    4.19    1.10
  -6  -3   8    3.54    1.76
   6   3  -8    3.84    1.62
  -6  -3   7   -0.34    1.74
  -6  -3   7    0.43    1.67
   6   3  -7    0.71    0.82
   6   3  -7    1.33    1.55
  -6  -3   6   26.17    2.20
  -6  -3   6   28.35    2.04
  -6  -3   5  317.31    9.26
   6   3  -5  327.99    8.88
  -6  -3   5  336.55    8.85
   6   3  -4  460.20   12.05
  -6  -3   4  463.24   11.83
   6   3  -3  694.77   17.40
  -6  -3   3  673.63   16.97
   6   3  -3  694.34   17.25
   6   3  -2  200.16    5.77
  -6  -3   2  189.98    5.08
   6   3  -2  202.02    5.72
  -6  -3   1    1.59    1.73
   6   3  -1    1.41    1.58
  -6  -3   0   15.18    2.03
   6   3   0   16.75    1.89
   6   3   1  253.79    7.47
  -6  -3  -1  272.18    7.03
  -6  -3  -1  243.25    7.51
   6   3   1  256.79    7.27
  -6  -3  -2  229.92    6.39
  -6  -3  -2  216.74    6.69
   6   3   2  213.92    6.40
   6   3   2  227.42    6.75
  -6  -3  -3  331.22    8.99
  -6  -3  -3  327.26    9.02
   6   3   3  318.24    8.76
   6   3   3  310.32    9.22
  -6  -3  -4  165.30    4.40
  -6  -3  -4  151.17    3.97
   6   3   4  161.26    4.57
  -6  -3  -5   73.65    3.76
  -6  -3  -5   65.55    3.13
   6   3   5   74.75    3.98
   6   3   6   -0.49    2.97
  -6  -3  -6    5.21    2.80
  -6  -3  -6    1.80    1.89
   6   3   6   -2.27    1.89
   6   3   7    2.52    3.32
  -6  -3  -7    2.30    3.09
  -6  -3  -7    0.61    1.79
   6   3   8   80.29    4.89
  -6  -3  -8   82.45    4.85
   6   3   9  101.54    5.54
  -6  -3  -9  106.98    5.56
   6   3  10   44.31    4.79
  -6  -3 -10   54.88    4.86
   6   3  11    4.60    4.27
  -6  -3 -11    5.13    4.11
   6   4 -19   -3.25    4.03
  -6  -4  19   -0.34    5.50
   6   4 -18   -3.93    3.80
  -6  -4  18    7.01    5.15
   6   4 -17   -2.26    3.41
  -6  -4  17   -6.33    4.87
   6   4 -16   55.89    4.03
   6   4 -16   39.57    2.36
  -6  -4  16   52.70    5.46
   6   4 -15   37.77    3.47
   6   4 -15   33.12    2.32
  -6  -4  15   37.93    2.69
   6   4 -14   59.73    3.53
   6   4 -14   58.86    2.78
  -6  -4  14   60.91    3.18
  -6  -4  14   65.66    4.96
   6   4 -13    7.83    2.25
   6   4 -13   10.46    2.06
  -6  -4  13   12.25    2.32
  -6  -4  13   12.72    3.53
   6   4 -12    1.95    1.92
  -6  -4  12    5.00    2.16
  -6  -4  11    5.80    2.71
   6   4 -11    4.11    0.71
   6   4 -11    6.44    1.79
  -6  -4  11    5.03    2.15
   6   4 -10   27.22    1.95
  -6  -4  10   33.62    2.58
  -6  -4  10   33.39    2.98
   6   4 -10   26.42    2.27
   6   4 -10   28.37    1.29
  -6  -4   9  150.01    5.30
   6   4  -9  153.10    4.90
  -6  -4   9  146.71    5.46
   6   4  -9  154.90    4.15
   6   4  -8  331.23    8.95
  -6  -4   8  326.29    9.41
   6   4  -8  325.81    8.35
   6   4  -7  132.56    3.75
  -6  -4   7  120.91    4.48
  -6  -4   6   56.21    2.74
   6   4  -5   10.54    1.47
  -6  -4   5   10.63    1.64
   6   4  -5    8.54    1.72
   6   4  -4   52.67    2.61
   6   4  -4   52.26    2.36
  -6  -4   4   50.85    2.30
   6   4  -3  198.98    5.98
   6   4  -3  200.14    5.81
   6   4  -2  179.94    5.44
   6   4  -2  167.82    5.28
  -6  -4   1  156.28    4.20
   6   4  -1  157.52    5.01
  -6  -4   0  208.61    6.77
   6   4   0  211.63    6.49
   6   4   1    8.57    2.25
  -6  -4  -1    9.85    1.63
  -6  -4  -1    7.15    2.05
   6   4   1   10.58    2.05
   6   4   2    8.31    2.45
  -6  -4  -2   10.23    1.90
  -6  -4  -2    9.23    2.15
  -6  -4  -3   53.60    2.99
  -6  -4  -3   53.68    3.02
   6   4   3   57.86    3.56
  -6  -4  -4   26.82    2.74
   6   4   4   28.43    2.49
  -6  -4  -4   27.64    2.46
   6   4   4   29.87    3.30
  -6  -4  -5  160.90    5.64
   6   4   5  146.37    4.84
  -6  -4  -5  147.24    5.00
   6   4   5  154.04    5.98
   6   4   6  118.51    5.35
  -6  -4  -6  129.97    5.10
   6   4   7   74.04    4.85
  -6  -4  -7   81.03    4.58
   6   4   8   -0.60    3.85
  -6  -4  -8    2.32    3.54
   6   4   9    8.47    4.30
  -6  -4  -9   15.54    3.96
   6   4  10    3.75    4.33
  -6  -4 -10    2.22    4.12
  -6  -5  20   18.81    5.93
  -6  -5  19   20.93    5.86
  -6  -5  19   26.02    5.80
  -6  -5  18   59.74    6.01
  -6  -5  18   42.22    5.89
  -6  -5  17    7.13    4.92
   6   5 -16    2.64    2.04
  -6  -5  16    5.86    4.31
  -6  -5  15   -1.24    2.39
   6   5 -15    1.97    2.11
   6   5 -14   30.77    2.48
  -6  -5  14   28.69    2.82
   6   5 -13   49.38    2.82
  -6  -5  13   50.52    3.21
   6   5 -12   61.39    3.10
  -6  -5  12   60.06    3.44
  -6  -5  12   59.65    4.24
  -6  -5  11  145.97    5.82
  -6  -5  10   75.07    3.95
   6   5 -10   69.83    2.06
   6   5  -9    2.01    1.02
  -6  -5   9    2.40    2.21
   6   5  -8    1.81    1.11
  -6  -5   8    2.92    2.15
  -6  -5   8   -1.06    2.31
  -6  -5   7  260.21    7.85
  -6  -5   7  254.38    7.64
  -6  -5   6  144.50    5.14
   6   5  -6  136.11    4.14
   6   5  -5   38.00    2.58
   6   5  -5   38.97    2.09
   6   5  -4   60.74    3.05
   6   5  -4   64.36    2.70
   6   5  -3   36.21    2.55
   6   5  -3   38.67    2.31
  -6  -5   2   27.82    1.21
  -6  -5   2   28.84    2.67
   6   5  -2   28.37    2.26
   6   5  -1    0.40    2.02
  -6  -5   1    2.02    1.13
  -6  -5   0    7.15    1.47
  -6  -5  -1  407.60   10.04
  -6  -5  -1  388.83   10.67
  -6  -5  -2  144.58    4.54
   6   5   2  131.97    4.69
  -6  -5  -2  139.11    4.90
   6   5   2  139.10    5.22
   6   5   3   25.61    3.32
  -6  -5  -3   30.94    2.65
   6   5   3   25.90    2.63
  -6  -5  -3   26.49    2.63
   6   5   4   37.02    3.65
  -6  -5  -4   41.58    3.09
   6   5   4   37.79    2.79
  -6  -5  -4   33.18    2.74
   6   5   5    1.90    3.42
  -6  -5  -5    1.21    2.74
  -6  -5  -5    1.81    2.21
   6   5   5    3.19    2.36
   6   5   6   11.09    3.80
  -6  -5  -6   10.25    3.16
  -6  -5  -6    5.93    2.20
   6   5   7   12.18    4.12
  -6  -5  -7   17.19    3.55
   6   5   8   25.05    4.53
  -6  -5  -8   20.06    3.89
   6   5   9   50.06    5.31
  -6  -5  -9   61.61    4.85
  -6  -6  19   10.15    5.44
  -6  -6  18   23.76    5.50
  -6  -6  16   31.94    5.01
   6   6 -16   28.81    2.65
   6   6 -15   49.87    3.11
  -6  -6  15   62.04    3.59
   6   6 -14   33.06    2.79
  -6  -6  14   42.90    3.25
  -6  -6  13   -2.85    3.41
   6   6 -13    2.94    2.24
  -6  -6  13   -0.14    2.55
  -6  -6  12   31.14    3.65
   6   6 -12   22.75    2.56
   6   6 -11  227.54    7.07
  -6  -6  11  256.15    8.16
   6   6 -10   88.38    2.56
   6   6 -10   97.47    3.98
  -6  -6  10   91.30    4.53
  -6  -6   9   42.88    3.38
  -6  -6   9   41.67    3.19
   6   6  -9   40.23    1.70
   6   6  -8    2.86    0.98
  -6  -6   8   14.43    2.87
  -6  -6   7  228.19    7.48
   6   6  -7  235.24    6.35
  -6  -6   6   54.85    3.47
   6   6  -6   52.56    2.39
   6   6  -5   55.31    2.58
   6   6  -4  185.78    5.64
  -6  -6   3   60.99    3.59
   6   6  -3   64.79    2.94
  -6  -6   2  187.95    6.18
   6   6  -2  183.14    5.67
  -6  -6   1  171.19    4.96
   6   6  -1  180.71    5.91
  -6  -6   1  182.84    6.16
   6   6  -1  191.33    5.96
  -6  -6   0   54.79    2.47
   6   6   0   55.91    3.35
  -6  -6  -1    8.27    1.88
   6   6   1    8.71    2.55
   6   6   2   12.05    3.21
  -6  -6  -2   14.12    2.23
  -6  -6  -2   13.89    2.55
   6   6   2   13.62    2.63
   6   6   3   55.23    4.16
  -6  -6  -3   68.27    3.42
   6   6   3   59.41    3.46
  -6  -6  -3   59.01    3.48
   6   6   4  116.69    5.50
  -6  -6  -4  119.22    4.69
   6   6   4  104.09    4.40
  -6  -6  -4  106.45    4.41
   6   6   5   26.44    4.14
  -6  -6  -5   29.71    3.32
  -6  -6  -5   24.81    2.74
   6   6   6   31.80    4.53
  -6  -6  -6   31.42    3.61
   6   6   7   10.83    4.36
  -6  -6  -7   14.42    3.63
   6   6   8   -1.71    4.53
  -6  -7  19   10.47    5.36
   6   7 -17   -2.24    2.54
  -6  -7  16   17.02    2.99
   6   7 -16   10.36    2.74
   6   7 -15   50.21    3.41
  -6  -7  15   68.67    3.87
   6   7 -14   70.96    3.70
   6   7 -13   70.20    3.71
  -6  -7  13   77.35    4.96
  -6  -7  12   46.99    3.78
   6   7 -12   46.03    3.20
  -6  -7  12   42.51    4.16
  -6  -7  11    2.11    3.02
  -6  -7  11   -0.99    3.06
   6   7 -11   -0.60    2.44
   6   7 -10    4.37    2.46
  -6  -7  10    5.14    2.90
  -6  -7  10    1.77    2.88
  -6  -7   9   27.59    1.71
   6   7  -9   29.58    2.92
  -6  -7   9   32.43    3.45
   6   7  -8   31.75    1.75
  -6  -7   8   26.90    3.18
   6   7  -7  240.71    6.22
  -6  -7   7  245.52    7.56
  -6  -7   6   59.20    1.92
   6   7  -6   64.53    3.59
   6   7  -5  154.73    4.50
   6   7  -5  142.87    4.92
   6   7  -4   46.08    2.84
   6   7  -4   42.54    3.12
   6   7  -3    3.99    2.25
  -6  -7   3    3.16    1.07
  -6  -7   3    2.47    2.80
   6   7  -3    2.50    2.60
   6   7  -2   54.42    3.27
  -6  -7   2   44.63    2.04
  -6  -7   2   52.96    3.62
   6   7  -2   52.40    3.38
   6   7  -1   77.26    3.90
  -6  -7   1   64.38    2.68
  -6  -7   1   77.43    4.09
   6   7  -1   72.90    3.77
   6   7   0   83.57    4.30
  -6  -7   0   78.22    3.10
  -6  -7   0   84.44    4.21
   6   7   0   74.28    3.94
  -6  -7  -1   11.04    2.05
   6   7   1   12.50    2.94
  -6  -7  -2   20.44    2.52
   6   7   2   20.65    3.00
   6   7   3   26.55    4.05
  -6  -7  -3   36.08    3.04
  -6  -7  -3   34.42    3.15
   6   7   3   31.29    3.25
   6   7   4   -0.74    3.86
   6   7   4    3.79    2.82
  -6  -7  -4   -0.25    2.71
  -6  -7  -4   -0.06    2.60
   6   7   5   16.08    4.29
  -6  -7  -5   20.02    3.31
  -6  -7  -5   14.01    2.71
   6   7   6   18.85    4.62
   6   8 -17   19.51    3.10
   6   8 -16    5.38    2.92
  -6  -8  16    8.49    3.08
   6   8 -15    2.92    2.88
  -6  -8  14    4.72    4.04
   6   8 -14    2.46    2.89
  -6  -8  13   16.75    3.68
   6   8 -13   13.55    3.06
  -6  -8  12   67.07    4.32
  -6  -8  12   58.43    4.60
  -6  -8  11  162.07    6.35
   6   8 -11  158.96    5.88
  -6  -8  10   69.08    4.45
   6   8 -10   66.14    3.80
  -6  -8   9  138.92    5.66
   6   8  -9  117.65    5.05
   6   8  -8   37.46    2.18
  -6  -8   8   33.16    3.67
   6   8  -7   39.64    2.45
  -6  -8   7   44.75    3.89
   6   8  -7   41.79    3.46
   6   8  -6   24.49    2.33
   6   8  -6   22.30    3.10
   6   8  -5   30.80    2.65
   6   8  -5   32.31    3.29
   6   8  -4   96.80    4.16
   6   8  -4   93.73    4.50
   6   8  -3  220.43    7.08
  -6  -8   3  222.27    7.62
   6   8  -3  219.03    7.23
   6   8  -2   34.55    3.29
  -6  -8   2   24.21    1.84
  -6  -8   2   32.13    3.61
   6   8  -2   29.16    3.28
   6   8  -1    3.76    2.94
  -6  -8   1    5.70    1.70
  -6  -8   1    5.61    3.20
   6   8  -1    5.71    3.05
   6   8   0   19.98    3.45
  -6  -8   0   19.19    2.18
  -6  -8   0   20.50    3.49
   6   8   0   16.45    3.26
   6   8   1   16.24    3.75
  -6  -8  -1   22.15    2.37
   6   8   1   24.43    3.44
   6   8   2    8.31    3.24
  -6  -8  -2   10.32    2.43
  -6  -8  -3   39.59    3.20
  -6  -8  -3   36.19    3.37
   6   8   3   37.25    3.63
   6   8   4   76.42    5.38
  -6  -8  -4   68.77    4.05
   6   9 -17   17.67    3.40
   6   9 -16   12.34    3.35
  -6  -9  15   33.61    4.98
   6   9 -15   33.67    3.66
  -6  -9  14   46.01    4.91
  -6  -9  14   40.65    4.33
   6   9 -14   41.48    3.72
  -6  -9  13   14.50    4.12
  -6  -9  13   15.93    3.89
   6   9 -13   14.65    3.34
  -6  -9  12    0.36    3.48
   6   9 -12   -2.13    3.08
  -6  -9  11    2.07    3.65
   6   9 -11   -1.90    3.20
  -6  -9  10    9.11    3.75
   6   9 -10   10.55    3.30
  -6  -9   9  104.62    5.45
  -6  -9   8  230.84    8.14
   6   9  -7   96.17    4.88
   6   9  -6   40.42    2.95
  -6  -9   6   42.59    4.22
   6   9  -6   43.72    3.90
   6   9  -5    6.80    2.49
   6   9  -5    4.69    3.26
   6   9  -4    5.48    2.79
  -6  -9   4    8.48    3.54
   6   9  -4    8.60    3.38
   6   9  -3    4.06    2.98
  -6  -9   3    5.43    3.55
   6   9  -3    4.88    3.42
   6   9  -2   39.55    3.82
  -6  -9   2   31.31    2.17
  -6  -9   2   42.49    4.16
   6   9  -2   38.50    3.89
   6   9  -1   78.16    4.67
  -6  -9   1   70.10    3.13
  -6  -9   1   78.42    4.65
   6   9  -1   77.68    4.61
   6   9   0   57.68    4.59
  -6  -9   0   54.87    4.34
   6   9   0   58.99    4.32
   6   9   1   71.58    5.15
  -6  -9  -1   79.43    4.67
   6   9   1   67.08    4.55
   6   9   2    1.35    3.48
   6   9   3    3.41    3.43
  -6  -9  -3    1.34    3.04
   6  10 -17    4.05    3.49
  -6 -10  16    0.14    4.77
   6  10 -16   -2.23    3.51
  -6 -10  15    9.67    4.57
   6  10 -15    5.18    3.66
  -6 -10  15    4.85    4.04
  -6 -10  14   23.53    4.76
   6  10 -14   21.86    3.81
  -6 -10  14   22.08    4.30
  -6 -10  13   31.47    4.82
  -6 -10  13   39.18    4.56
   6  10 -13   35.37    4.07
   6  10 -12   32.26    4.04
  -6 -10  12   36.55    4.49
  -6 -10  11   49.82    4.66
   6  10 -11   46.76    4.22
  -6 -10  10   45.05    4.61
   6  10 -10   48.31    4.20
  -6 -10   9   -0.30    3.83
  -6 -10   8   53.20    4.76
   6  10  -7   11.42    3.80
   6  10  -6   35.16    4.23
   6  10  -5   94.99    5.24
  -6 -10   4  105.78    5.53
   6  10  -4   81.69    5.09
   6  10  -3   22.46    4.01
  -6 -10   3   24.49    4.11
   6  10  -2   -0.25    3.82
  -6 -10   2   -0.63    3.81
   6  10  -1    2.17    3.88
  -6 -10   1    0.61    3.74
   6  10   0   28.11    4.22
  -6 -10   0   37.46    4.22
  -6 -10  -1   44.83    4.31
   6  10   1   41.10    4.43
   6  10   2   15.96    3.95
  -6 -10  -3   12.39    3.37
  -6 -11  17   43.58    5.88
   6  11 -17   31.65    4.22
  -6 -11  16   43.23    5.72
  -6 -11  16   44.11    4.88
   6  11 -16   28.67    4.36
  -6 -11  15   14.51    5.01
   6  11 -15   13.37    4.00
  -6 -11  15   20.00    4.51
  -6 -11  14    7.26    4.67
   6  11 -14    5.64    3.91
  -6 -11  14    2.40    4.36
   6  11 -13    2.93    3.94
  -6 -11  13   -8.06    4.44
   6  11 -12   35.39    4.47
  -6 -11  12   31.02    4.73
   6  11 -11   28.09    4.41
  -6 -11  11   42.20    4.91
  -6 -11  10   82.23    5.58
   6  11 -10   68.10    5.15
  -6 -11   9   12.28    4.49
   6  11  -8   17.23    4.29
   6  11  -7   19.15    4.36
  -6 -11   7   22.91    4.57
   6  11  -6   18.54    4.31
   6  11  -5   -0.55    4.09
  -6 -11   5   -1.64    4.30
  -6 -11   4   81.34    5.51
   6  11  -4   82.65    5.43
  -6 -11   3   77.38    5.40
   6  11  -3   72.43    5.30
   6  11  -2   62.52    5.19
  -6 -11   2   61.95    5.11
   6  11  -1    5.28    4.27
  -6 -11   1    6.00    4.11
   6  11   0   10.33    4.27
  -6 -11   0   10.62    4.15
  -6 -11  -1    4.94    3.98
   6  11   1   -3.11    4.22
  -6 -12  17    6.34    5.47
   6  12 -17    6.17    4.19
  -6 -12  16   10.37    5.36
  -6 -12  16   16.88    4.81
   6  12 -16   10.37    4.33
  -6 -12  15   38.03    5.73
  -6 -12  15   47.34    5.24
   6  12 -14   23.23    4.55
  -6 -12  14   20.47    4.98
   6  12 -13    5.21    4.35
  -6 -12  13    5.36    4.65
   6  12 -12    8.98    4.52
  -6 -12  12   11.16    4.78
   6  12 -11    6.79    4.37
  -6 -12  11    5.04    4.62
  -6 -12  10    5.20    4.73
  -6 -12   9   10.39    4.83
   6  12  -8   20.97    4.76
   6  12  -7   41.42    5.16
   6  12  -6   58.12    5.40
   6  12  -5    4.23    4.54
  -6 -12   5    0.54    4.55
   6  12  -4    5.11    4.62
  -6 -12   4    0.64    4.57
   6  12  -3    2.76    4.63
  -6 -12   3    7.03    4.55
   6  12  -2    9.79    4.59
  -6 -12   2    0.60    4.45
  -6 -12   1   30.97    4.78
   6  12  -1   28.80    4.93
  -6 -12   0   36.26    4.82
   6  12   0   33.76    5.01
   6  13 -17   15.17    4.69
  -6 -13  16   10.77    5.02
   6  13 -16    7.54    4.63
  -6 -13  15    5.20    5.21
  -6 -13  15   -5.11    5.10
   6  13 -15    0.95    4.59
  -6 -13  14   -0.11    4.95
   6  13 -14   -4.33    4.70
   6  13 -13    5.56    4.79
  -6 -13  13    6.16    5.20
   6  13 -12   15.03    4.93
  -6 -13  12   11.19    5.22
   6  13 -11    7.72    4.94
  -6 -13  11    3.57    5.02
  -6 -13  10   18.81    5.30
   6  13  -9   13.05    5.27
  -6 -13   9   15.13    5.24
   6  13  -8    1.54    4.98
   6  13  -7   -1.10    4.95
   6  13  -6   12.66    5.19
  -6 -13   6    6.16    4.87
   6  13  -5   14.51    5.07
  -6 -13   5   18.81    5.20
   6  13  -4   24.82    5.30
  -6 -13   4   24.95    5.27
  -6 -13   3   18.30    5.01
   6  13  -3   11.77    5.02
  -6 -13   2   16.21    4.91
   6  13  -2    2.97    4.88
  -6 -13   1    8.13    4.60
   6  13  -1   -2.07    4.88
  -6 -13   0    2.00    4.49
  -6 -14  14   26.16    5.78
   6  14 -14   26.33    5.53
  -6 -14  13    9.90    5.41
   6  14 -13    5.71    5.22
   6  14 -12   -2.25    5.13
  -6 -14  12    3.74    5.33
   6  14 -11   11.49    5.35
  -6 -14  11    5.25    5.36
  -6 -14  10   10.96    5.47
   6  14  -9    7.40    5.47
   6  14  -8   11.89    5.52
   6  14  -7   35.22    5.91
  -6 -14   7   31.23    5.97
   6  14  -6   10.85    5.51
  -6 -14   6    9.27    5.41
  -6 -14   5    3.21    5.26
   6  14  -5   -6.23    5.49
  -6 -14   4   -3.70    5.28
   6  14  -4   -1.24    5.37
   7 -14   0    4.44    4.97
   7 -14   0    3.64    4.34
   7 -14   1   10.62    4.69
   7 -14   2  127.81    6.71
   7 -14   3   36.90    5.35
   7 -14   4    6.38    4.98
   7 -14   4    5.42    4.99
   7 -14   5   -0.86    4.91
   7 -14   5    6.21    5.13
   7 -13  -5    6.16    4.36
   7 -13  -5    7.52    5.11
   7 -13  -4    3.57    4.48
   7 -13  -4    3.19    5.14
   7 -13  -3   21.12    4.82
   7 -13  -2   59.18    4.62
   7 -13  -2   57.42    5.46
   7 -13  -1   16.42    4.84
   7 -13  -1   25.65    4.34
   7 -13   0   33.13    5.03
   7 -13   0   38.01    4.71
   7 -13   1    3.50    4.45
   7 -13   2    5.26    4.60
   7 -13   3   -1.05    4.63
   7 -13   3    3.20    4.68
   7 -13   4   20.09    4.77
   7 -13   4   22.10    5.00
   7 -13   5   65.31    5.90
   7 -13   5   54.09    5.53
   7 -13   6   48.37    5.33
   7 -13   7   16.84    4.86
   7 -13   8    6.34    4.75
   7 -13   8    7.57    5.33
   7 -13   9    7.07    4.63
   7 -13   9   11.33    5.62
   7 -12  -7   19.51    4.18
   7 -12  -7   23.70    4.75
   7 -12  -6   44.58    5.37
   7 -12  -6   47.98    4.72
   7 -12  -5   51.06    5.61
   7 -12  -5   46.55    4.92
   7 -12  -4   28.20    4.60
   7 -12  -4   20.97    3.62
   7 -12  -3    5.52    4.40
   7 -12  -3   -4.05    3.64
   7 -12  -2    5.48    4.34
   7 -12  -2    3.12    3.68
   7 -12  -1    5.61    4.43
   7 -12  -1   11.59    4.09
   7 -12   0   36.22    4.68
   7 -12   1   74.07    5.32
   7 -12   2   23.73    4.70
   7 -12   3   32.28    4.75
   7 -12   3   32.05    4.94
   7 -12   4   19.33    4.66
   7 -12   4   12.05    4.80
   7 -12   5   -2.69    4.36
   7 -12   6   30.52    4.80
   7 -12   7   29.29    4.72
   7 -12   8   13.50    4.55
   7 -12   8   11.89    5.18
   7 -12   8   14.21    5.42
   7 -12   9   50.71    5.88
   7 -12   9   48.19    5.89
   7 -12   9   49.26    5.12
   7 -12  10   27.19    4.62
   7 -12  10   34.52    5.58
   7 -12  10   29.45    5.49
   7 -11  -8   33.92    4.08
   7 -11  -8   39.06    4.65
   7 -11  -7    7.69    3.85
   7 -11  -7    1.04    4.28
  -7  11   7   11.12    5.86
   7 -11  -6   22.79    4.09
   7 -11  -6   10.91    4.47
   7 -11  -5   36.66    3.44
   7 -11  -5   31.69    4.39
   7 -11  -5   36.62    5.01
  -7  11   5   31.52    5.85
   7 -11  -4   -0.18    3.98
   7 -11  -4    5.62    3.34
   7 -11  -3   32.10    4.40
   7 -11  -3   31.11    3.79
   7 -11  -2   60.42    4.53
   7 -11  -2   68.92    5.12
   7 -11  -1   46.68    4.38
   7 -11  -1   47.94    4.76
   7 -11   0    5.65    3.96
   7 -11   1    3.86    4.05
   7 -11   2   16.09    4.29
   7 -11   2   21.61    4.42
   7 -11   3   32.55    4.51
   7 -11   3   32.37    4.66
   7 -11   4   28.84    4.52
   7 -11   5   51.95    4.81
   7 -11   6   46.18    4.68
   7 -11   7    8.19    4.10
   7 -11   7   19.25    4.96
   7 -11   8    9.34    4.13
   7 -11   8   17.78    5.01
   7 -11   8   10.58    4.99
   7 -11   9   16.71    4.22
   7 -11   9   27.00    5.25
   7 -11   9   16.35    5.01
   7 -11  10    8.32    4.14
   7 -11  10   13.99    5.13
   7 -11  10    7.35    4.76
   7 -11  11   24.73    5.44
  -7  10  10    5.58    6.10
   7 -10  -9   -0.50    3.37
   7 -10  -9   -1.38    3.75
  -7  10   9   -0.92    5.66
  -7  10   8   68.20    6.63
   7 -10  -8   67.58    4.49
  -7  10   8   52.29    4.57
   7 -10  -8   65.46    4.86
   7 -10  -7   48.71    4.69
  -7  10   7   47.58    6.12
  -7  10   7   47.40    4.05
   7 -10  -7   59.16    4.44
   7 -10  -6   70.56    3.74
   7 -10  -6   80.08    5.30
   7 -10  -6   72.31    4.75
  -7  10   6   69.01    4.03
   7 -10  -5   32.43    3.32
   7 -10  -5   27.09    4.07
   7 -10  -5   25.71    4.53
  -7  10   5   25.02    5.27
   7 -10  -4   14.50    3.84
   7 -10  -4   14.93    3.28
   7 -10  -3    2.78    3.79
   7 -10  -3    2.29    3.33
  -7  10   3    7.04    4.60
   7 -10  -2    6.50    3.75
   7 -10  -2   -2.03    3.49
  -7  10   2   -3.39    4.32
   7 -10  -1   96.93    5.15
  -7  10   1   90.73    5.75
   7 -10   0  109.52    5.46
   7 -10   1   78.79    4.96
   7 -10   2   38.78    4.31
   7 -10   2   34.96    4.35
   7 -10   3   65.79    4.79
   7 -10   4    9.52    3.84
   7 -10   5   42.76    4.37
   7 -10   6   12.15    3.89
   7 -10   6   14.40    4.44
   7 -10   7  104.90    6.19
   7 -10   7  102.06    6.30
   7 -10   7  100.61    5.51
   7 -10   8   24.84    4.18
   7 -10   8   31.80    5.09
   7 -10   8   25.71    4.85
   7 -10   9   23.63    4.06
   7 -10   9   16.92    4.95
   7 -10   9   17.24    4.58
   7 -10  10    7.85    3.80
   7 -10  10    1.22    4.83
   7 -10  10   -1.67    4.24
   7 -10  11    5.13    5.02
   7 -10  12   10.98    5.15
  -7   9  12   26.57    5.37
  -7   9  11   74.12    7.09
  -7   9  11   67.82    5.85
   7  -9 -10   70.45    4.51
  -7   9  10   59.72    6.68
   7  -9 -10   61.79    4.05
  -7   9  10   56.54    5.24
   7  -9  -9   17.19    3.46
   7  -9  -9   20.67    3.75
  -7   9   9   18.47    5.77
  -7   9   9   21.68    4.13
   7  -9  -8    3.13    3.42
   7  -9  -8    4.09    3.68
  -7   9   8   -0.43    5.23
  -7   9   8    2.85    3.51
   7  -9  -7   26.51    2.67
   7  -9  -7   21.17    3.71
   7  -9  -7   23.52    4.00
  -7   9   7   25.16    5.39
  -7   9   7   26.91    3.49
   7  -9  -6   83.59    3.93
   7  -9  -6   81.22    5.13
  -7   9   6   77.05    4.10
   7  -9  -6   88.54    4.78
   7  -9  -5   86.43    4.89
   7  -9  -5   92.89    4.25
   7  -9  -5   93.62    5.41
  -7   9   5   81.73    3.84
   7  -9  -4  199.67    7.32
   7  -9  -4  205.92    6.85
   7  -9  -3  160.20    6.43
   7  -9  -3  164.73    6.00
  -7   9   3  147.76    7.07
   7  -9  -2    4.38    3.52
   7  -9  -2    0.14    3.21
  -7   9   2    7.95    3.89
  -7   9   1    1.42    3.72
  -7   9   0    2.66    3.61
   7  -9   1   45.59    4.15
  -7   9  -1   41.79    4.11
   7  -9   2  163.31    6.50
   7  -9   3  155.71    6.39
   7  -9   4   43.61    4.28
   7  -9   5   46.90    4.21
   7  -9   6   -3.74    3.57
   7  -9   6    4.98    4.07
   7  -9   7    5.03    3.56
   7  -9   7    2.36    4.25
   7  -9   7    1.10    4.09
   7  -9   8   10.01    3.63
   7  -9   8    3.08    4.46
   7  -9   8   12.49    4.16
   7  -9   9   49.88    5.20
   7  -9   9   43.51    4.63
   7  -9   9   45.03    4.21
   7  -9  10   97.95    6.14
   7  -9  10   93.04    4.98
   7  -9  11    8.36    4.82
   7  -9  12   -1.79    4.82
   7  -9  13    5.25    4.82
  -7   8  13    1.68    5.14
  -7   8  12    5.35    5.92
  -7   8  12   14.58    5.16
  -7   8  11   21.85    6.00
  -7   8  11   17.31    4.72
   7  -8 -10   26.88    3.53
   7  -8 -10   28.84    3.34
  -7   8  10   28.85    5.76
  -7   8  10   31.10    4.55
   7  -8  -9   68.31    4.39
  -7   8   9   59.42    6.15
  -7   8   9   70.06    4.88
   7  -8  -9   69.09    4.06
   7  -8  -8  110.82    3.84
  -7   8   8  104.03    5.31
   7  -8  -8  116.72    5.28
   7  -8  -8  104.88    4.89
   7  -8  -7   24.75    3.53
   7  -8  -7   21.15    2.58
   7  -8  -7   14.54    3.51
  -7   8   7   14.39    4.72
  -7   8   7   18.17    3.18
   7  -8  -6    3.62    3.27
   7  -8  -6   -1.55    2.65
   7  -8  -6    0.56    3.35
  -7   8   6    2.33    2.60
   7  -8  -5    4.66    3.23
   7  -8  -5    4.06    2.78
   7  -8  -5    2.39    3.29
  -7   8   5    2.47    2.24
   7  -8  -4   55.92    4.33
  -7   8   3   60.25    4.66
  -7   8   2  114.26    5.61
  -7   8   1  186.57    7.04
  -7   8   0   43.40    3.92
  -7   8  -1   37.83    3.62
  -7   8  -2   11.50    3.07
   7  -8   4   71.82    4.88
   7  -8   5   82.18    4.55
   7  -8   5   80.03    5.07
   7  -8   6   96.86    4.99
   7  -8   6   89.34    5.30
   7  -8   7   24.17    3.63
   7  -8   7   20.90    4.04
   7  -8   8   30.25    3.77
   7  -8   8   33.63    4.15
   7  -8   9   19.49    3.52
   7  -8   9   19.41    4.48
   7  -8   9   13.28    3.90
   7  -8  10   -0.86    4.46
   7  -8  10   -0.84    3.64
   7  -8  11   19.65    4.85
   7  -8  12   36.92    4.95
  -7   7  14   21.92    5.58
  -7   7  14    9.16    6.05
   7  -7 -13   18.32    4.61
  -7   7  13   20.22    6.01
  -7   7  13   22.48    5.41
  -7   7  12   14.43    5.76
  -7   7  12   13.18    4.88
   7  -7 -11   27.31    3.30
  -7   7  11   31.06    5.74
   7  -7 -11   29.83    3.08
  -7   7  11   22.80    4.58
   7  -7 -10    3.88    2.88
   7  -7 -10    5.89    3.02
  -7   7  10   -2.36    5.12
  -7   7  10   10.22    3.97
   7  -7  -9   -1.14    2.86
   7  -7  -9    1.26    3.00
  -7   7   9    3.64    4.87
  -7   7   9   -0.10    3.46
   7  -7  -8   32.93    3.44
   7  -7  -8   29.27    2.45
   7  -7  -8   30.05    3.48
  -7   7   8   26.66    4.92
  -7   7   8   30.82    3.64
   7  -7  -7   26.83    2.61
   7  -7  -7   24.16    3.33
   7  -7  -7   22.97    3.40
  -7   7   7   31.30    4.60
  -7   7   7   21.42    3.13
   7  -7  -6  104.30    4.99
  -7   7   6  102.27    4.41
   7  -7  -5  183.66    6.62
  -7   7   5  166.51    5.59
   7  -7  -4   39.69    3.71
   7  -7  -3  208.14    7.46
  -7   7   3  207.71    7.59
  -7   7   2   17.26    3.39
   7  -7  -1  121.56    5.56
  -7   7   1  124.38    5.33
  -7   7   0  250.09    7.99
   7  -7   1  183.72    7.00
  -7   7  -1  186.47    6.43
   7  -7   2  142.91    5.99
  -7   7  -2  134.06    5.15
   7  -7   3  152.31    6.34
   7  -7   4   18.38    3.53
   7  -7   5    8.74    3.37
   7  -7   6   22.11    3.67
   7  -7   7    9.37    3.23
   7  -7   7    6.88    3.43
   7  -7   8  119.05    5.10
   7  -7   8  105.64    5.34
   7  -7   9   70.26    4.45
   7  -7   9   65.62    4.13
   7  -7  10  113.71    5.98
   7  -7  10  110.21    5.02
   7  -7  11    7.00    4.47
   7  -7  12    5.19    4.41
  -7   6  15   10.06    5.98
   7  -6 -14    2.81    4.30
  -7   6  14    5.49    5.61
  -7   6  14    3.70    5.15
   7  -6 -13    0.31    4.10
  -7   6  13   -1.70    5.57
  -7   6  13    2.93    4.79
  -7   6  12   62.96    6.32
  -7   6  12   80.96    5.84
   7  -6 -11   81.37    4.00
  -7   6  11   79.19    6.32
  -7   6  11   71.85    5.42
   7  -6 -11   79.70    3.80
   7  -6 -10   54.53    3.53
   7  -6 -10   58.47    3.61
  -7   6  10   53.14    5.44
  -7   6  10   44.01    4.50
   7  -6  -9   68.05    3.88
   7  -6  -9   68.13    2.80
   7  -6  -9   63.95    3.86
  -7   6   9   64.35    5.37
  -7   6   9   68.25    4.48
   7  -6  -8   34.63    3.29
  -7   6   8   31.05    4.61
  -7   6   8   34.27    3.49
   7  -6  -7   27.86    3.19
  -7   6   7   30.99    4.17
  -7   6   7   27.63    3.01
   7  -6  -6    1.48    2.61
  -7   6   6   -0.66    2.27
   7  -6  -5   48.71    3.61
  -7   6   5   49.95    2.91
   7  -6  -4  486.79   13.65
  -7   6   3  436.20   12.59
  -7   6   2  132.68    5.41
   7  -6  -1   27.73    3.30
  -7   6   1   28.41    3.02
  -7   6   0   64.17    3.64
   7  -6   0   61.54    3.94
   7  -6   1   32.33    3.40
  -7   6  -1   29.82    2.87
   7  -6   2  124.68    5.15
  -7   6  -2  127.61    4.42
  -7   6  -3  137.58    4.63
   7  -6   3  139.69    5.62
   7  -6   3  126.83    3.39
   7  -6   4  188.88    6.86
   7  -6   5  158.51    6.13
   7  -6   6  106.38    4.97
   7  -6   7   30.60    3.55
   7  -6   8   10.77    3.10
   7  -6   8    2.49    3.10
   7  -6   9  109.92    4.63
   7  -6   9  101.73    4.90
   7  -6  10   46.05    3.77
   7  -6  11   -2.93    4.18
   7  -6  12   57.42    5.09
  -7   5  16   29.03    6.05
   7  -5 -15   19.82    4.48
  -7   5  15   16.70    5.78
  -7   5  15    6.20    5.37
   7  -5 -14   29.12    4.52
  -7   5  14   41.26    6.04
  -7   5  14   35.52    5.51
   7  -5 -13   13.81    3.89
  -7   5  13   14.23    5.36
  -7   5  13    9.07    4.72
   7  -5 -12    2.45    2.36
   7  -5 -12    2.88    2.44
  -7   5  12    2.89    4.81
  -7   5  12    3.44    4.23
   7  -5 -11   31.36    2.97
   7  -5 -11   34.95    2.98
  -7   5  11   29.31    5.02
  -7   5  11   26.20    4.23
   7  -5 -10    4.36    1.60
   7  -5 -10   -0.37    2.59
  -7   5  10    4.16    4.16
  -7   5  10    0.74    3.41
   7  -5  -9   71.33    3.80
  -7   5   9   75.30    5.17
  -7   5   9   68.77    4.42
  -7   5   8  105.18    5.54
   7  -5  -8  104.40    4.49
  -7   5   8  109.18    4.92
   7  -5  -7  163.23    5.82
  -7   5   7  162.01    5.80
   7  -5  -6  105.73    4.57
  -7   5   6  106.35    4.25
  -7   5   5    2.40    2.38
   7  -5  -5    0.37    2.54
  -7   5   5    2.94    1.88
  -7   5   4    7.11    2.37
   7  -5  -4    5.42    2.45
  -7   5   3   17.72    2.57
  -7   5   3   18.05    2.82
  -7   5   2   80.76    3.80
   7  -5  -2   73.62    3.92
  -7   5   2   80.16    3.86
   7  -5  -2   72.15    2.51
   7  -5  -1   78.11    3.94
  -7   5   1   77.59    3.80
   7  -5  -1   76.80    2.50
   7  -5   0   29.70    3.03
  -7   5   0   34.44    2.70
   7  -5   0   29.19    1.44
   7  -5   1  360.63   10.47
  -7   5  -1  373.29    9.92
   7  -5   1  345.22    8.94
  -7   5  -2  331.26    9.43
   7  -5   2  332.15    9.68
  -7   5  -2  329.60    8.95
   7  -5   2  309.80    8.21
  -7   5  -3    2.79    2.23
   7  -5   3    3.72    2.69
  -7   5  -3    4.52    1.95
   7  -5   4   18.76    2.96
   7  -5   5   56.56    3.76
   7  -5   6  139.40    5.44
   7  -5   7  153.63    5.80
   7  -5   8   37.75    3.36
   7  -5   8   36.68    2.85
   7  -5   9   11.85    3.19
   7  -5   9   18.75    2.94
   7  -5   9   10.40    2.81
   7  -5  10    2.87    3.18
   7  -5  11   13.82    3.35
   7  -5  11   16.86    4.15
   7  -4 -16    6.13    4.24
  -7   4  16   -0.13    5.57
  -7   4  16   -5.35    5.74
   7  -4 -15    7.91    4.06
  -7   4  15    4.71    5.42
  -7   4  15    4.16    5.23
   7  -4 -14    3.05    3.75
  -7   4  14    1.72    5.01
  -7   4  14    5.36    4.86
   7  -4 -13    2.76    3.48
  -7   4  13   -2.57    4.82
  -7   4  13   -2.17    4.41
   7  -4 -12   33.16    2.72
   7  -4 -12   34.33    3.64
   7  -4 -12   35.30    2.67
  -7   4  12   29.55    4.88
  -7   4  12   33.26    4.58
   7  -4 -11  182.70    5.41
  -7   4  11  170.54    7.21
  -7   4  11  168.74    6.90
   7  -4 -10  109.93    4.33
  -7   4  10  106.18    5.72
  -7   4  10   99.62    5.29
   7  -4  -9   60.72    3.34
  -7   4   9   52.81    3.96
  -7   4   8   18.43    2.79
   7  -4  -8   21.60    2.56
  -7   4   8   17.98    2.85
  -7   4   7    5.87    2.42
   7  -4  -7    7.53    2.41
  -7   4   7    4.19    2.34
  -7   4   6   32.27    2.80
   7  -4  -6   31.55    2.78
  -7   4   6   29.30    2.57
   7  -4  -5   12.96    2.36
  -7   4   5   10.91    2.39
  -7   4   4  289.42    8.24
   7  -4  -4  262.20    7.24
  -7   4   3  130.86    4.74
   7  -4  -3  116.40    3.65
   7  -4  -2  203.69    6.72
   7  -4  -2  208.37    5.64
  -7   4   1   26.32    2.56
   7  -4  -1   31.34    2.71
   7  -4  -1   27.58    1.58
   7  -4   0    1.59    2.17
  -7   4   0    0.96    1.89
   7  -4   0    1.84    1.15
  -7   4  -1  221.04    6.80
   7  -4   1  222.76    6.99
  -7   4  -1  212.75    6.40
   7  -4   1  210.42    5.88
  -7   4  -2  178.91    5.86
   7  -4   2  173.37    6.02
  -7   4  -2  170.06    5.30
  -7   4  -3  173.96    5.84
   7  -4   3  172.33    6.03
  -7   4  -3  175.14    5.13
  -7   4  -4  505.07   13.55
   7  -4   4  497.93   13.71
  -7   4  -5   43.65    2.99
   7  -4   5   45.62    3.29
   7  -4   6    2.64    2.59
   7  -4   7   26.31    2.92
   7  -4   7   23.07    2.15
   7  -4   8   35.98    3.00
   7  -4   8   36.48    3.41
   7  -4   9   63.61    4.00
   7  -4  10   58.62    4.02
   7  -4  11   94.48    4.80
   7  -4  11   86.78    4.62
   7  -3 -17    2.16    4.29
  -7   3  17   13.16    5.57
  -7   3  17   -2.36    5.61
   7  -3 -16   40.87    4.59
  -7   3  16   46.45    5.88
  -7   3  16   48.54    6.17
   7  -3 -15   98.43    5.54
  -7   3  15  111.75    6.83
  -7   3  15  108.14    7.00
   7  -3 -14  143.09    6.06
  -7   3  14  142.03    7.32
  -7   3  14  133.65    7.31
   7  -3 -13   29.20    3.53
   7  -3 -13   25.86    2.28
  -7   3  13   27.61    4.72
  -7   3  13   24.42    4.61
   7  -3 -12   -1.45    2.86
   7  -3 -12    0.51    2.09
  -7   3  12    0.12    3.80
   7  -3 -11   65.59    3.23
  -7   3  11   64.53    4.71
  -7   3  10  108.79    4.46
   7  -3 -10  107.22    4.17
  -7   3  10  117.99    5.42
  -7   3   9  159.47    5.57
   7  -3  -9  159.85    5.37
  -7   3   9  163.22    6.13
  -7   3   8   52.57    3.18
   7  -3  -8   50.19    3.00
  -7   3   8   53.44    3.52
  -7   3   7  190.41    6.17
   7  -3  -7  186.35    6.02
  -7   3   7  180.33    6.23
  -7   3   6  158.75    5.34
   7  -3  -6  151.70    5.20
  -7   3   6  142.93    5.14
  -7   3   5   -0.07    1.99
   7  -3  -5    1.25    1.96
  -7   3   4   62.89    3.17
   7  -3  -4   55.03    2.33
  -7   3   3  136.99    4.83
   7  -3  -3  130.63    4.01
   7  -3  -2  186.02    6.07
   7  -3  -2  183.88    5.23
   7  -3  -1  359.62   10.11
   7  -3  -1  354.53    9.32
   7  -3   0  495.75   13.42
   7  -3   1   18.74    2.41
  -7   3  -1   15.91    2.23
  -7   3  -2   12.97    2.19
   7  -3   2   14.18    2.41
  -7   3  -2   10.99    1.68
  -7   3  -3   68.71    3.41
   7  -3   3   69.36    3.56
  -7   3  -3   69.29    2.63
  -7   3  -4   24.50    2.45
   7  -3   4   21.86    2.68
  -7   3  -5  141.60    4.83
   7  -3   5  134.76    4.87
   7  -3   5  126.28    3.93
  -7   3  -6  136.53    4.80
   7  -3   6  137.44    4.86
   7  -3   6  127.12    3.97
   7  -3   7  156.54    5.30
   7  -3   7  154.00    5.68
   7  -3   8    4.08    2.96
   7  -3   8    1.17    2.23
   7  -3   9   -2.04    2.99
   7  -3  10    4.44    3.25
   7  -3  11   68.85    4.32
   7  -3  12   50.79    4.69
   7  -2 -17   16.55    4.39
  -7   2  17   17.70    5.37
  -7   2  17   16.14    5.77
   7  -2 -16    6.16    3.83
  -7   2  16   -4.10    4.93
  -7   2  16   -2.24    5.13
   7  -2 -15   30.79    3.85
  -7   2  15   38.70    5.59
   7  -2 -14   55.28    4.11
  -7   2  14   61.70    5.51
   7  -2 -13   73.12    4.18
   7  -2 -13   80.38    3.14
  -7   2  13   79.24    5.59
   7  -2 -12  155.04    5.66
   7  -2 -12  156.40    4.93
  -7   2  12  156.62    6.89
   7  -2 -11   64.55    3.45
  -7   2  11   59.95    3.28
   7  -2 -11   65.97    3.05
  -7   2  11   59.19    4.42
  -7   2  10    1.12    2.20
   7  -2 -10    1.85    2.04
  -7   2  10   -0.40    2.92
  -7   2   9    3.15    2.21
   7  -2  -9    0.87    1.88
  -7   2   9    3.23    2.60
  -7   2   8    2.24    2.04
   7  -2  -8    1.55    1.93
  -7   2   8    4.68    2.37
  -7   2   7  429.46   11.55
   7  -2  -7  419.97   11.39
  -7   2   7  408.34   11.69
  -7   2   6  166.97    5.65
   7  -2  -6  172.61    5.53
  -7   2   5   53.09    2.97
   7  -2  -5   52.45    2.86
  -7   2   4   86.37    3.64
   7  -2  -4   81.27    2.99
   7  -2  -4   84.05    3.04
  -7   2   3   87.85    3.65
   7  -2  -3   88.72    3.62
   7  -2  -3   81.97    2.97
   7  -2  -3   80.85    2.94
   7  -2  -2   13.27    1.47
   7  -2  -2   10.14    2.00
   7  -2  -1    9.09    2.04
  -7   2   0  199.82    6.27
   7  -2   0  192.73    6.23
   7  -2   1   50.14    2.26
  -7   2  -1   51.18    2.88
   7  -2   1   47.53    2.88
  -7   2  -2   69.04    3.24
   7  -2   2   65.30    3.32
  -7   2  -3   13.58    2.16
   7  -2   3   11.05    2.22
  -7   2  -3   11.85    1.37
   7  -2   4   83.63    3.63
  -7   2  -4   86.01    3.61
   7  -2   4   75.66    2.31
  -7   2  -5   17.59    2.37
   7  -2   5   20.79    2.43
   7  -2   5   14.41    1.14
   7  -2   6    1.85    2.51
  -7   2  -6    1.72    2.11
   7  -2   6    2.29    2.14
   7  -2   7   27.35    3.12
  -7   2  -7   23.03    2.40
   7  -2   7   23.67    2.42
   7  -2   8   75.48    4.11
   7  -2   9  135.58    5.51
   7  -2  10   18.73    3.44
   7  -2  11    1.99    3.49
   7  -2  13   -6.17    4.61
   7  -1 -18   32.32    4.81
   7  -1 -17   38.36    4.57
  -7   1  17   45.20    5.51
   7  -1 -16   38.36    4.26
   7  -1 -15   27.35    3.74
   7  -1 -14   58.79    3.92
   7  -1 -14   59.42    2.59
   7  -1 -13   -0.21    2.64
  -7   1  13    2.44    2.22
   7  -1 -13   -1.38    1.82
  -7   1  13   -3.47    3.98
   7  -1 -12    6.16    2.45
  -7   1  12    8.24    2.28
   7  -1 -12    9.47    1.93
  -7   1  12    6.84    3.63
   7  -1 -11   76.44    3.56
  -7   1  11   75.68    3.58
   7  -1 -11   82.76    3.28
  -7   1  11   76.54    4.71
   7  -1 -10  164.15    5.34
  -7   1  10  172.72    5.62
   7  -1 -10  175.15    5.33
  -7   1  10  163.04    6.45
  -7   1   9  281.85    8.10
   7  -1  -9  271.42    7.78
  -7   1   9  268.72    8.66
  -7   1   8  391.15   10.66
   7  -1  -8  388.43   10.40
  -7   1   8  364.44   10.98
  -7   1   7   59.49    3.06
   7  -1  -7   54.49    2.85
  -7   1   6   49.10    2.79
   7  -1  -6   49.77    2.71
  -7   1   5  387.99   10.38
   7  -1  -5  357.87    9.69
  -7   1   4  171.24    5.58
   7  -1  -4  168.58    4.90
   7  -1  -3  100.84    3.89
   7  -1  -3  101.65    3.53
   7  -1  -3  105.61    3.26
   7  -1  -2  147.01    4.92
   7  -1  -2  149.55    4.18
   7  -1  -1  173.35    5.63
   7  -1  -1  177.65    4.70
  -7   1   0   17.49    2.06
   7  -1   0   19.54    2.09
   7  -1   0   17.79    0.89
  -7   1  -1  199.39    6.48
   7  -1   1  194.09    6.37
  -7   1  -2   28.26    2.37
   7  -1   2   33.83    2.50
  -7   1  -3  343.14    9.51
   7  -1   3  332.05    9.38
  -7   1  -4  338.72    9.36
   7  -1   4  326.32    9.24
   7  -1   5   67.94    3.17
  -7   1  -5   68.35    3.28
   7  -1   5   69.20    3.60
  -7   1  -6   31.90    2.58
   7  -1   6   32.29    2.44
   7  -1   6   31.68    3.10
   7  -1   7   27.47    3.26
  -7   1  -7   29.39    2.46
   7  -1   7   30.72    2.31
   7  -1   8    4.08    3.10
   7  -1   9    0.07    3.18
   7  -1  10   24.79    3.79
   7  -1  11   84.48    5.01
   7  -1  12    9.66    3.90
   7   0 -18    1.03    4.14
  -7   0  18    0.35    4.78
  -7   0  18    4.70    5.69
   7   0 -17    3.46    3.79
  -7   0  17    4.16    5.41
   7   0 -16    4.94    3.50
   7   0 -15   67.42    4.28
   7   0 -14  122.86    5.06
   7   0 -14  121.80    3.93
   7   0 -13  178.92    5.99
  -7   0  13  170.49    5.65
   7   0 -13  176.86    5.22
   7   0 -12  174.20    5.87
  -7   0  12  181.04    5.84
   7   0 -12  185.71    5.44
   7   0 -11    6.41    2.04
  -7   0  11   11.27    2.26
   7   0 -11    9.68    1.92
   7   0 -10   19.90    1.96
  -7   0  10   17.35    2.33
   7   0 -10   22.39    2.09
   7   0  -9  136.87    4.36
  -7   0   9  139.42    4.93
   7   0  -9  143.36    4.61
  -7   0   8  579.10   15.24
   7   0  -8  573.96   14.91
  -7   0   7  696.36   18.52
   7   0  -7  730.68   18.27
  -7   0   6  177.48    5.73
   7   0  -6  173.22    5.45
  -7   0   5  238.65    7.20
  -7   0   4   45.72    2.67
   7   0  -4   42.21    2.46
   7   0  -4   42.36    1.87
   7   0  -3   55.59    2.75
   7   0  -3   58.12    2.07
   7   0  -2  197.11    5.07
   7   0  -2  187.05    5.86
   7   0  -2  186.39    5.01
   7   0  -1  132.84    3.68
   7   0  -1  123.84    4.45
   7   0   0  179.65    4.77
  -7   0   0  164.56    5.63
   7   0   0  165.82    5.44
  -7   0  -1  446.02   12.06
   7   0   1  441.06   11.84
   7   0   2   40.16    1.92
  -7   0  -2   37.37    2.67
   7   0   2   40.98    2.56
   7   0   3   36.93    2.54
  -7   0  -3   36.66    2.60
   7   0   3   41.15    2.80
   7   0   4   23.11    2.63
  -7   0  -4   21.21    2.32
   7   0   4   18.77    2.20
   7   0   5   20.13    2.82
  -7   0  -5   23.88    2.41
   7   0   5   21.90    2.23
  -7   0  -6  107.74    4.15
   7   0   6  116.48    3.95
   7   0   6  113.83    4.77
   7   0   7   19.33    3.19
  -7   0  -7   16.74    2.24
   7   0   7   19.69    2.10
   7   0   8   10.43    3.27
   7   0   9   33.53    3.74
   7   0  10    6.20    3.69
   7   0  11    0.84    3.79
   7   0  12   11.53    4.10
   7   1 -19   41.30    4.88
   7   1 -18    8.11    3.99
  -7  -1  18    7.29    5.52
   7   1 -17   26.04    3.93
  -7  -1  17   16.90    5.46
   7   1 -16   15.23    3.53
  -7  -1  16   15.01    4.95
   7   1 -15   20.46    3.33
  -7  -1  15   11.26    4.60
   7   1 -14    3.45    2.69
  -7  -1  14    1.08    2.14
   7   1 -14    0.68    1.82
  -7  -1  14   -2.58    4.21
   7   1 -13   63.93    3.44
  -7  -1  13   62.96    3.22
   7   1 -13   59.79    2.80
  -7  -1  13   58.75    4.91
   7   1 -12  188.18    5.97
  -7  -1  12  189.76    6.11
   7   1 -12  196.68    5.70
   7   1 -11  118.19    4.25
  -7  -1  11  125.64    4.63
   7   1 -11  132.17    4.22
   7   1 -10  322.68    8.90
  -7  -1  10  342.49    9.48
   7   1 -10  335.77    9.01
   7   1  -9   62.42    2.54
  -7  -1   9   59.71    3.19
   7   1  -9   66.99    2.89
   7   1  -8    1.19    1.18
  -7  -1   8    2.25    1.86
   7   1  -8    2.38    1.74
   7   1  -7   26.50    1.41
  -7  -1   7   22.99    2.33
   7   1  -7   27.52    2.09
  -7  -1   6   10.52    1.94
  -7  -1   5  200.31    6.33
   7   1  -4  631.37   16.25
   7   1  -3  554.83   13.28
  -7  -1   3  511.88   14.51
   7   1  -3  526.22   14.19
   7   1  -2  108.49    2.92
   7   1  -2  111.77    3.93
   7   1  -1   22.89    1.12
  -7  -1   1   21.01    2.22
   7   1  -1   19.07    2.01
   7   1   0  101.51    2.94
  -7  -1   0   95.44    3.97
   7   1   0   99.95    3.73
   7   1   1    8.07    1.01
  -7  -1  -1    5.30    1.98
   7   1   1    3.50    1.80
   7   1   2    5.04    2.15
  -7  -1  -2    6.11    1.96
   7   1   2    5.58    1.87
  -7  -1  -3   67.04    3.31
   7   1   3   68.04    3.05
   7   1   3   70.71    3.57
  -7  -1  -4   89.26    3.42
   7   1   4   84.29    3.18
   7   1   4   91.30    3.85
  -7  -1  -5  131.82    4.65
   7   1   5  130.09    4.39
   7   1   5  137.19    5.13
   7   1   6   26.27    3.22
  -7  -1  -6   21.87    2.39
   7   1   6   21.90    2.22
   7   1   7    3.50    3.08
  -7  -1  -7    4.85    2.04
   7   1   8   10.01    3.47
   7   1   9    7.26    3.75
   7   1  10    2.14    3.88
   7   1  11   12.48    4.20
   7   1  12   10.95    4.38
   7   2 -19   -9.01    4.16
  -7  -2  19    3.05    5.77
   7   2 -18    5.01    3.83
  -7  -2  18    5.53    5.45
   7   2 -17   25.27    3.86
  -7  -2  17   25.16    5.52
   7   2 -16   42.91    3.87
  -7  -2  16   37.32    5.39
   7   2 -15   93.89    4.58
  -7  -2  15  105.22    6.44
   7   2 -14   20.35    2.88
  -7  -2  14   20.10    2.49
  -7  -2  14   14.43    4.33
   7   2 -13   33.09    2.81
  -7  -2  13   28.64    2.73
   7   2 -13   32.28    2.33
  -7  -2  13   26.36    4.24
   7   2 -12   44.03    2.77
  -7  -2  12   44.68    2.95
   7   2 -12   44.23    2.52
  -7  -2  12   37.21    3.97
  -7  -2  12   37.40    4.01
   7   2 -11    5.60    1.81
  -7  -2  11    2.33    2.11
   7   2 -11    5.47    1.89
  -7  -2  11    4.19    2.79
   7   2 -10  144.04    4.45
  -7  -2  10  135.89    5.06
   7   2 -10  147.82    4.67
  -7  -2  10  146.20    5.73
   7   2  -9  210.73    6.03
   7   2  -9  197.74    5.56
  -7  -2   9  214.48    6.50
   7   2  -8  203.93    5.60
  -7  -2   8  210.44    6.66
   7   2  -8  223.52    6.23
  -7  -2   8  206.00    6.67
   7   2  -7  510.28   12.77
  -7  -2   7  524.73   14.01
   7   2  -7  536.15   13.53
  -7  -2   7  516.06   13.77
   7   2  -6  309.58    7.68
  -7  -2   6  320.58    9.13
  -7  -2   6  313.92    8.71
  -7  -2   5   17.99    2.23
   7   2  -5   19.66    1.90
  -7  -2   5   19.30    1.73
   7   2  -4   17.13    1.88
   7   2  -3  105.22    3.78
   7   2  -2  510.96   13.37
  -7  -2   1  503.43   13.77
   7   2  -1  514.83   13.34
  -7  -2   0  200.30    6.63
   7   2   0  208.65    6.28
  -7  -2  -1  261.01    7.99
   7   2   1  272.52    7.71
   7   2   1  279.30    7.96
   7   2   2   10.40    2.34
  -7  -2  -2   14.24    2.26
   7   2   2   13.73    2.10
   7   2   3    9.13    2.52
  -7  -2  -3    7.07    2.15
   7   2   3    9.72    2.07
  -7  -2  -3    6.25    1.64
   7   2   4    5.77    2.68
  -7  -2  -4    6.56    2.15
   7   2   4    5.00    2.04
  -7  -2  -4    3.17    1.48
   7   2   5   40.20    2.56
  -7  -2  -5   35.41    2.71
   7   2   5   42.31    3.47
  -7  -2  -6   75.63    3.44
   7   2   6   82.69    4.41
  -7  -2  -7   57.88    2.98
   7   2   7   74.73    4.41
   7   2   8   92.33    5.15
   7   2   9    8.21    3.83
   7   2  10    9.26    4.17
   7   2  11   -2.11    4.35
   7   3 -20   10.40    4.31
   7   3 -19    4.85    3.94
  -7  -3  19   10.16    5.91
   7   3 -18   17.99    3.92
  -7  -3  18   13.19    5.69
   7   3 -17   20.69    3.62
  -7  -3  17   19.99    5.27
   7   3 -16   -2.93    3.13
   7   3 -16   -0.99    1.87
  -7  -3  16   -1.38    4.58
   7   3 -15   14.04    2.95
  -7  -3  15   12.69    2.46
   7   3 -15   10.39    2.07
  -7  -3  15   10.87    4.42
   7   3 -14   25.85    2.87
  -7  -3  14   25.34    2.66
  -7  -3  14   30.24    4.41
   7   3 -13  111.71    4.37
  -7  -3  13  112.59    4.47
   7   3 -12   96.78    3.80
  -7  -3  12   98.92    4.20
   7   3 -12   98.28    3.72
  -7  -3  12   99.44    5.10
   7   3 -11  141.52    4.61
  -7  -3  11  150.81    5.29
   7   3 -11  147.14    4.77
  -7  -3  11  139.12    5.87
   7   3 -10  110.83    3.65
  -7  -3  10  114.27    4.58
   7   3 -10  113.29    4.05
  -7  -3  10  111.32    4.87
   7   3  -9   37.64    1.84
  -7  -3   9   40.81    2.91
   7   3  -9   44.89    2.58
  -7  -3   9   37.35    3.00
   7   3  -8  221.39    5.92
  -7  -3   8  224.07    7.20
   7   3  -8  245.91    6.72
  -7  -3   8  225.39    7.08
  -7  -3   7  105.74    4.48
  -7  -3   7  120.56    4.30
  -7  -3   6  452.16   12.57
  -7  -3   6  455.68   12.06
   7   3  -5  433.61   11.74
  -7  -3   5  449.48   11.55
  -7  -3   4  252.22    7.89
   7   3  -4  256.22    7.36
  -7  -3   4  259.71    6.93
   7   3  -3  106.96    3.81
  -7  -3   3   96.25    3.01
   7   3  -3  106.15    3.68
   7   3  -2   17.96    2.09
   7   3  -2   14.16    2.01
  -7  -3   2   14.55    2.24
  -7  -3   1   25.95    2.51
   7   3  -1   24.26    2.22
  -7  -3   0  575.14   15.59
   7   3   0  590.46   15.19
  -7  -3  -1  410.08   11.84
   7   3   1  431.30   11.50
   7   3   1  444.47   11.75
  -7  -3  -2  168.59    5.75
   7   3   2  180.63    5.53
   7   3   2  169.59    5.88
  -7  -3  -3   26.92    2.64
  -7  -3  -3   23.35    2.08
   7   3   3   30.08    2.48
   7   3   3   24.87    2.92
   7   3   4    6.39    2.86
  -7  -3  -4    6.23    2.36
  -7  -3  -4    2.24    2.27
   7   3   5    5.89    3.09
  -7  -3  -5    6.99    2.77
  -7  -3  -5    9.23    2.28
  -7  -3  -6    8.43    2.27
   7   3   6   12.68    3.49
  -7  -3  -6   13.24    3.19
   7   3   7    3.35    3.66
   7   3   8   79.45    5.10
   7   3   9   19.49    4.39
   7   3  10   13.15    4.47
   7   4 -19   -4.21    3.88
  -7  -4  19   -4.06    5.72
   7   4 -18    9.78    3.63
  -7  -4  18   11.49    5.46
   7   4 -17   32.50    3.75
  -7  -4  17   28.59    5.43
   7   4 -16   51.55    3.79
   7   4 -16   45.56    2.68
   7   4 -15   30.07    3.12
   7   4 -15   26.27    2.45
  -7  -4  15   30.82    2.91
   7   4 -14    5.18    2.49
   7   4 -14    7.08    2.27
  -7  -4  14    9.33    2.51
  -7  -4  13    0.33    3.40
   7   4 -13    5.60    2.16
  -7  -4  13   -1.45    2.48
  -7  -4  12   16.94    3.40
   7   4 -12   19.81    2.08
  -7  -4  12   17.05    2.73
   7   4 -12   14.80    1.08
   7   4 -11   55.09    2.57
  -7  -4  11   57.09    3.40
   7   4 -11   52.86    2.93
  -7  -4  11   52.04    3.94
  -7  -4  10   71.72    3.83
   7   4 -10   76.32    3.33
  -7  -4  10   67.81    4.04
  -7  -4   9   48.97    3.19
   7   4  -9   53.04    2.87
  -7  -4   9   49.57    3.29
  -7  -4   8  186.75    6.43
  -7  -4   8  192.58    6.29
   7   4  -8  190.10    5.91
  -7  -4   7  167.91    6.12
  -7  -4   7  172.69    5.77
  -7  -4   6   21.86    2.63
  -7  -4   6   27.17    2.21
   7   4  -6   26.44    1.87
   7   4  -5   35.26    2.51
   7   4  -5   38.48    2.21
   7   4  -4   95.85    3.75
  -7  -4   4   90.41    3.20
   7   4  -4   95.05    3.48
   7   4  -3  510.43   12.89
   7   4  -3  508.14   12.72
  -7  -4   2  112.51    4.66
   7   4  -2  123.03    4.31
  -7  -4   2  111.36    3.19
   7   4  -2  125.94    4.23
  -7  -4   1   38.50    2.97
   7   4  -1   43.59    2.73
  -7  -4   0   89.11    4.11
   7   4   0   98.96    3.91
  -7  -4  -1   40.51    2.20
  -7  -4  -1   32.44    2.88
   7   4   1   36.77    2.71
   7   4   1   30.35    2.94
  -7  -4  -2   57.23    2.84
  -7  -4  -2   53.18    3.30
   7   4   2   55.08    3.59
  -7  -4  -3  137.25    4.77
  -7  -4  -3  131.11    4.99
   7   4   3  131.17    5.32
  -7  -4  -4  105.26    4.38
   7   4   4  108.46    4.15
  -7  -4  -4   95.13    4.20
   7   4   4   98.50    4.81
   7   4   5   31.97    3.81
  -7  -4  -5   38.22    3.33
   7   4   5   36.29    2.77
  -7  -4  -5   31.07    2.77
   7   4   6   13.33    3.75
  -7  -4  -6   11.36    3.19
  -7  -4  -6   12.00    2.36
   7   4   7   -0.69    3.87
  -7  -4  -7    3.40    3.43
   7   4   8    9.10    4.26
  -7  -4  -8   13.43    3.81
   7   4   9    4.99    4.44
   7   5 -16   10.65    2.39
  -7  -5  15    3.49    2.63
   7   5 -15    3.43    2.34
   7   5 -14   38.69    2.92
  -7  -5  14   45.26    3.40
  -7  -5  14   44.75    4.52
   7   5 -13   61.82    3.34
  -7  -5  13   67.21    3.78
  -7  -5  13   73.88    4.82
  -7  -5  12   65.06    3.80
  -7  -5  12   61.30    4.38
  -7  -5  11   66.23    3.78
  -7  -5  11   57.91    4.08
   7   5 -11   59.40    1.95
  -7  -5  10    4.11    2.65
   7   5 -10    1.52    1.14
  -7  -5  10    1.22    2.38
  -7  -5   9    3.84    2.46
   7   5  -9    2.55    2.15
   7   5  -8   44.16    2.91
  -7  -5   8   44.95    3.03
   7   5  -8   49.07    2.20
  -7  -5   7  139.38    4.99
   7   5  -7  144.65    4.36
   7   5  -6  373.91   10.66
  -7  -5   6  388.32   10.57
   7   5  -6  393.71   10.16
   7   5  -5  307.06    8.88
  -7  -5   5  308.63    8.60
   7   5  -5  314.99    8.49
   7   5  -4   37.39    2.79
  -7  -5   4   36.86    2.16
   7   5  -4   39.78    2.44
   7   5  -3   12.64    2.17
   7   5  -3   13.51    2.44
  -7  -5   3   15.23    1.63
   7   5  -2    4.97    2.21
  -7  -5   2    3.83    2.33
   7   5  -2    5.51    2.29
  -7  -5   1   80.25    4.14
   7   5  -1   93.06    3.87
  -7  -5   0  275.40    7.17
  -7  -5   0  251.21    8.24
  -7  -5  -1  181.49    5.36
  -7  -5  -1  171.18    6.18
  -7  -5  -2  135.17    4.47
   7   5   2  117.17    4.68
  -7  -5  -2  119.24    4.90
   7   5   2  126.89    5.23
  -7  -5  -3   65.59    3.43
   7   5   3   61.58    3.46
  -7  -5  -3   58.61    3.59
   7   5   3   69.49    4.20
   7   5   4    0.79    3.32
  -7  -5  -4   -0.12    2.64
  -7  -5  -4    2.84    2.47
   7   5   4    0.04    2.52
   7   5   5   41.66    4.39
  -7  -5  -5   36.40    3.10
   7   5   6   94.96    5.53
  -7  -5  -6   95.21    4.84
   7   5   7   48.89    4.99
   7   5   8   31.89    4.94
   7   6 -17   27.15    2.77
   7   6 -16   37.43    3.05
  -7  -6  16   46.01    3.53
  -7  -6  15   27.37    4.56
  -7  -6  15   18.04    3.14
   7   6 -15   21.98    2.80
  -7  -6  14    3.35    3.89
  -7  -6  14    0.56    2.83
   7   6 -14    1.50    2.48
  -7  -6  13    5.16    3.50
   7   6 -13    6.34    2.56
  -7  -6  13    7.82    2.93
   7   6 -12   49.62    3.35
  -7  -6  12   55.47    3.81
  -7  -6  12   60.25    4.37
   7   6 -11   78.65    2.35
  -7  -6  11   91.38    4.64
  -7  -6  10  161.42    6.00
   7   6 -10  147.55    4.17
  -7  -6   9   52.03    3.34
   7   6  -9   23.20    1.42
   7   6  -8   12.09    1.63
  -7  -6   8   13.91    2.58
   7   6  -7    0.71    1.59
  -7  -6   7    2.46    2.21
   7   6  -6   15.90    1.92
   7   6  -5  145.11    4.73
   7   6  -4  194.90    6.00
   7   6  -3  136.87    4.85
   7   6  -2  177.77    5.91
   7   6  -1   -0.25    2.63
  -7  -6   1    1.00    1.28
  -7  -6   0    0.38    1.63
   7   6   0    2.11    2.80
  -7  -6   0    1.80    2.61
  -7  -6  -1   97.45    3.63
   7   6   1   95.96    4.32
  -7  -6  -1   93.77    4.52
  -7  -6  -2   30.51    2.63
   7   6   2   27.73    3.07
  -7  -6  -2   31.27    3.13
   7   6   3  119.62    5.57
  -7  -6  -3  125.19    4.67
   7   6   3  110.41    4.68
  -7  -6  -3  110.39    4.85
   7   6   4   72.77    4.81
  -7  -6  -4   72.45    3.87
  -7  -6  -4   64.28    3.77
   7   6   5   58.44    4.93
  -7  -6  -5   56.60    3.50
   7   6   6   -0.39    4.29
   7   6   7   38.60    5.09
  -7  -7  19   12.09    5.66
   7   7 -17    4.78    2.77
   7   7 -16   38.52    3.33
  -7  -7  16   50.31    3.82
  -7  -7  16   53.01    5.50
   7   7 -15   57.96    3.64
  -7  -7  15   61.36    4.11
  -7  -7  15   68.34    5.47
  -7  -7  14   39.48    4.71
   7   7 -14   42.32    3.30
  -7  -7  14   49.47    3.87
   7   7 -13   79.66    4.06
  -7  -7  13   97.91    5.48
  -7  -7  12   15.81    3.62
   7   7 -12   13.02    2.83
  -7  -7  11   11.60    3.30
   7   7 -11   16.72    2.89
   7   7 -10   23.58    1.36
  -7  -7  10   17.85    3.16
  -7  -7  10   22.85    3.54
   7   7 -10   20.18    3.02
   7   7  -9   33.26    1.93
   7   7  -9   31.72    3.28
  -7  -7   9   38.03    3.81
  -7  -7   9   31.99    3.28
  -7  -7   8   95.57    4.91
   7   7  -8   99.25    3.44
  -7  -7   7   26.84    3.55
   7   7  -7   32.05    2.26
   7   7  -6    7.11    2.03
   7   7  -5   46.40    3.48
   7   7  -5   44.96    2.87
   7   7  -4   29.68    3.23
  -7  -7   4   34.62    3.70
   7   7  -4   32.23    2.75
   7   7  -3   -0.53    2.49
  -7  -7   3    3.42    3.16
   7   7  -3    2.52    2.87
  -7  -7   2   42.92    1.85
   7   7  -2   50.70    3.57
   7   7  -2   54.16    3.52
   7   7  -1  157.54    5.78
  -7  -7   1  144.82    4.37
   7   7  -1  151.72    5.61
   7   7   0  135.62    5.67
  -7  -7   0  142.80    4.48
   7   7   0  136.05    5.43
  -7  -7  -1    0.64    2.91
   7   7   1    0.36    2.95
  -7  -7  -2    8.39    2.95
   7   7   2    7.71    3.09
  -7  -7  -3   -1.00    2.82
   7   7   3    1.17    3.82
   7   7   3   -1.06    3.03
   7   7   4   11.16    4.15
  -7  -7  -4    8.46    2.95
   7   7   5   16.35    4.70
   7   7   6    0.93    4.56
  -7  -8  17   16.65    5.19
   7   8 -17   16.15    3.20
  -7  -8  16   27.01    4.96
   7   8 -16   21.24    3.34
  -7  -8  16   26.60    3.70
  -7  -8  15    2.11    4.36
  -7  -8  15    4.49    3.30
   7   8 -15    1.66    3.09
  -7  -8  14   22.75    4.31
   7   8 -14    9.50    3.15
   7   8 -13  115.93    5.06
  -7  -8  13  124.54    6.23
  -7  -8  12  133.76    6.04
   7   8 -12  123.04    5.27
  -7  -8  12  136.62    6.23
  -7  -8  11   61.73    4.58
   7   8 -11   57.29    3.89
  -7  -8  11   53.88    4.39
  -7  -8  10   11.72    3.27
  -7  -8  10   11.83    3.68
   7   8 -10   12.98    3.17
   7   8  -9    7.74    1.80
  -7  -8   9    3.78    3.59
   7   8  -8   22.23    2.17
  -7  -8   8   27.43    3.90
   7   8  -7    8.49    2.14
   7   8  -7    5.93    3.07
   7   8  -6   76.61    3.58
   7   8  -6   82.70    4.38
   7   8  -5   64.71    3.46
   7   8  -5   59.23    4.04
   7   8  -4   84.03    3.96
  -7  -8   4   77.81    4.81
   7   8  -4   68.83    4.30
   7   8  -3  123.08    5.00
  -7  -8   3  126.49    5.72
   7   8  -3  113.95    5.17
   7   8  -2   99.10    4.69
  -7  -8   2   97.09    5.15
   7   8  -2   87.45    4.69
   7   8  -1   20.81    3.48
   7   8  -1   23.34    3.43
   7   8   0   11.19    3.58
   7   8   0    7.60    3.31
   7   8   1   23.44    4.17
  -7  -8  -1   24.82    3.46
   7   8   1   24.43    3.55
   7   8   2   71.26    4.44
  -7  -8  -2   76.02    4.34
   7   8   3   30.78    3.68
  -7  -8  -3   26.67    3.40
   7   8   4   14.17    4.57
   7   8   5   10.31    4.80
  -7  -9  18   17.88    5.52
  -7  -9  17   45.77    5.83
   7   9 -17   23.78    3.69
  -7  -9  16   42.54    5.45
   7   9 -16   30.05    3.81
  -7  -9  16   40.80    4.21
   7   9 -15   28.87    3.81
  -7  -9  15   38.88    5.22
  -7  -9  14   35.23    4.80
   7   9 -14   30.51    3.83
  -7  -9  13    3.34    3.96
  -7  -9  13   -1.35    3.93
   7   9 -13   -1.12    3.38
  -7  -9  12    4.27    3.67
  -7  -9  12    4.64    3.91
   7   9 -12    2.90    3.32
  -7  -9  11   17.53    3.73
  -7  -9  11   13.70    4.21
   7   9 -11   10.11    3.46
   7   9 -10   41.50    3.85
  -7  -9  10   37.31    4.44
  -7  -9   9  324.51   10.68
   7   9  -8   86.47    3.59
  -7  -9   8   84.94    5.51
   7   9  -7    8.61    2.38
   7   9  -7    7.09    3.41
   7   9  -6    2.00    2.49
   7   9  -6    0.31    3.39
   7   9  -5    0.86    2.76
   7   9  -5    0.62    3.38
   7   9  -4   38.02    3.46
  -7  -9   4   29.86    4.31
   7   9  -4   30.55    3.85
   7   9  -3   46.71    3.86
  -7  -9   3   51.93    4.51
   7   9  -3   44.07    4.07
   7   9  -2   23.77    3.72
  -7  -9   2   23.42    4.08
   7   9  -2   21.38    3.80
   7   9  -1   13.38    3.80
   7   9  -1   18.55    3.78
   7   9   0   21.76    4.26
   7   9   0   29.59    4.01
   7   9   1   22.57    3.91
   7   9   1   30.00    4.41
   7   9   2    3.34    3.57
  -7  -9  -2    1.99    3.26
  -7  -9  -3   11.76    3.35
  -7 -10  18   10.01    5.53
  -7 -10  17   -0.15    5.19
   7  10 -17    2.57    3.54
  -7 -10  17   -2.17    3.75
  -7 -10  16    8.43    4.96
   7  10 -16    6.57    3.70
  -7 -10  15   13.07    4.72
   7  10 -15    9.23    3.78
   7  10 -14   11.27    3.83
  -7 -10  14    9.76    4.50
  -7 -10  14   18.57    4.45
  -7 -10  13   40.53    4.98
  -7 -10  13   55.28    5.18
   7  10 -13   44.69    4.35
  -7 -10  12   91.43    5.72
   7  10 -12   79.14    5.07
  -7 -10  12   86.25    5.58
  -7 -10  11   65.40    5.29
   7  10 -11   52.90    4.50
  -7 -10  10   36.55    4.87
   7  10 -10   36.89    4.22
  -7 -10   9   53.27    5.02
   7  10  -8   59.84    4.60
  -7 -10   7   77.35    5.61
   7  10  -7   68.64    4.96
   7  10  -6   41.71    4.38
   7  10  -5   33.37    3.50
  -7 -10   5   29.74    4.65
   7  10  -5   35.99    4.30
   7  10  -4    5.34    3.25
  -7 -10   4    8.13    4.17
   7  10  -4   12.62    3.99
   7  10  -3    4.42    3.48
  -7 -10   3    2.78    4.06
   7  10  -3    1.77    3.90
   7  10  -2    0.17    3.94
   7  10  -2   -0.43    3.70
  -7 -10   2    2.42    3.97
   7  10  -1    0.65    3.98
   7  10  -1    2.68    4.03
   7  10   0    8.29    4.01
   7  10   1   22.63    4.28
  -7 -10  -2   39.02    4.11
   7  11 -18   -6.02    3.99
  -7 -11  17   26.50    5.70
   7  11 -17   13.33    4.19
   7  11 -16   52.20    4.84
  -7 -11  16   67.32    6.30
  -7 -11  15   32.15    5.32
   7  11 -15   17.79    4.31
  -7 -11  15   21.36    4.90
  -7 -11  14    1.61    4.68
   7  11 -14    1.26    3.98
  -7 -11  14    7.96    4.71
   7  11 -13   19.42    4.36
  -7 -11  13   27.11    4.84
  -7 -11  13   26.59    5.00
   7  11 -12   16.78    4.25
  -7 -11  12    5.06    4.62
   7  11 -11   52.85    4.92
  -7 -11  11   48.06    5.34
  -7 -11  10   69.11    5.77
  -7 -11   9   34.94    5.18
   7  11  -8   60.71    5.10
   7  11  -7    7.87    4.33
  -7 -11   6   20.88    4.92
   7  11  -6   19.32    4.42
  -7 -11   5   63.66    5.44
   7  11  -5   60.41    5.18
   7  11  -4   37.84    4.85
  -7 -11   4   32.81    4.89
  -7 -11   3   50.04    5.11
   7  11  -3   47.14    4.98
   7  11  -2    6.97    4.42
  -7 -11   2    9.42    4.50
   7  11  -1   32.92    4.70
   7  11   0   -4.63    4.42
   7  12 -18    2.17    4.12
   7  12 -17    0.25    4.20
  -7 -12  16   -1.48    5.06
   7  12 -16    5.93    4.41
  -7 -12  15   12.21    5.26
   7  12 -15   18.63    4.61
  -7 -12  15   15.31    5.15
  -7 -12  14   33.58    5.47
   7  12 -14   30.33    4.88
  -7 -12  14   37.39    5.50
   7  12 -13   25.88    4.83
  -7 -12  13   34.97    5.44
   7  12 -12   12.47    4.59
  -7 -12  12   10.78    4.99
   7  12 -11    1.09    4.62
  -7 -12  11    0.73    4.97
  -7 -12  10   18.58    5.24
   7  12  -9    8.11    4.78
  -7 -12   9   13.37    5.06
   7  12  -8   13.74    4.74
   7  12  -7   39.67    5.22
  -7 -12   6   83.32    6.13
   7  12  -6   70.00    5.87
   7  12  -5   13.37    4.91
  -7 -12   5   30.93    5.25
   7  12  -4   -2.48    4.73
  -7 -12   4    5.71    4.83
   7  12  -3   16.06    4.88
  -7 -12   3   14.15    4.87
   7  12  -2   30.70    5.11
  -7 -12   2   33.24    5.14
   7  12  -1   21.69    4.88
   7  12   0    2.66    4.54
  -7 -13  16   -0.34    4.97
   7  13 -16   -3.17    4.71
  -7 -13  15    2.78    5.19
   7  13 -15    4.83    4.79
  -7 -13  15   12.50    5.38
  -7 -13  14    4.93    5.07
   7  13 -14   -1.60    4.88
   7  13 -13    7.22    5.02
  -7 -13  13   17.50    5.46
  -7 -13  12   70.32    6.34
   7  13 -12   62.02    5.95
   7  13 -11   30.64    5.44
  -7 -13  11   38.89    5.83
  -7 -13  10    7.41    5.39
   7  13  -9    3.39    5.12
   7  13  -8    1.21    5.15
   7  13  -7   -0.55    5.11
  -7 -13   7   -3.49    5.47
   7  13  -6   13.22    5.28
  -7 -13   6   16.64    5.36
   7  13  -5   24.87    5.61
  -7 -13   5   30.67    5.59
   7  13  -4   37.43    5.65
  -7 -13   4   52.83    5.75
   7  13  -3   20.01    5.24
  -7 -13   3   18.53    5.27
  -7 -13   2   -4.61    4.86
   7  13  -2   -4.10    4.98
   7  14 -12    9.14    5.48
  -7 -14  12   10.38    5.77
  -7 -14  11   -4.24    5.66
  -7 -14  10   22.72    5.94
   7  14  -9   32.27    5.87
   7  14  -8   33.20    5.92
  -7 -14   7   -1.03    5.51
   8 -14  -1    4.94    4.38
   8 -14   0   14.57    4.70
   8 -14   1   70.17    5.75
   8 -13  -3   63.21    4.68
   8 -13  -3   68.32    6.58
   8 -13  -3   61.07    5.59
   8 -13  -2   35.21    5.23
   8 -13  -2   36.39    4.55
   8 -13  -2   36.00    6.17
   8 -13  -1   11.40    4.93
   8 -13  -1   13.66    4.40
   8 -13  -1   10.90    5.87
   8 -13   0   21.82    4.73
   8 -13   1   10.51    4.72
   8 -13   2   23.89    5.11
   8 -13   3   31.28    5.32
   8 -13   3   23.78    5.34
   8 -13   4   71.51    6.02
   8 -13   4   59.99    5.79
   8 -13   5   75.77    6.35
   8 -13   5   84.90    7.38
   8 -13   5   71.27    5.92
   8 -13   6   15.57    4.99
   8 -13   6    9.46    6.03
   8 -13   7    3.37    4.86
   8 -13   7    5.27    5.89
   8 -12  -7   27.95    4.55
   8 -12  -7   33.52    5.19
   8 -12  -6   24.78    4.61
   8 -12  -6   32.88    5.28
   8 -12  -5   12.72    5.01
   8 -12  -5   -1.55    4.61
   8 -12  -4    4.57    4.45
   8 -12  -4    0.06    3.67
   8 -12  -4    1.90    5.02
   8 -12  -3    0.20    4.53
   8 -12  -3    4.90    3.78
   8 -12  -3   -4.67    5.40
   8 -12  -2   19.44    4.75
   8 -12  -2   18.89    4.28
   8 -12  -2   21.98    5.73
   8 -12  -1   42.36    4.82
   8 -12  -1   36.73    5.10
   8 -12   0  184.02    7.56
   8 -12   1   32.22    4.89
   8 -12   2   10.04    4.57
   8 -12   2    0.29    4.64
   8 -12   3    2.32    4.62
   8 -12   3    0.72    4.74
   8 -12   4    5.86    4.56
   8 -12   4   -2.87    4.96
   8 -12   4    3.30    5.56
   8 -12   5    4.85    4.57
   8 -12   5    0.93    5.52
   8 -12   6   68.56    6.67
   8 -12   6   68.18    5.61
   8 -12   7  121.41    7.13
   8 -12   7  117.31    7.51
   8 -12   7  109.74    6.44
   8 -12   8   89.35    6.59
   8 -12   8   80.39    6.68
   8 -12   8   76.76    5.74
   8 -12   9    5.20    4.52
   8 -12   9    4.96    5.18
   8 -11  -8    9.71    4.05
   8 -11  -8   14.98    4.49
   8 -11  -7    4.96    4.09
   8 -11  -7   -2.87    4.39
   8 -11  -6   10.02    4.32
   8 -11  -6   10.18    4.63
  -8  11   6    6.51    5.80
   8 -11  -5   32.48    5.13
   8 -11  -5   23.82    4.54
   8 -11  -5   30.43    3.66
   8 -11  -4   36.75    4.72
   8 -11  -4   34.39    3.97
   8 -11  -4   44.61    5.31
  -8  11   4   33.88    5.79
   8 -11  -3   23.60    4.57
   8 -11  -3   25.48    4.00
   8 -11  -3   22.87    5.17
  -8  11   3   21.78    5.31
   8 -11  -2   60.49    4.77
   8 -11  -2   60.22    5.93
  -8  11   2   49.19    5.67
   8 -11  -2   63.43    5.18
   8 -11  -1   20.10    4.35
   8 -11   0   30.64    4.62
   8 -11   1   20.20    4.68
   8 -11   2   37.53    4.84
   8 -11   2   27.16    4.85
   8 -11   3   53.90    5.18
   8 -11   3   60.78    5.45
   8 -11   3   52.83    5.99
   8 -11   4   82.13    6.60
   8 -11   4   84.06    5.57
   8 -11   5   11.56    4.42
   8 -11   5    7.89    5.03
   8 -11   6    7.06    4.35
   8 -11   6    9.37    5.24
   8 -11   7   18.85    5.30
   8 -11   7   14.94    4.46
   8 -11   7   10.02    5.13
   8 -11   8   38.02    4.81
   8 -11   8   42.71    5.70
   8 -11   8   33.14    5.53
   8 -11   9   71.39    6.16
   8 -11   9   76.64    6.14
   8 -11   9   73.86    5.39
   8 -10  -9   49.68    4.70
  -8  10   9   51.92    6.62
   8 -10  -9   41.89    4.27
   8 -10  -8   79.48    5.36
  -8  10   8   82.79    7.07
   8 -10  -8   80.29    4.97
   8 -10  -7   47.43    4.88
   8 -10  -7   43.36    4.50
   8 -10  -6   28.65    4.25
   8 -10  -6   30.53    3.41
   8 -10  -6   36.42    4.75
   8 -10  -5    3.44    3.91
   8 -10  -5    2.72    3.30
   8 -10  -5    6.47    4.32
   8 -10  -4    8.93    4.12
   8 -10  -4   10.41    3.54
   8 -10  -4    1.72    4.32
  -8  10   4    7.03    5.02
   8 -10  -3   19.14    4.18
   8 -10  -3   18.42    3.84
   8 -10  -3   17.71    4.68
  -8  10   3   19.36    4.95
   8 -10  -2   21.09    4.34
   8 -10  -2   26.38    4.08
   8 -10  -2   28.62    4.91
  -8  10   2   22.24    4.78
   8 -10  -1   34.77    4.28
  -8  10   1   33.64    4.82
   8 -10   0   94.01    5.41
   8 -10   0   90.60    6.26
  -8  10   0   83.36    5.56
   8 -10   1  120.33    6.07
   8 -10   1  107.68    5.84
   8 -10   1  120.35    6.84
   8 -10   2   11.93    4.17
   8 -10   2   22.65    4.32
   8 -10   2   13.44    4.72
   8 -10   3    9.79    4.14
   8 -10   3    5.60    4.81
   8 -10   4  105.98    5.87
   8 -10   4  114.11    6.68
   8 -10   5   52.83    4.79
   8 -10   5   44.89    5.38
   8 -10   6   23.28    4.31
   8 -10   6   23.31    4.89
   8 -10   6   16.72    5.03
   8 -10   7   15.57    4.19
   8 -10   7   21.71    5.07
   8 -10   7   15.96    4.84
   8 -10   8   38.63    4.60
   8 -10   8   41.71    5.49
   8 -10   8   42.87    5.27
   8 -10   9    7.57    4.15
   8 -10   9   13.85    5.23
   8 -10   9   14.93    4.66
   8 -10  10   -0.43    5.19
  -8   9  11    3.28    6.06
  -8   9  11   18.05    4.83
   8  -9 -10   39.75    4.16
  -8   9  10   34.71    6.33
   8  -9 -10   42.26    3.89
  -8   9  10   34.01    4.74
   8  -9  -9    0.77    3.61
   8  -9  -9    0.63    3.78
  -8   9   9   -3.06    5.65
  -8   9   9    2.31    3.81
   8  -9  -8   27.46    3.87
   8  -9  -8   26.27    4.21
  -8   9   8   32.69    5.86
  -8   9   8   24.07    3.73
   8  -9  -7  104.58    5.39
   8  -9  -7  104.36    4.40
   8  -9  -7  113.77    5.82
  -8   9   7   99.24    4.91
   8  -9  -6   55.80    4.57
   8  -9  -6   59.99    3.78
   8  -9  -6   54.78    4.83
   8  -9  -5   23.00    4.10
   8  -9  -5   23.69    3.46
   8  -9  -5   22.83    4.27
   8  -9  -4  101.99    5.45
   8  -9  -4   95.77    4.80
   8  -9  -4   97.30    5.81
  -8   9   4   91.95    6.17
   8  -9  -3   54.81    4.51
   8  -9  -3   53.45    4.97
  -8   9   3   47.85    5.22
  -8   9   2    3.25    4.03
  -8   9   1   27.11    4.19
   8  -9   0   13.07    4.33
  -8   9   0   10.84    3.79
   8  -9   1   38.68    4.90
  -8   9  -1   40.98    4.12
   8  -9   2  108.57    6.16
   8  -9   3   98.82    5.39
   8  -9   3   97.27    6.06
   8  -9   4   50.70    4.55
   8  -9   4   49.26    5.11
   8  -9   5   13.29    4.07
   8  -9   5   11.16    4.40
   8  -9   6   12.80    4.02
   8  -9   6    3.41    4.28
   8  -9   7  102.44    5.44
   8  -9   7   87.36    5.82
   8  -9   8   17.87    4.01
   8  -9   8   27.89    5.08
   8  -9   8   24.34    4.55
   8  -9   9   52.55    5.03
   8  -9   9   57.92    5.67
   8  -9   9   49.91    4.50
   8  -9  10   21.81    5.34
   8  -9  11   15.11    5.22
  -8   8  13   10.05    5.29
  -8   8  12   10.53    6.06
  -8   8  12   14.80    5.06
   8  -8 -11    0.51    3.36
  -8   8  11   -2.29    5.73
  -8   8  11   -1.97    4.49
   8  -8 -10   60.48    4.45
  -8   8  10   56.41    6.39
  -8   8  10   63.98    5.22
   8  -8 -10   64.04    4.15
   8  -8  -9   92.47    4.80
  -8   8   9   75.70    6.67
  -8   8   9   81.19    5.21
   8  -8  -8   99.18    5.00
   8  -8  -8   92.61    3.87
   8  -8  -8   89.29    5.09
  -8   8   8   86.35    6.57
  -8   8   8   79.18    4.80
   8  -8  -7   28.16    3.90
   8  -8  -7   28.29    3.06
   8  -8  -7   27.68    4.03
  -8   8   7   27.42    3.30
   8  -8  -6   24.87    3.79
   8  -8  -6   13.19    3.02
   8  -8  -6   16.50    3.87
   8  -8  -5   62.77    4.64
   8  -8  -4   83.39    5.11
  -8   8   4   66.47    5.33
   8  -8  -3   78.25    5.09
  -8   8   3   73.65    5.18
  -8   8   2  110.10    5.69
   8  -8  -1   91.15    5.51
  -8   8   1   94.70    5.21
   8  -8   0    3.81    3.82
  -8   8   0    3.29    3.38
   8  -8   1   33.08    4.38
  -8   8  -1   32.23    3.60
  -8   8  -2    6.15    3.10
   8  -8   2   12.98    4.00
   8  -8   3   33.34    4.40
   8  -8   4   87.26    5.48
   8  -8   5  232.94    8.63
   8  -8   6   52.55    4.38
   8  -8   6   40.79    4.58
   8  -8   7    4.21    3.73
   8  -8   7    7.25    4.06
   8  -8   8    3.07    3.63
   8  -8   8   -2.67    3.98
   8  -8   9    3.28    3.62
   8  -8   9    7.63    4.68
   8  -8   9    2.31    3.96
   8  -8  10   16.73    4.94
   8  -8  11   20.05    5.16
   8  -8  12   22.99    5.14
  -8   7  14   21.53    5.70
   8  -7 -13   50.91    5.07
  -8   7  13   61.60    6.77
  -8   7  13   52.75    5.94
  -8   7  12   72.05    6.85
  -8   7  12   75.59    6.04
   8  -7 -11   16.83    3.21
   8  -7 -11   19.91    3.40
  -8   7  11   13.91    5.69
  -8   7  11   20.89    4.66
   8  -7 -10    1.91    3.16
   8  -7 -10    3.20    3.30
  -8   7  10    1.45    5.22
  -8   7  10    5.26    3.95
   8  -7  -9   15.50    3.44
   8  -7  -9   12.24    2.32
   8  -7  -9   12.08    3.40
  -8   7   9    8.43    5.06
  -8   7   9   14.87    3.78
   8  -7  -8   92.90    3.96
   8  -7  -8   99.13    5.02
  -8   7   8   93.16    6.34
  -8   7   8   93.78    4.87
   8  -7  -7  124.60    5.59
  -8   7   7  117.29    5.10
   8  -7  -6  280.73    9.17
   8  -7  -5  179.68    6.94
   8  -7  -4   30.50    3.90
  -8   7   4   30.95    4.14
  -8   7   3    4.29    3.51
  -8   7   2   36.15    3.91
   8  -7  -1   60.41    4.55
  -8   7   1   66.92    4.30
   8  -7   0  223.41    8.05
  -8   7   0  219.66    7.50
   8  -7   1  312.87   10.24
  -8   7  -1  318.67    9.52
   8  -7   2   40.34    4.28
  -8   7  -2   42.46    3.38
   8  -7   3    9.57    3.61
  -8   7  -3    4.22    2.62
   8  -7   4   16.84    3.85
   8  -7   5    0.61    3.68
   8  -7   6    6.35    3.76
   8  -7   7   96.13    4.97
   8  -7   7   85.62    5.12
   8  -7   8  168.60    6.48
   8  -7   8  169.51    6.80
   8  -7   9   51.23    4.09
   8  -7   9   52.58    4.38
   8  -7  10    5.52    3.50
   8  -7  10    1.83    4.55
   8  -7  11   -5.57    4.79
   8  -6 -14    6.21    4.26
  -8   6  14   -7.77    6.09
  -8   6  14    2.73    5.25
   8  -6 -13   24.92    4.38
  -8   6  13   26.23    6.12
  -8   6  13   34.50    5.41
   8  -6 -12   77.56    4.04
  -8   6  12   70.88    6.48
  -8   6  12   70.99    5.79
   8  -6 -12   72.75    3.85
   8  -6 -11  102.40    4.64
   8  -6 -11  105.88    4.77
  -8   6  11   91.60    6.70
  -8   6  11   97.54    5.93
   8  -6 -10   82.43    4.39
  -8   6  10   78.13    6.06
  -8   6  10   79.47    5.21
   8  -6  -9    6.58    3.03
  -8   6   9   11.91    3.44
   8  -6  -8    5.63    3.02
  -8   6   8    3.50    4.17
  -8   6   8    1.59    2.98
   8  -6  -7   -0.08    2.92
  -8   6   7   -2.01    2.76
   8  -6  -6   15.64    3.18
   8  -6  -5  152.23    5.99
   8  -6  -4  234.41    7.87
  -8   6   4  220.82    7.97
  -8   6   3  557.42   15.60
   8  -6  -2   76.07    4.49
  -8   6   2   76.35    4.39
   8  -6  -1    2.00    3.02
  -8   6   1    1.11    2.83
   8  -6   0   19.56    3.35
  -8   6   0   23.78    3.12
   8  -6   1   57.53    4.26
  -8   6  -1   66.72    3.69
   8  -6   2   97.75    5.03
  -8   6  -2   93.21    4.13
  -8   6  -3  124.81    4.59
   8  -6   3  132.05    5.78
   8  -6   4   61.55    4.31
   8  -6   5   58.37    4.28
   8  -6   6   36.31    3.97
   8  -6   7   30.54    3.84
   8  -6   8   12.79    3.45
   8  -6   8   14.76    3.53
   8  -6   9   62.65    4.40
   8  -6  10   47.49    4.21
   8  -6  11   46.70    5.05
   8  -5 -15   10.01    4.33
  -8   5  15   10.27    5.89
  -8   5  15    5.74    5.43
   8  -5 -14    3.88    3.97
  -8   5  14   -1.31    5.48
  -8   5  14   10.45    5.19
   8  -5 -13    3.77    3.79
  -8   5  13   -5.13    5.28
  -8   5  13    1.28    4.56
   8  -5 -12   20.61    2.99
   8  -5 -12   20.13    2.93
  -8   5  12   23.10    5.21
  -8   5  12   19.07    4.58
   8  -5 -11   23.53    3.02
  -8   5  11   20.07    4.91
  -8   5  11   16.87    4.15
   8  -5 -10   39.80    3.40
  -8   5  10   39.97    4.19
  -8   5  10   34.57    4.87
   8  -5  -9   68.66    4.02
  -8   5   9   65.56    5.30
  -8   5   9   72.46    4.45
   8  -5  -8   89.23    4.30
  -8   5   8   79.57    4.42
   8  -5  -7  173.77    6.20
  -8   5   7  165.05    6.92
  -8   5   7  169.04    6.02
  -8   5   6   27.65    3.15
   8  -5  -6   25.41    3.17
  -8   5   5   73.59    4.07
   8  -5  -5   68.10    4.05
  -8   5   4   16.39    2.95
   8  -5  -4   17.75    2.97
  -8   5   4   12.28    3.08
  -8   5   3   93.54    4.36
  -8   5   3   90.32    4.45
   8  -5  -3   81.99    2.92
   8  -5  -2  352.95   10.22
  -8   5   2  353.83    9.99
   8  -5  -2  324.91    8.70
  -8   5   1  384.84   10.76
   8  -5  -1  369.85   10.88
  -8   5   1  343.75   10.41
   8  -5  -1  362.74    9.32
   8  -5   0  139.56    5.61
  -8   5   0  131.15    5.06
   8  -5   0  135.05    3.94
  -8   5  -1  122.88    5.07
   8  -5   1  116.86    5.28
  -8   5  -1  126.46    4.67
  -8   5  -2    2.34    2.60
   8  -5   2    4.82    2.95
  -8   5  -2    4.78    2.24
   8  -5   3    1.04    2.93
  -8   5  -3    0.38    2.62
  -8   5  -3    1.33    2.05
   8  -5   4   67.19    4.21
   8  -5   5   38.37    3.66
   8  -5   6  129.35    5.57
   8  -5   7   65.46    4.13
   8  -5   8  106.85    4.81
   8  -5   8   99.11    5.02
   8  -5   9   10.89    3.57
   8  -5  10    2.43    3.51
   8  -4 -16   -0.31    4.19
  -8   4  16   -7.27    6.05
  -8   4  16    6.17    5.48
   8  -4 -15   -1.48    3.90
  -8   4  15   -0.57    5.47
  -8   4  15    5.57    5.25
   8  -4 -14   12.43    3.80
  -8   4  14    6.39    5.23
  -8   4  14   11.41    5.02
   8  -4 -13   29.95    3.89
   8  -4 -13   25.00    2.77
  -8   4  13   20.76    5.17
  -8   4  13   27.06    4.94
   8  -4 -12   13.13    2.65
  -8   4  12   10.65    4.62
  -8   4  12   13.76    4.27
   8  -4 -11   51.70    3.34
  -8   4  11   41.65    4.51
  -8   4  11   43.80    4.99
   8  -4 -10  134.85    5.06
  -8   4  10  125.93    5.98
  -8   4   9  110.94    4.94
   8  -4  -9  117.79    4.71
  -8   4   9  115.17    5.32
  -8   4   8   16.35    2.95
   8  -4  -8   14.79    2.80
  -8   4   8   15.38    2.96
  -8   4   7  160.19    5.92
   8  -4  -7  164.66    5.88
  -8   4   6  241.99    7.81
   8  -4  -6  242.23    7.70
  -8   4   5  440.90   12.43
   8  -4  -5  437.83   12.37
  -8   4   4  128.02    5.16
  -8   4   3   10.15    2.50
   8  -4  -3    8.24    1.43
   8  -4  -2   82.73    4.13
   8  -4  -2   76.24    2.81
   8  -4  -1    5.47    2.51
   8  -4  -1    5.87    1.37
   8  -4   0  166.22    5.97
  -8   4   0  162.86    5.41
   8  -4   0  152.51    4.65
  -8   4  -1  648.66   16.81
   8  -4   1  615.40   16.86
  -8   4  -1  615.17   16.19
  -8   4  -2  206.04    6.75
   8  -4   2  200.78    6.97
  -8   4  -2  202.40    6.11
  -8   4  -3  218.13    7.15
   8  -4   3  223.54    7.41
  -8   4  -3  221.77    6.28
  -8   4  -4   44.24    3.27
   8  -4   4   43.36    3.54
  -8   4  -5   15.34    2.80
   8  -4   5   19.48    3.06
   8  -4   6   25.35    3.18
   8  -4   7   83.90    4.23
   8  -4   7   83.36    4.54
   8  -4   8  107.07    4.58
   8  -4   8  107.40    5.10
   8  -4   9   -4.88    3.53
   8  -4  10   38.89    4.05
   8  -4  11   47.84    4.25
   8  -3 -17   10.05    4.26
  -8   3  17   13.51    5.66
   8  -3 -16   33.13    4.30
  -8   3  16   33.14    5.81
  -8   3  16   40.35    6.13
   8  -3 -15   52.20    4.57
  -8   3  15   60.07    5.91
  -8   3  15   50.36    6.09
   8  -3 -14    1.89    3.42
  -8   3  14    9.48    4.90
  -8   3  14    8.75    4.80
   8  -3 -13   -0.72    3.11
   8  -3 -13    0.36    2.30
  -8   3  13    0.28    4.27
   8  -3 -12   10.58    2.97
   8  -3 -12   17.83    2.61
  -8   3  12   10.64    3.99
  -8   3  11   48.24    3.60
   8  -3 -11   57.22    3.28
  -8   3  11   53.35    4.60
  -8   3  10   21.53    2.87
   8  -3 -10   21.97    2.68
  -8   3  10   22.60    3.63
  -8   3   9   35.31    3.26
   8  -3  -9   40.79    3.02
  -8   3   9   37.46    3.56
  -8   3   8  172.03    5.93
   8  -3  -8  158.19    5.67
  -8   3   8  153.54    5.96
   8  -3  -7  154.50    5.52
  -8   3   7  154.84    5.68
  -8   3   6   59.40    3.52
   8  -3  -6   58.33    3.45
  -8   3   5   75.82    3.84
   8  -3  -5   74.18    3.79
  -8   3   4   98.65    4.33
   8  -3  -3   77.94    3.87
   8  -3  -2   92.42    4.16
   8  -3  -2   88.62    3.18
   8  -3  -1  204.58    6.65
   8  -3  -1  194.74    5.70
  -8   3   0  368.48   10.60
   8  -3   0  367.24   10.66
  -8   3  -1   10.01    2.42
   8  -3   1   11.21    2.67
  -8   3  -2  111.16    4.56
   8  -3   2  108.76    4.66
  -8   3  -2  103.97    3.74
  -8   3  -3  236.25    7.36
   8  -3   3  230.51    7.46
  -8   3  -3  228.18    6.33
  -8   3  -4  272.94    7.87
   8  -3   4  264.70    7.89
  -8   3  -5  114.04    4.63
   8  -3   5  110.55    4.70
  -8   3  -6   29.00    2.96
   8  -3   6   33.93    3.09
   8  -3   7    3.89    3.14
   8  -3   7    1.90    2.55
   8  -3   8    1.78    3.32
   8  -3   9   19.83    3.62
   8  -3  10   21.09    3.83
   8  -3  11   18.31    3.85
  -8   2  18   -0.53    5.63
   8  -2 -17   -0.59    4.07
  -8   2  17    7.05    5.37
  -8   2  17   -0.17    5.68
   8  -2 -16    1.09    3.71
  -8   2  16    2.77    4.99
  -8   2  16    0.83    5.41
   8  -2 -15    5.80    3.47
  -8   2  15   12.08    5.01
   8  -2 -14   16.53    3.31
   8  -2 -14   15.65    2.28
  -8   2  14   12.16    4.71
   8  -2 -13  149.68    5.75
   8  -2 -13  157.08    5.05
  -8   2  13  138.84    7.14
   8  -2 -12   52.76    3.50
  -8   2  12   56.55    3.54
   8  -2 -12   57.86    3.17
  -8   2  12   58.46    4.95
  -8   2  11    1.53    2.51
   8  -2 -11    3.05    2.27
  -8   2  11   -2.41    3.34
  -8   2  10   76.45    3.94
   8  -2 -10   81.95    3.66
  -8   2  10   75.11    4.62
  -8   2   9    3.86    2.41
   8  -2  -9    0.77    2.17
  -8   2   9   -1.32    2.70
  -8   2   8   20.16    2.67
   8  -2  -8   19.60    2.51
  -8   2   7   36.46    2.91
   8  -2  -7   32.66    2.71
  -8   2   6  230.18    7.22
   8  -2  -6  217.33    6.95
  -8   2   5  465.85   12.93
  -8   2   4  266.01    8.16
   8  -2  -3    0.14    2.09
   8  -2  -3    0.42    1.34
   8  -2  -2   16.80    2.48
   8  -2  -2   17.37    1.52
   8  -2  -1  258.01    7.80
   8  -2  -1  250.06    6.70
  -8   2   0  224.71    6.93
   8  -2   0  209.40    6.77
   8  -2   0  206.09    5.58
  -8   2  -1   22.84    2.62
   8  -2   1   27.62    2.76
  -8   2  -2  349.10    8.40
   8  -2   2  324.72    8.28
   8  -2   3   90.43    4.06
  -8   2  -3   82.36    2.92
  -8   2  -4    5.35    2.50
   8  -2   4    1.68    2.50
  -8   2  -5   76.09    3.69
   8  -2   5   70.90    3.67
   8  -2   5   68.84    3.96
  -8   2  -6   48.49    3.23
   8  -2   6   53.16    3.21
   8  -2   6   48.02    3.72
  -8   2  -7   76.39    3.77
   8  -2   7   81.41    3.66
   8  -2   7   85.31    4.53
   8  -2   8   61.48    4.24
   8  -2   9   98.96    5.11
   8  -2  10    4.34    3.64
   8  -2  11   13.22    3.95
   8  -1 -18   44.27    4.81
  -8   1  18   39.85    5.94
  -8   1  18   39.55    6.73
   8  -1 -17   49.41    4.59
  -8   1  17   57.31    6.02
  -8   1  17   41.03    6.42
   8  -1 -16   61.41    4.45
  -8   1  16   41.90    5.99
   8  -1 -15   32.43    3.64
  -8   1  15   39.81    5.59
   8  -1 -14    1.10    2.85
   8  -1 -14    0.37    2.04
  -8   1  14   -1.45    4.50
   8  -1 -13   52.08    3.50
  -8   1  13   51.01    3.36
   8  -1 -13   56.31    2.92
  -8   1  13   52.93    5.03
   8  -1 -12   65.85    3.51
  -8   1  12   71.89    3.83
   8  -1 -12   74.55    3.33
  -8   1  12   76.52    5.13
   8  -1 -11  154.50    5.23
  -8   1  11  157.75    5.58
   8  -1 -11  156.49    5.19
  -8   1  11  150.33    6.58
  -8   1  10   32.70    3.00
   8  -1 -10   40.46    2.75
  -8   1  10   37.92    3.75
  -8   1   9   95.24    4.26
   8  -1  -9  100.29    3.99
  -8   1   8   17.98    2.53
   8  -1  -8   20.03    2.39
  -8   1   7   38.64    2.94
   8  -1  -7   40.15    2.72
  -8   1   6    1.87    2.18
   8  -1  -6    1.29    1.96
  -8   1   5   24.61    2.61
  -8   1   4  346.75    9.88
   8  -1  -4  334.07    9.59
   8  -1  -4  335.55    8.91
   8  -1  -3  493.65   13.22
   8  -1  -3  486.34   12.38
   8  -1  -2  447.27   12.24
   8  -1  -2  446.70   11.26
  -8   1   1    8.51    2.29
   8  -1  -1   12.96    2.25
   8  -1  -1    9.75    1.03
   8  -1   0   51.70    2.17
  -8   1   0   45.63    3.11
   8  -1   0   50.07    3.09
  -8   1  -1   -1.49    2.34
   8  -1   1    0.50    2.17
  -8   1  -2   57.80    3.33
   8  -1   2   52.17    3.19
  -8   1  -3  109.51    4.43
   8  -1   3  101.60    4.31
  -8   1  -4  255.21    7.71
   8  -1   4  245.22    7.53
   8  -1   4  256.67    7.89
  -8   1  -5  196.95    6.34
   8  -1   5  187.26    6.09
   8  -1   5  195.70    6.67
   8  -1   6   29.05    3.44
  -8   1  -6   25.94    2.76
   8  -1   6   23.99    2.58
   8  -1   7   21.95    3.54
  -8   1  -7   17.77    2.59
   8  -1   8   40.15    3.94
   8  -1   9   46.96    4.21
   8  -1  10   30.89    4.13
   8  -1  11   18.88    4.26
   8   0 -18   11.88    4.13
   8   0 -17   32.74    4.24
   8   0 -16  104.14    5.24
   8   0 -15   33.80    3.58
   8   0 -15   36.68    2.45
   8   0 -14   39.48    3.34
  -8   0  14   41.52    3.14
   8   0 -14   43.77    2.68
   8   0 -13   37.36    3.00
  -8   0  13   37.75    3.07
   8   0 -13   41.95    2.66
   8   0 -12    9.78    2.23
  -8   0  12   11.94    2.62
   8   0 -12   11.05    2.17
   8   0 -11    2.46    1.94
  -8   0  11    6.84    2.49
   8   0 -11   -0.68    2.09
  -8   0  11    2.60    3.19
   8   0 -10    2.23    1.68
  -8   0  10   -0.29    2.28
   8   0 -10    2.16    2.04
   8   0  -9  378.77   10.17
  -8   0   9  401.54   11.08
   8   0  -9  396.79   10.67
  -8   0   8  578.72   15.61
   8   0  -8  581.99   15.24
  -8   0   7    8.12    2.28
   8   0  -7    6.53    2.02
  -8   0   6   68.80    3.60
   8   0  -5    2.19    1.34
  -8   0   5    3.48    2.12
   8   0  -4   92.67    3.86
   8   0  -4   95.87    3.09
   8   0  -3   36.28    2.61
   8   0  -2  134.56    3.74
   8   0  -2  124.82    4.72
   8   0  -1  140.79    3.95
  -8   0   1  138.92    5.17
   8   0  -1  134.77    4.88
  -8   0   0  327.50    7.91
   8   0   0  323.14    7.55
   8   0   1   18.54    1.51
  -8   0  -1   13.41    2.41
   8   0   1   18.55    2.40
  -8   0  -2   28.93    2.73
   8   0   2   29.27    2.65
   8   0   3    1.49    2.52
  -8   0  -3   -0.26    2.26
   8   0   3    1.91    2.25
   8   0   4    3.96    2.79
  -8   0  -4   -0.51    2.32
   8   0   4   -0.05    2.17
  -8   0  -5   44.76    3.12
   8   0   5   51.67    2.97
   8   0   5   50.49    3.70
  -8   0  -6   51.25    3.20
   8   0   6   52.23    2.95
   8   0   6   52.02    3.88
  -8   0  -7   85.54    3.88
   8   0   7  105.85    4.93
   8   0   8   52.72    4.23
   8   0   9    1.55    3.72
   8   0  10   -0.32    4.03
   8   0  11    2.76    4.13
   8   1 -19   36.08    4.60
   8   1 -18   14.76    3.99
  -8  -1  18   12.26    5.89
   8   1 -17    2.86    3.58
  -8  -1  17   -1.03    5.49
   8   1 -16   13.47    3.40
  -8  -1  16    9.76    5.20
   8   1 -15    0.07    2.91
   8   1 -15    0.56    2.04
   8   1 -14   44.54    3.30
  -8  -1  14   40.04    3.13
   8   1 -14   47.21    2.75
   8   1 -13   62.41    3.42
  -8  -1  13   71.35    3.72
   8   1 -13   72.94    3.24
   8   1 -12   66.29    3.20
  -8  -1  12   69.93    3.73
   8   1 -12   73.44    3.27
   8   1 -11  136.88    4.57
  -8  -1  11  139.39    5.28
   8   1 -11  149.00    4.83
   8   1 -10  224.29    6.37
  -8  -1  10  227.50    7.29
   8   1 -10  229.02    6.76
   8   1  -9    6.87    1.42
  -8  -1   9    9.25    2.46
   8   1  -9    6.97    2.07
   8   1  -8   21.75    1.46
  -8  -1   8   21.27    2.67
   8   1  -8   19.91    2.26
   8   1  -7   84.61    2.65
   8   1  -7   89.43    3.63
  -8  -1   7   91.32    4.06
  -8  -1   6  219.61    7.11
   8   1  -5   99.33    3.88
  -8  -1   5   90.37    4.16
   8   1  -4    5.89    0.72
   8   1  -4    6.54    2.05
   8   1  -3   91.77    2.51
   8   1  -3   93.01    3.76
   8   1  -2  112.36    3.06
   8   1  -2  114.46    4.24
   8   1  -1  201.08    5.27
  -8  -1   1  201.39    6.71
   8   1  -1  208.01    6.34
   8   1   0   44.32    1.78
  -8  -1   0   43.02    3.03
   8   1   0   44.71    2.81
  -8  -1  -1  167.82    5.99
   8   1   1  173.01    5.67
   8   1   1  180.68    5.90
  -8  -1  -2  406.35   11.65
   8   1   2  415.34   11.32
   8   1   2  431.54   11.65
  -8  -1  -3  102.30    4.44
   8   1   3  109.70    4.16
   8   1   3  114.68    4.70
   8   1   4   12.91    3.03
  -8  -1  -4   16.11    2.57
   8   1   4   13.62    2.40
  -8  -1  -5   41.59    3.08
   8   1   5   49.34    2.91
   8   1   5   46.18    3.70
   8   1   6    4.52    3.24
  -8  -1  -6    2.12    2.33
   8   1   6    7.93    2.25
   8   1   7    7.29    3.46
  -8  -1  -7   -0.09    2.33
   8   1   8   18.08    3.88
   8   1   9   70.85    5.09
   8   1  10   21.38    4.39
   8   2 -19   -3.57    3.95
  -8  -2  19   -6.85    6.13
   8   2 -18    2.08    3.72
  -8  -2  18   -2.32    5.55
   8   2 -17   49.40    4.12
  -8  -2  17   37.59    5.97
   8   2 -16  143.07    5.80
  -8  -2  16  147.41    7.97
   8   2 -15  107.71    4.67
  -8  -2  15   98.74    4.37
  -8  -2  15   98.32    6.53
   8   2 -14   66.50    3.63
  -8  -2  14   62.35    3.65
   8   2 -14   66.34    3.25
   8   2 -13    0.27    2.20
  -8  -2  13   -4.64    2.60
   8   2 -13   -1.38    2.16
   8   2 -12   13.50    2.14
  -8  -2  12   14.92    2.70
   8   2 -12   10.30    2.20
   8   2 -11   52.40    2.59
  -8  -2  11   50.03    3.40
   8   2 -11   48.93    2.91
   8   2 -10  237.56    6.57
  -8  -2  10  239.56    7.65
   8   2 -10  247.86    7.07
  -8  -2  10  221.85    7.87
   8   2  -9  301.69    7.93
  -8  -2   9  302.90    9.17
   8   2  -9  317.30    8.63
  -8  -2   9  289.80    9.21
   8   2  -8  307.31    7.77
  -8  -2   8  302.14    9.19
   8   2  -8  310.12    8.60
  -8  -2   8  287.48    9.01
   8   2  -7   61.46    1.90
  -8  -2   7   66.63    3.57
  -8  -2   6   81.51    3.94
   8   2  -5   61.68    3.06
  -8  -2   4  297.75    9.07
   8   2  -4  298.10    8.49
   8   2  -3  148.50    5.04
  -8  -2   2   10.24    2.37
   8   2  -2   12.57    2.19
  -8  -2   1  124.80    5.03
   8   2  -1  131.79    4.62
  -8  -2   0  227.49    7.29
   8   2   0  227.17    6.82
   8   2   0  217.63    6.95
  -8  -2  -1   65.94    3.64
   8   2   1   69.76    3.41
   8   2   1   75.32    3.76
   8   2   2    0.77    2.64
   8   2   2    2.43    2.28
  -8  -2  -2   -0.21    2.35
  -8  -2  -3   29.80    2.86
   8   2   3   28.38    2.67
   8   2   3   30.73    3.22
  -8  -2  -4  106.58    4.58
   8   2   4  122.24    4.35
   8   2   4  114.95    5.00
   8   2   5   80.04    3.53
   8   2   5   82.39    4.50
   8   2   6   14.00    3.62
  -8  -2  -6   13.62    2.59
   8   2   7   26.60    4.04
   8   2   8   12.37    4.09
   8   2   9   -2.85    4.14
   8   2  10   -1.16    4.33
   8   3 -20    5.99    3.98
   8   3 -19    5.55    3.82
   8   3 -18   21.09    3.79
   8   3 -17    1.68    3.20
   8   3 -16    5.48    3.01
   8   3 -16    3.26    2.19
   8   3 -15   53.77    3.60
  -8  -3  15   54.50    3.54
   8   3 -14  136.53    5.09
  -8  -3  14  137.36    5.34
   8   3 -13  100.52    4.10
  -8  -3  13  107.04    4.71
   8   3 -13  112.51    4.19
  -8  -3  13  110.19    5.78
   8   3 -12  176.98    5.61
  -8  -3  12  184.78    6.42
   8   3 -12  188.10    5.89
  -8  -3  12  196.63    7.30
   8   3 -11   14.07    1.80
  -8  -3  11   12.62    2.77
   8   3 -11   14.36    2.37
  -8  -3  11   10.12    3.14
   8   3 -10   10.51    1.48
  -8  -3  10   14.05    2.72
   8   3 -10   16.36    2.34
  -8  -3  10   17.31    2.95
   8   3  -9  116.46    3.47
  -8  -3   9  118.27    5.06
   8   3  -9  127.07    4.46
  -8  -3   9  126.37    4.96
  -8  -3   8   38.30    3.16
   8   3  -8   42.49    2.69
  -8  -3   8   34.67    2.87
  -8  -3   7  146.19    5.61
  -8  -3   7  146.60    5.04
  -8  -3   6  259.80    8.29
   8   3  -6  249.01    7.65
  -8  -3   6  275.34    7.55
   8   3  -5  222.49    6.95
  -8  -3   5  238.32    6.54
   8   3  -4   97.44    3.90
   8   3  -3   11.19    2.13
   8   3  -3   12.30    2.28
  -8  -3   2  155.15    5.91
   8   3  -2  166.89    5.45
   8   3  -2  164.29    5.39
  -8  -3   1  115.12    4.85
   8   3  -1  116.87    4.43
  -8  -3   0    7.09    2.55
   8   3   0   12.29    2.36
   8   3   1    9.66    2.63
  -8  -3  -1    8.96    2.58
   8   3   1    8.27    2.40
  -8  -3  -2   45.12    3.26
   8   3   2   43.98    3.00
   8   3   2   39.82    3.39
  -8  -3  -3  177.85    6.29
   8   3   3  194.67    6.05
   8   3   3  189.23    6.62
   8   3   4   19.41    3.42
  -8  -3  -4   18.36    2.78
   8   3   5   -0.15    3.36
  -8  -3  -5    0.48    2.51
   8   3   6    6.31    3.66
  -8  -3  -6    7.92    2.50
   8   3   7   36.65    4.46
   8   3   8    8.33    4.17
   8   3   9   15.67    4.52
   8   4 -19   11.55    3.76
   8   4 -18   -4.90    3.53
   8   4 -17   24.98    3.54
   8   4 -16   21.99    3.18
   8   4 -16   27.78    2.71
  -8  -4  16   24.83    5.13
   8   4 -15   16.02    2.75
  -8  -4  15   18.68    3.00
  -8  -4  15   19.77    4.55
   8   4 -14    3.25    2.34
  -8  -4  14    0.45    2.72
  -8  -4  14    5.46    3.95
   8   4 -13    1.06    1.08
   8   4 -13   -1.67    2.04
  -8  -4  13   -1.75    2.75
  -8  -4  13    5.06    3.70
   8   4 -12   89.12    3.43
  -8  -4  12   91.24    4.58
   8   4 -12   92.35    3.94
  -8  -4  12   95.67    5.16
  -8  -4  11  193.29    6.97
   8   4 -11  201.99    6.28
  -8  -4  11  196.74    7.22
  -8  -4  10   74.51    4.17
   8   4 -10   76.57    3.64
  -8  -4  10   76.08    4.18
   8   4  -9  106.14    4.15
  -8  -4   9   97.58    4.62
  -8  -4   9   91.06    4.45
  -8  -4   8  134.12    5.48
   8   4  -8  135.08    4.82
  -8  -4   8  126.02    4.96
  -8  -4   7    6.39    2.11
   8   4  -7    6.22    1.75
  -8  -4   7    3.76    2.60
   8   4  -6   91.69    3.91
   8   4  -6   94.54    3.48
  -8  -4   5   41.29    3.41
   8   4  -5   49.37    3.02
  -8  -4   5   46.37    2.40
   8   4  -5   49.02    2.67
   8   4  -4  172.16    5.58
   8   4  -4  182.12    5.40
  -8  -4   3  235.53    8.31
   8   4  -3  258.30    7.82
  -8  -4   2   88.49    4.37
   8   4  -2   85.60    3.86
   8   4  -2   91.07    3.88
  -8  -4   1  141.16    5.67
   8   4  -1  152.05    5.28
  -8  -4   0   -0.48    2.65
   8   4   0   -4.27    2.43
  -8  -4  -1   24.16    3.06
   8   4   1   23.52    2.77
   8   4   2    7.59    3.02
  -8  -4  -2    6.02    2.68
   8   4   3    2.29    3.13
  -8  -4  -3    3.07    2.59
   8   4   4   62.39    3.53
  -8  -4  -4   55.86    3.59
   8   4   4   58.99    4.35
  -8  -4  -5   68.76    3.80
   8   4   5   80.59    4.93
   8   4   6   61.01    4.93
   8   4   7   10.97    4.21
   8   4   8   -3.39    4.51
   8   5 -17   10.06    2.60
  -8  -5  17   31.79    5.46
  -8  -5  16    2.54    2.87
   8   5 -16   -1.78    2.52
  -8  -5  16   -0.70    4.59
   8   5 -15   20.69    2.89
  -8  -5  15   31.00    3.37
  -8  -5  15   27.09    4.72
  -8  -5  14  114.56    5.25
  -8  -5  14  131.28    6.41
  -8  -5  13   83.26    4.20
  -8  -5  13   92.53    5.08
  -8  -5  12   35.07    3.48
  -8  -5  12   37.23    3.92
   8   5 -12   28.97    1.49
  -8  -5  11   17.92    3.32
  -8  -5  11   18.98    3.19
   8   5 -11   20.68    2.79
  -8  -5  10   46.01    3.76
   8   5 -10   51.87    3.30
  -8  -5  10   51.11    3.69
   8   5 -10   49.05    2.19
  -8  -5   9  233.64    8.27
   8   5  -9  249.82    7.62
  -8  -5   9  248.97    8.03
   8   5  -9  258.58    6.88
  -8  -5   8  252.79    7.82
   8   5  -8  259.91    7.01
  -8  -5   7  186.45    7.01
  -8  -5   7  194.76    6.31
   8   5  -7  204.42    5.86
   8   5  -6  148.73    5.35
  -8  -5   6  146.31    4.98
   8   5  -6  152.91    4.86
   8   5  -5   41.19    3.10
  -8  -5   5   37.47    2.36
   8   5  -5   42.62    2.63
  -8  -5   4   12.62    1.62
   8   5  -4   15.90    2.34
   8   5  -4    9.94    2.51
  -8  -5   3   16.26    3.01
   8   5  -3   22.59    2.79
  -8  -5   3   19.78    1.44
   8   5  -3   24.22    2.59
  -8  -5   2  139.17    5.73
   8   5  -2  144.59    5.30
   8   5  -2  149.83    5.26
  -8  -5   1  414.00   12.47
   8   5  -1  447.07   12.05
   8   5  -1  438.90   12.06
  -8  -5   0  119.90    5.14
  -8  -5  -1   29.71    3.27
   8   5   2    3.75    3.20
  -8  -5  -2   -0.85    2.83
   8   5   3   10.72    3.62
   8   5   3   11.25    2.86
  -8  -5  -3    6.51    2.85
   8   5   4   -3.64    3.61
  -8  -5  -4    0.54    2.70
   8   5   4    1.10    2.72
   8   5   5   -2.74    3.89
  -8  -5  -5    4.77    2.75
   8   5   6   50.56    5.03
   8   5   7   50.97    5.22
  -8  -6  18   11.21    5.43
   8   6 -17    2.79    2.71
  -8  -6  17    4.30    4.83
  -8  -6  16    4.20    4.58
  -8  -6  16   -3.32    3.12
   8   6 -16    2.59    2.75
  -8  -6  15    7.90    4.37
   8   6 -15    8.70    2.78
  -8  -6  15    5.04    3.23
  -8  -6  14    0.25    3.98
   8   6 -14    2.80    2.79
  -8  -6  14    1.80    3.09
  -8  -6  13   15.47    3.82
   8   6 -13   11.70    2.91
  -8  -6  13   17.76    3.40
  -8  -6  12  106.58    5.06
  -8  -6  12  107.46    5.32
  -8  -6  11   95.34    4.54
  -8  -6  11   82.07    4.41
  -8  -6  10   13.84    3.08
   8   6 -10   13.43    1.62
  -8  -6  10   13.42    3.23
  -8  -6   9   86.69    4.79
  -8  -6   9   88.89    4.43
   8   6  -9   90.79    3.21
  -8  -6   8   14.13    2.68
   8   6  -8   12.75    1.89
  -8  -6   7   86.78    4.02
   8   6  -7   95.96    3.57
  -8  -6   6  110.75    4.28
   8   6  -6  115.20    4.13
  -8  -6   5  218.22    6.62
   8   6  -5  231.26    6.78
  -8  -6   4   78.00    4.59
  -8  -6   4   82.23    3.29
  -8  -6   3    8.83    1.56
   8   6  -3   12.69    2.61
  -8  -6   3   13.51    3.10
  -8  -6   2   13.68    1.29
  -8  -6   2   17.65    3.19
   8   6  -2   16.12    2.85
  -8  -6   1    3.74    2.94
   8   6  -1   13.27    2.96
   8   6   0   10.52    3.15
   8   6   0   12.98    3.10
  -8  -6   0    7.01    3.05
   8   6   1   43.05    3.52
  -8  -6  -1   36.66    3.56
   8   6   2   71.40    4.03
  -8  -6  -2   68.96    4.26
   8   6   3   31.96    4.24
   8   6   3   33.25    3.34
  -8  -6  -3   35.09    3.45
   8   6   4   15.58    4.16
  -8  -6  -4   15.52    3.06
   8   6   5   -2.96    4.33
   8   6   6    2.47    4.53
  -8  -7  18   18.91    5.38
  -8  -7  17   25.25    5.19
   8   7 -17   15.64    3.14
  -8  -7  16   21.03    4.97
  -8  -7  16   19.87    3.67
   8   7 -16   19.37    3.20
  -8  -7  15    4.48    4.26
  -8  -7  15   10.72    3.46
   8   7 -15    8.09    3.04
  -8  -7  14   -0.12    4.04
   8   7 -14    0.42    2.93
  -8  -7  14    6.76    3.35
  -8  -7  13   23.26    4.16
   8   7 -13   22.58    3.24
  -8  -7  13   25.34    3.74
  -8  -7  12   10.74    3.69
   8   7 -12    7.94    3.03
  -8  -7  12    4.13    3.35
  -8  -7  11    1.18    3.20
   8   7 -11    3.26    3.05
  -8  -7  10   54.51    4.07
   8   7 -10   58.87    2.52
  -8  -7   9   97.68    4.85
   8   7  -9  108.20    3.64
  -8  -7   8  115.37    4.89
   8   7  -8  112.54    3.98
  -8  -7   7   92.69    4.29
   8   7  -7   92.43    3.68
   8   7  -6   17.46    2.45
  -8  -7   6   16.77    2.52
   8   7  -5   23.91    2.72
   8   7  -4    3.74    2.56
   8   7  -3   14.81    2.91
   8   7  -3   13.64    3.33
   8   7  -2  129.23    5.52
  -8  -7   2  126.34    5.86
   8   7  -1  139.29    5.61
  -8  -7   1  138.16    5.96
   8   7  -1  147.38    5.83
   8   7   0   22.78    3.74
   8   7   0   21.77    3.43
  -8  -7   0   28.27    3.56
   8   7   1    4.80    3.16
  -8  -7  -1    6.38    3.19
   8   7   2    1.09    3.14
  -8  -7  -2    4.26    3.16
   8   7   3   15.28    4.39
  -8  -7  -3   16.30    3.28
   8   7   4   44.98    5.07
   8   7   5   18.52    4.92
  -8  -8  19   19.35    5.89
  -8  -8  18   28.71    5.64
   8   8 -17   15.40    3.48
  -8  -8  17   31.75    5.56
  -8  -8  17   24.26    3.90
  -8  -8  16   -2.67    4.66
  -8  -8  16   -2.05    3.67
   8   8 -16   -4.93    3.25
  -8  -8  15   32.55    4.96
  -8  -8  15   29.93    4.12
   8   8 -15   27.55    3.65
   8   8 -14   67.66    4.29
  -8  -8  14   76.70    5.05
  -8  -8  14   80.43    5.63
   8   8 -13   53.33    4.01
  -8  -8  13   50.76    4.85
  -8  -8  12   21.32    3.92
   8   8 -12   15.70    3.43
   8   8 -11   45.12    2.03
   8   8 -11   39.39    3.78
  -8  -8  11   41.06    4.08
  -8  -8  10    6.10    3.24
   8   8 -10   12.74    1.85
   8   8 -10    9.63    3.39
  -8  -8   9    3.21    3.10
   8   8  -9    1.61    1.94
   8   8  -8   22.88    2.42
  -8  -8   8   23.25    3.20
   8   8  -7   82.32    3.64
   8   8  -7   72.71    4.51
   8   8  -6  100.25    4.14
   8   8  -6   86.68    4.90
   8   8  -5   70.67    3.82
   8   8  -5   67.31    4.44
   8   8  -4  128.38    5.10
   8   8  -4  113.77    5.39
   8   8  -3   14.25    3.21
   8   8  -3   10.40    3.47
   8   8  -2   29.03    3.71
   8   8  -2   32.01    3.75
   8   8  -1   96.73    5.03
  -8  -8   1   90.83    5.26
   8   8   0   44.61    4.36
   8   8   0   43.56    4.01
  -8  -8   0   38.02    3.94
   8   8   1   47.58    4.64
   8   8   1   46.52    4.11
  -8  -8  -1   43.18    4.13
  -8  -8  -2   20.62    3.55
   8   8   2   23.21    3.74
  -8  -8  -3    4.60    3.27
   8   8   4    4.95    4.71
  -8  -9  18   21.60    5.65
   8   9 -18   13.58    3.62
  -8  -9  17   50.11    4.73
  -8  -9  17   68.23    6.13
  -8  -9  16   33.17    5.36
  -8  -9  16   32.25    4.37
   8   9 -16   27.72    3.92
  -8  -9  15   32.51    5.02
  -8  -9  15   34.54    4.46
   8   9 -15   31.34    3.95
  -8  -9  14   -1.01    4.27
   8   9 -14    0.87    3.52
  -8  -9  13   27.68    4.54
   8   9 -13   28.69    3.93
   8   9 -12   76.37    4.70
  -8  -9  12   76.81    5.27
  -8  -9  11   -0.84    3.61
   8   9 -11    2.06    3.49
  -8  -9  10    6.27    3.47
  -8  -9  10   12.19    4.43
   8   9 -10    3.67    3.60
   8   9  -9   36.67    2.65
  -8  -9   9   44.97    4.99
   8   9  -8   17.51    2.60
   8   9  -8   18.70    3.68
   8   9  -7   14.29    2.71
  -8  -9   7   13.25    4.30
   8   9  -7   10.67    3.69
   8   9  -6   -0.36    2.75
   8   9  -6   -2.33    3.46
   8   9  -5   15.17    3.05
  -8  -9   5   10.90    4.39
   8   9  -5   12.32    3.76
   8   9  -4   76.00    4.39
   8   9  -4   72.13    4.77
   8   9  -3   24.15    3.69
   8   9  -3   23.91    4.08
   8   9  -2   60.73    4.53
   8   9  -2   54.63    4.55
   8   9  -1    2.31    3.84
  -8  -9   1    4.58    3.75
   8   9  -1   -2.38    3.85
   8   9   0    3.87    4.13
  -8  -9   0   -1.75    3.57
   8   9   0   -0.82    3.72
   8   9   1    6.83    3.80
   8   9   1    3.98    4.36
  -8  -9  -1    7.78    3.58
  -8  -9  -2   12.71    3.64
  -8 -10  18    3.43    5.48
   8  10 -18   -3.05    3.74
  -8 -10  17    7.10    5.26
   8  10 -17   -1.91    3.75
  -8 -10  17    6.25    4.12
  -8 -10  16    1.88    4.93
   8  10 -16    3.42    3.81
  -8 -10  16    2.72    4.06
  -8 -10  15   44.98    5.47
   8  10 -15   40.56    4.46
   8  10 -14   55.05    4.73
  -8 -10  14   65.96    5.59
  -8 -10  13   36.27    4.79
   8  10 -13   30.19    4.37
  -8 -10  12   21.89    4.45
  -8 -10  12   34.30    4.98
   8  10 -12   30.11    4.25
  -8 -10  11   -0.22    3.81
  -8 -10  11   -4.21    4.74
   8  10 -11   -1.19    3.86
  -8 -10  10    8.01    4.70
  -8 -10   9    7.20    4.63
   8  10  -8   11.31    4.09
   8  10  -7   42.26    3.41
   8  10  -7   48.68    4.63
   8  10  -6   46.46    3.83
  -8 -10   6   61.52    5.45
   8  10  -6   54.41    4.80
   8  10  -5   39.42    3.82
  -8 -10   5   35.91    4.99
   8  10  -5   28.53    4.43
   8  10  -4   33.09    4.05
   8  10  -4   28.89    4.40
   8  10  -3    3.04    3.80
   8  10  -3    7.78    4.17
   8  10  -2   18.57    4.15
   8  10  -2   13.93    4.19
   8  10  -1    4.69    4.09
   8  10  -1    7.89    4.24
   8  10   0   36.67    4.51
   8  10   0   31.16    4.93
  -8 -10   0   42.67    4.42
  -8 -10  -1   25.70    4.24
   8  11 -18   20.88    4.39
  -8 -11  17    7.62    5.40
   8  11 -17    1.80    4.16
  -8 -11  17   14.78    4.56
  -8 -11  16    4.64    5.13
   8  11 -16   11.35    4.20
  -8 -11  15    7.33    4.87
   8  11 -15    1.60    4.17
   8  11 -14   -0.61    4.21
  -8 -11  14    4.64    4.64
  -8 -11  13    7.70    4.55
  -8 -11  13   10.00    5.05
   8  11 -13    8.68    4.36
  -8 -11  12   31.07    4.82
  -8 -11  12   29.22    5.36
   8  11 -12   21.77    4.58
  -8 -11  11  143.01    7.40
   8  11 -11  134.15    6.67
  -8 -11  10  111.40    6.94
  -8 -11   9   -0.87    5.02
   8  11  -9    1.14    4.35
   8  11  -8    5.44    4.27
   8  11  -7    2.76    4.37
  -8 -11   6    0.60    4.78
   8  11  -6   14.39    4.49
  -8 -11   5   35.17    5.35
   8  11  -5   27.28    4.80
   8  11  -4   42.65    5.03
  -8 -11   4   53.70    5.49
   8  11  -3    4.39    4.38
   8  11  -2   16.65    4.67
   8  11  -1    7.73    4.40
   8  11   0   -0.17    4.37
  -8 -11   0    4.70    3.99
   8  12 -17   21.07    4.79
  -8 -12  16   37.01    5.86
   8  12 -16   28.11    4.89
  -8 -12  15    9.29    5.12
   8  12 -15    5.11    4.60
  -8 -12  14   23.80    5.24
   8  12 -14   15.56    4.76
  -8 -12  13   11.78    4.79
   8  12 -13    2.71    4.68
  -8 -12  13   10.78    5.36
   8  12 -12    6.92    4.71
  -8 -12  12    8.96    4.52
  -8 -12  12    8.25    5.32
   8  12 -11   29.27    5.16
  -8 -12  11   28.88    5.68
  -8 -12  10   34.59    5.80
   8  12  -9   39.31    5.39
   8  12  -8   28.66    5.17
   8  12  -7    3.27    4.83
  -8 -12   7   10.54    5.38
   8  12  -6   -4.59    4.76
  -8 -12   6    6.23    5.09
   8  12  -5   -2.02    4.86
  -8 -12   5    1.21    5.02
   8  12  -4    1.69    4.82
   8  12  -3   -0.39    4.69
   8  12  -2   12.20    4.74
   8  12  -1   17.29    4.75
  -8 -12   1   12.51    4.62
  -8 -13  15   26.77    5.70
  -8 -13  14   24.84    5.49
   8  13 -14   21.02    5.22
  -8 -13  14   24.01    5.86
  -8 -13  13   21.60    5.20
   8  13 -13   28.43    5.31
  -8 -13  13   27.17    6.00
   8  13 -12   14.11    5.37
  -8 -13  12   30.54    5.97
  -8 -13  11   -2.30    5.64
  -8 -13  10   15.21    5.66
   8  13  -9   -1.20    5.20
   8  13  -8   -3.06    5.18
   8  13  -7   30.66    5.67
  -8 -13   7   25.85    5.84
   8  13  -6   26.31    5.50
  -8 -13   6   29.02    5.86
   8  13  -5   15.66    5.52
  -8 -13   5   20.99    5.64
   9 -13  -3   24.20    4.30
   9 -13  -2    4.54    4.32
   9 -13  -1   17.46    4.75
   9 -13   0   24.63    5.07
   9 -13   1   31.87    5.40
   9 -13   1   24.04    6.76
   9 -13   2  101.51    6.41
   9 -13   2   71.74    7.63
   9 -13   3   43.46    5.83
   9 -12  -5   -2.60    4.58
   9 -12  -5   -0.54    5.07
   9 -12  -4    3.61    4.69
   9 -12  -4    5.84    3.85
   9 -12  -4    8.17    5.28
   9 -12  -3    9.30    4.78
   9 -12  -3   13.33    4.23
   9 -12  -3   13.30    5.53
   9 -12  -2   22.94    5.02
   9 -12  -2   26.72    4.56
   9 -12  -2   23.35    5.79
   9 -12  -1  142.42    6.71
   9 -12  -1  133.49    8.22
   9 -12  -1  129.67    7.12
   9 -12   0   91.02    6.01
   9 -12   1   11.62    4.93
   9 -12   1   11.14    5.87
   9 -12   2    6.49    4.81
   9 -12   2    5.46    4.92
   9 -12   2    2.14    5.79
   9 -12   3   13.21    5.01
   9 -12   3   16.40    5.25
   9 -12   3   15.83    6.04
   9 -12   4   67.36    6.17
   9 -12   4   68.91    6.82
   9 -12   4   63.16    5.80
   9 -12   5   63.83    6.71
   9 -12   5   58.04    5.66
   9 -12   6   20.71    5.09
   9 -12   6   24.87    5.86
   9 -12   7    8.07    5.52
   9 -12   7    8.06    4.84
   9 -11  -8    0.81    4.10
   9 -11  -8   -0.22    4.58
   9 -11  -7    5.66    4.26
   9 -11  -7   -3.38    4.64
   9 -11  -6   26.60    4.67
   9 -11  -6   25.96    5.14
   9 -11  -5  114.93    5.31
   9 -11  -5  122.57    6.84
  -9  11   5   97.38    7.34
   9 -11  -5   95.36    5.97
   9 -11  -4   88.32    5.01
   9 -11  -4   85.50    6.41
  -9  11   4   71.80    6.63
   9 -11  -4   72.98    5.64
   9 -11  -3    4.37    4.54
   9 -11  -3    6.09    4.12
   9 -11  -3    9.35    5.12
  -9  11   3    2.45    5.33
   9 -11  -2   -0.10    4.48
   9 -11  -2    2.43    4.28
   9 -11  -2   -2.49    5.09
  -9  11   2    2.86    4.99
   9 -11  -1   18.54    4.65
   9 -11   0   63.12    5.41
   9 -11   0   62.13    6.41
   9 -11   1   35.80    4.99
   9 -11   1   38.70    5.06
   9 -11   1   38.75    5.94
   9 -11   2   28.58    4.96
   9 -11   2   37.10    5.20
   9 -11   2   25.78    5.67
   9 -11   3   38.91    5.12
   9 -11   3   33.10    5.30
   9 -11   3   28.23    5.85
   9 -11   4   13.37    4.70
   9 -11   4   17.67    5.66
   9 -11   5   -1.34    4.52
   9 -11   5    8.61    5.34
   9 -11   6   35.93    4.95
   9 -11   6   34.58    5.67
   9 -11   6   26.08    5.55
   9 -11   7   21.92    4.75
   9 -11   7   18.56    5.61
   9 -11   7   26.00    5.34
   9 -11   8   12.21    5.16
   9 -11   8   19.19    4.60
   9 -11   8    6.29    5.67
   9 -10  -9   26.82    4.19
   9 -10  -9   27.26    4.58
   9 -10  -8   61.19    5.24
   9 -10  -8   52.36    4.74
   9 -10  -7   38.56    4.65
   9 -10  -7   42.28    5.00
   9 -10  -6   -3.20    4.26
   9 -10  -6    1.08    3.37
   9 -10  -6   -2.74    4.44
   9 -10  -5    3.81    4.35
   9 -10  -5    0.89    3.62
   9 -10  -5   -1.24    4.62
  -9  10   5    2.83    5.23
   9 -10  -4   22.11    4.59
   9 -10  -4   20.51    4.00
   9 -10  -4   19.40    4.96
  -9  10   4   20.26    5.26
   9 -10  -3   42.22    4.52
   9 -10  -3   43.93    4.98
   9 -10  -3   47.54    5.38
  -9  10   3   37.64    5.51
   9 -10  -2  171.02    6.94
   9 -10  -2  174.11    8.25
  -9  10   2  158.11    7.59
  -9  10   1   31.64    4.91
   9 -10   0   10.07    4.97
  -9  10   0    1.82    4.21
   9 -10   1   -0.54    4.25
   9 -10   1    5.03    4.95
   9 -10   2    5.35    4.39
   9 -10   2    4.88    4.95
   9 -10   3   26.40    4.78
   9 -10   3   30.05    5.31
   9 -10   4   67.00    5.35
   9 -10   4   64.97    5.98
   9 -10   5   54.76    5.12
   9 -10   5   49.73    5.71
   9 -10   6   59.70    5.18
   9 -10   6   68.23    5.93
   9 -10   6   59.89    5.82
   9 -10   7   20.68    4.64
   9 -10   7   24.74    5.47
   9 -10   7   23.09    5.18
   9 -10   8    1.42    4.32
   9 -10   8   -1.03    5.37
   9 -10   8   -4.66    4.99
   9 -10   9   36.00    5.82
   9  -9 -10    9.64    3.72
   9  -9 -10    2.65    3.96
  -9   9  10    0.16    6.09
   9  -9  -9   12.57    3.91
   9  -9  -9   20.63    4.17
  -9   9   9   17.12    6.01
   9  -9  -8   12.84    4.05
   9  -9  -8   16.61    4.24
   9  -9  -7   21.82    4.28
   9  -9  -7   29.03    3.43
   9  -9  -7   26.31    4.41
   9  -9  -6   19.24    4.31
   9  -9  -6   15.50    3.51
   9  -9  -6   26.28    4.45
   9  -9  -5   54.26    4.82
   9  -9  -5   44.90    4.06
   9  -9  -5   50.94    4.99
  -9   9   5   41.04    5.65
   9  -9  -4   36.43    4.67
  -9   9   4   34.50    5.22
   9  -9  -3   54.56    5.13
  -9   9   3   50.27    5.26
  -9   9   2   39.93    4.91
   9  -9  -1   55.50    5.43
  -9   9   1   54.92    4.89
   9  -9   0   81.27    5.90
  -9   9   0   67.67    4.99
  -9   9  -1   61.52    4.73
   9  -9   1   68.30    5.74
   9  -9   2  102.39    6.45
   9  -9   3    6.14    4.60
   9  -9   4    0.30    4.11
   9  -9   4   -1.28    4.60
   9  -9   5   17.62    4.41
   9  -9   5   22.24    4.93
   9  -9   6   97.98    5.72
   9  -9   6   86.92    6.09
   9  -9   7   26.36    4.44
   9  -9   7   35.16    4.90
   9  -9   8   32.83    4.57
   9  -9   8   36.85    5.54
   9  -9   8   34.76    4.93
   9  -9   9   38.91    5.72
   9  -9  10   -4.28    5.36
  -9   8  13   10.83    5.29
  -9   8  12    8.13    6.22
  -9   8  12   13.57    5.04
   9  -8 -11   51.62    4.26
  -9   8  11   42.02    6.51
  -9   8  11   32.99    5.00
   9  -8 -11   39.26    4.00
   9  -8 -10  109.38    5.27
   9  -8 -10  115.18    5.62
  -9   8  10  101.23    7.47
  -9   8  10   96.72    5.84
   9  -8  -9   33.13    4.14
   9  -8  -9   33.00    4.20
  -9   8   9   34.03    6.04
  -9   8   9   29.61    4.02
   9  -8  -8    3.16    3.82
   9  -8  -8    4.17    2.90
   9  -8  -8   11.05    3.95
   9  -8  -7   -0.62    3.83
   9  -8  -6   -2.69    3.85
   9  -8  -5   21.92    4.28
  -9   8   5   26.10    4.90
   9  -8  -4   97.09    5.62
  -9   8   4   92.76    6.04
  -9   8   3   48.92    4.80
   9  -8  -3   43.19    4.80
  -9   8   2   53.88    4.79
   9  -8  -1   83.16    5.52
  -9   8   1   85.91    5.25
   9  -8   0   19.83    4.40
  -9   8   0   19.70    3.81
   9  -8   1    6.50    4.15
  -9   8  -1    6.74    3.46
   9  -8   2  138.81    6.82
  -9   8  -2  132.28    5.59
   9  -8   3   65.78    5.21
   9  -8   4   73.52    5.53
   9  -8   5   10.16    4.33
   9  -8   6   10.16    4.11
   9  -8   6   10.62    4.32
   9  -8   7   -2.54    4.00
   9  -8   7    2.25    4.17
   9  -8   8    7.66    3.98
   9  -8   8    4.83    4.24
   9  -8  10   12.64    5.16
  -9   7  14   35.86    6.06
   9  -7 -13   13.17    4.44
  -9   7  13   21.76    6.24
  -9   7  13   26.83    5.46
  -9   7  12   37.44    6.49
  -9   7  12   33.98    5.28
   9  -7 -11    4.35    3.33
   9  -7 -11    1.95    3.41
  -9   7  11    4.67    5.56
  -9   7  11    0.86    4.23
   9  -7 -10   34.82    3.89
  -9   7  10   32.50    5.96
  -9   7  10   25.33    4.26
   9  -7 -10   27.77    3.90
   9  -7  -9  123.20    4.69
  -9   7   9  128.37    7.50
   9  -7  -9  132.43    5.91
  -9   7   9  124.66    5.88
   9  -7  -8  187.50    7.22
   9  -7  -7   49.26    4.31
   9  -7  -6   33.62    4.03
   9  -7  -5   13.46    3.62
  -9   7   5    9.01    4.20
   9  -7  -4    5.25    3.65
  -9   7   4    7.97    4.10
  -9   7   3   18.81    3.98
   9  -7  -2   57.04    4.66
  -9   7   2   59.66    4.60
   9  -7  -1   80.92    5.11
  -9   7   1   80.36    4.88
   9  -7   0  129.88    6.32
  -9   7   0  121.90    5.51
   9  -7   1  121.52    6.11
  -9   7  -1  119.78    5.29
   9  -7   2   24.40    4.08
  -9   7  -2   23.08    3.23
   9  -7   3    7.67    3.90
   9  -7   4    2.40    3.87
   9  -7   5   97.04    5.56
   9  -7   6   69.15    5.11
   9  -7   7  102.32    5.70
   9  -7   8   18.60    4.01
   9  -7   8   24.04    4.20
   9  -7   9    2.06    3.84
   9  -7  10    4.98    4.93
   9  -7  11    1.08    5.00
   9  -6 -14   49.37    4.98
  -9   6  14   52.44    6.78
  -9   6  14   48.46    6.18
   9  -6 -13    9.54    4.02
  -9   6  13   15.22    5.94
  -9   6  13    2.02    4.91
   9  -6 -12   45.08    3.78
   9  -6 -12   49.22    3.79
  -9   6  12   35.62    6.19
  -9   6  12   41.79    5.31
   9  -6 -11   83.76    4.58
  -9   6  11   78.07    6.69
  -9   6  11   85.04    5.68
   9  -6 -10   79.40    4.50
  -9   6  10   77.73    6.45
  -9   6  10   63.01    5.02
   9  -6  -9    3.81    3.36
  -9   6   9    0.50    3.44
   9  -6  -8   -3.21    3.33
   9  -6  -7   33.16    3.78
   9  -6  -6  252.37    8.46
  -9   6   6  238.55    9.02
  -9   6   5   98.76    5.66
   9  -6  -5  104.06    5.28
   9  -6  -4   75.90    4.80
  -9   6   4   78.95    4.93
  -9   6   3   58.24    4.20
  -9   6   3   57.81    4.42
   9  -6  -2   12.28    3.57
  -9   6   2   10.40    3.40
  -9   6   1    8.65    3.28
   9  -6  -1   12.48    3.56
  -9   6   1    5.98    3.11
   9  -6   0   -0.10    3.47
  -9   6   0   -0.46    3.07
   9  -6   1   48.36    4.42
  -9   6  -1   56.56    3.72
   9  -6   2  156.55    6.59
  -9   6  -2  149.52    5.44
   9  -6   3  184.79    7.42
  -9   6  -3  205.30    6.29
   9  -6   4   84.71    5.11
   9  -6   5   -0.39    3.64
   9  -6   6    1.42    3.73
   9  -6   7   15.01    3.79
   9  -6   8   19.06    3.80
   9  -6   9   56.27    4.71
   9  -6  10   24.80    4.19
   9  -5 -15   47.35    4.96
  -9   5  15   50.88    6.79
  -9   5  15   46.65    6.34
   9  -5 -14   68.13    4.96
  -9   5  14   68.72    6.73
  -9   5  14   66.01    6.27
   9  -5 -13   11.96    3.02
   9  -5 -13    4.66    3.71
   9  -5 -13    5.22    2.92
  -9   5  13   11.64    5.56
  -9   5  13    3.75    4.83
   9  -5 -12   29.53    3.40
  -9   5  12   29.13    5.54
  -9   5  12   19.82    4.68
   9  -5 -11   26.11    3.38
  -9   5  11   21.46    5.26
  -9   5  11   29.53    4.44
   9  -5 -10   69.48    4.15
  -9   5  10   68.58    5.72
  -9   5  10   61.83    4.77
   9  -5  -9  103.11    4.90
   9  -5  -8  275.78    8.69
  -9   5   8  252.69    9.53
  -9   5   7   86.96    4.80
   9  -5  -7   86.69    4.63
  -9   5   6   32.59    3.63
   9  -5  -6   35.98    3.61
  -9   5   6   31.27    4.07
  -9   5   5    7.82    3.08
   9  -5  -5   16.46    3.26
  -9   5   5   13.93    3.47
  -9   5   4  128.80    5.37
  -9   5   4  110.53    5.47
  -9   5   3  162.06    6.16
  -9   5   3  149.51    6.07
   9  -5  -2  110.94    5.24
  -9   5   2  103.15    4.93
   9  -5  -1  279.08    9.21
  -9   5   1  287.29    8.81
  -9   5   0  121.12    4.95
   9  -5   0  118.38    5.59
  -9   5  -1    5.76    3.00
   9  -5   1    2.31    3.21
  -9   5  -1   -0.12    2.60
  -9   5  -2    0.26    3.00
   9  -5   2   -1.92    3.29
  -9   5  -2   -0.57    2.45
  -9   5  -3   58.76    4.04
   9  -5   3   61.55    4.42
  -9   5  -3   56.23    3.03
   9  -5   4    8.57    3.51
   9  -5   5   45.99    4.16
   9  -5   6  133.78    5.79
   9  -5   7   90.48    4.82
   9  -5   8    6.99    3.77
   9  -5   9   -1.56    3.85
   9  -5  10    2.10    3.90
   9  -4 -16    9.23    4.17
  -9   4  16    8.35    5.92
  -9   4  16    5.14    5.67
   9  -4 -15    1.23    3.93
  -9   4  15    4.00    5.67
  -9   4  15    8.01    5.34
   9  -4 -14   84.33    5.06
  -9   4  14   88.06    6.93
  -9   4  14   94.20    6.71
   9  -4 -13  137.55    5.98
   9  -4 -13  148.84    5.32
  -9   4  13  138.30    7.64
  -9   4  13  140.00    7.48
   9  -4 -12  121.29    4.85
  -9   4  12  107.71    6.76
  -9   4  12  110.48    6.39
   9  -4 -11   11.14    3.01
  -9   4  11   12.21    4.01
  -9   4  10    9.41    3.21
   9  -4 -10   12.58    3.03
  -9   4  10   12.26    3.53
  -9   4   9    2.19    3.04
   9  -4  -9    4.02    2.82
  -9   4   8   36.36    3.57
   9  -4  -8   41.61    3.48
  -9   4   7  196.09    6.95
   9  -4  -7  196.86    6.89
  -9   4   6  260.71    8.44
   9  -4  -6  255.76    8.35
  -9   4   5  507.37   14.03
   9  -4  -5  482.19   13.93
  -9   4   4  112.66    5.11
   9  -4  -3    6.37    2.87
  -9   4   2  144.25    5.72
   9  -4  -2  134.18    5.62
   9  -4  -1  143.89    5.83
  -9   4   0   90.43    4.50
   9  -4   0   81.35    4.66
  -9   4   0   84.67    3.93
  -9   4  -1   95.82    4.59
   9  -4   1   85.61    4.73
  -9   4  -1   86.62    3.89
  -9   4  -2   83.27    4.29
   9  -4   2   81.03    4.60
  -9   4  -2   80.71    3.56
  -9   4  -3  129.19    5.32
   9  -4   3  131.09    5.55
  -9   4  -3  127.34    4.23
  -9   4  -4   44.22    3.65
   9  -4   4   47.01    3.84
  -9   4  -5   -0.82    2.92
   9  -4   5   -0.79    3.18
   9  -4   6   42.51    3.76
   9  -4   7   89.93    4.53
   9  -4   7   76.14    4.81
   9  -4   8   67.82    4.76
   9  -4   9   17.72    4.04
   9  -4  10   32.57    4.26
   9  -3 -17    1.46    4.08
  -9   3  17    3.19    5.72
   9  -3 -16    3.07    3.89
  -9   3  16    5.63    5.52
  -9   3  16    2.40    5.63
   9  -3 -15    7.02    3.68
  -9   3  15    0.28    5.20
  -9   3  15    9.10    5.36
   9  -3 -14    5.06    3.38
   9  -3 -14    2.44    2.51
  -9   3  14    9.60    4.90
  -9   3  14    5.34    4.88
   9  -3 -13   48.35    3.79
   9  -3 -13   50.73    3.32
  -9   3  13   50.22    5.36
   9  -3 -12   10.57    2.91
  -9   3  12   13.43    3.22
   9  -3 -12   13.25    2.80
  -9   3  12   13.87    4.25
  -9   3  11  145.22    5.75
   9  -3 -11  145.46    5.37
  -9   3  11  139.22    6.63
  -9   3  10  184.68    6.61
   9  -3 -10  181.70    6.28
  -9   3   9  118.45    5.17
   9  -3  -9  116.59    4.86
  -9   3   8   31.26    3.50
   9  -3  -8   33.42    3.14
  -9   3   7   -0.26    2.73
   9  -3  -7    3.53    2.60
  -9   3   6    8.93    2.82
   9  -3  -6   10.55    2.77
  -9   3   5  217.47    7.39
  -9   3   4  210.33    7.22
   9  -3  -3  238.41    7.82
   9  -3  -2  102.88    4.76
   9  -3  -1   93.10    4.39
   9  -3  -1   77.02    2.97
  -9   3   0    2.86    2.69
   9  -3   0    5.65    2.86
  -9   3  -1   24.37    3.11
   9  -3   1   23.57    3.20
  -9   3  -2   74.79    4.17
   9  -3   2   75.18    4.22
  -9   3  -2   71.85    3.19
  -9   3  -3  142.48    5.52
   9  -3   3  144.53    5.57
  -9   3  -3  132.97    4.23
  -9   3  -4  149.66    5.74
   9  -3   4  153.88    5.85
  -9   3  -5  108.44    4.71
   9  -3   5   97.82    4.73
   9  -3   6   23.06    3.67
  -9   3  -6   20.66    3.05
   9  -3   6   20.58    3.16
   9  -3   7   -0.78    3.54
   9  -3   7   -0.82    2.81
   9  -3   8    1.40    3.69
   9  -3   9    5.02    3.82
   9  -3  10   52.23    4.65
   9  -2 -17    5.50    3.92
  -9   2  17   -5.35    5.41
  -9   2  17    6.28    5.84
   9  -2 -16   -0.78    3.55
  -9   2  16    3.36    5.14
  -9   2  16    6.17    5.56
   9  -2 -15    5.90    3.44
  -9   2  15    6.15    5.15
   9  -2 -14   23.46    3.36
   9  -2 -14   15.92    2.65
  -9   2  14   21.52    5.01
   9  -2 -13   62.26    3.79
  -9   2  13   57.98    3.91
   9  -2 -13   59.96    3.38
  -9   2  13   64.12    5.49
   9  -2 -12   74.86    3.92
  -9   2  12   78.58    4.28
   9  -2 -12   81.72    3.86
  -9   2  12   72.74    5.36
  -9   2  11  128.74    5.44
   9  -2 -11  137.48    5.08
  -9   2  10    0.40    2.78
   9  -2 -10    4.64    2.47
  -9   2   9  288.78    9.08
   9  -2  -9  297.99    8.79
  -9   2   8  225.27    7.52
   9  -2  -8  227.45    7.26
  -9   2   7  238.74    7.83
   9  -2  -7  236.68    7.52
  -9   2   6  119.55    5.12
   9  -2  -6  116.26    4.79
  -9   2   5   19.74    2.89
  -9   2   4   14.29    2.78
   9  -2  -4    7.43    2.57
   9  -2  -3    2.33    1.44
   9  -2  -3   -1.38    2.43
   9  -2  -2   92.09    4.31
   9  -2  -2   92.49    3.12
  -9   2   1  792.12   20.19
   9  -2  -1  774.76   19.99
   9  -2  -1  742.41   18.68
  -9   2   0  204.56    6.95
   9  -2   0  194.98    6.76
  -9   2  -1  165.87    6.15
   9  -2   1  169.43    6.10
  -9   2  -2    2.35    2.58
   9  -2   2    5.09    2.80
  -9   2  -3    2.98    2.67
   9  -2   3    1.57    2.73
  -9   2  -3    2.17    1.56
  -9   2  -4   40.30    3.43
   9  -2   4   40.88    3.37
   9  -2   5   30.52    3.58
  -9   2  -5   35.28    3.29
   9  -2   5   32.87    3.26
  -9   2  -6  138.79    5.41
   9  -2   6  141.09    5.24
   9  -2   6  149.26    6.01
   9  -2   7   20.81    3.81
   9  -2   8   26.03    4.06
   9  -2   9   38.57    4.38
   9  -2  10    4.08    4.02
   9  -1 -18   14.32    4.20
  -9   1  18   17.54    5.69
   9  -1 -17   68.54    4.92
  -9   1  17   77.70    7.07
   9  -1 -16   18.42    3.60
  -9   1  16    6.98    5.53
   9  -1 -15    4.29    3.09
   9  -1 -15    5.41    2.37
  -9   1  15   -0.80    4.91
   9  -1 -14   18.67    3.12
  -9   1  14   21.54    3.12
   9  -1 -14   19.67    2.61
  -9   1  14   15.57    4.79
   9  -1 -13   67.68    3.72
  -9   1  13   68.11    4.08
   9  -1 -13   69.31    3.47
  -9   1  13   63.66    5.43
   9  -1 -12   52.41    3.23
  -9   1  12   53.91    3.71
   9  -1 -12   54.36    3.24
   9  -1 -11   19.26    2.35
  -9   1  11   17.53    3.05
   9  -1 -11   19.38    2.65
  -9   1  10   24.46    3.23
   9  -1 -10   31.35    2.86
  -9   1   9  278.20    8.75
   9  -1  -9  275.32    8.26
  -9   1   8    1.96    2.58
   9  -1  -8    3.54    2.38
  -9   1   7  126.26    5.21
   9  -1  -7  121.78    4.80
  -9   1   6  191.63    6.73
  -9   1   5  118.52    5.05
   9  -1  -4  273.00    8.36
   9  -1  -4  276.78    7.47
   9  -1  -3  194.31    6.48
   9  -1  -3  192.20    5.37
   9  -1  -2  104.29    4.40
   9  -1  -2   95.77    3.00
   9  -1  -1   48.25    2.17
  -9   1   1   43.72    3.37
   9  -1  -1   44.98    3.32
  -9   1   0   84.24    4.22
   9  -1   0   82.14    4.13
  -9   1  -1  175.18    6.31
   9  -1   1  172.24    6.10
  -9   1  -2  169.60    6.23
   9  -1   2  173.13    6.02
  -9   1  -3  133.21    5.29
   9  -1   3  133.86    5.15
  -9   1  -4   34.68    3.24
   9  -1   4   38.53    3.22
   9  -1   4   40.07    3.68
   9  -1   5   -0.15    3.34
  -9   1  -5   -3.15    2.74
   9  -1   5    3.75    2.61
   9  -1   6    4.63    3.41
  -9   1  -6    1.86    2.69
   9  -1   6    4.33    2.61
   9  -1   7    4.05    3.66
  -9   1  -7    7.22    2.72
   9  -1   8   41.92    4.33
   9  -1   9   37.11    4.39
   9  -1  10   40.52    4.71
  -9   0  19   -5.37    5.50
   9   0 -18   16.36    3.95
   9   0 -17   15.49    3.75
   9   0 -16    6.48    3.30
  -9   0  16    1.69    5.31
   9   0 -15   63.47    3.96
   9   0 -15   62.92    3.30
  -9   0  15   54.48    5.99
   9   0 -14   44.26    3.32
  -9   0  14   42.43    3.50
   9   0 -14   48.81    3.05
  -9   0  14   39.83    5.17
   9   0 -13    0.17    2.37
  -9   0  13    0.51    2.78
   9   0 -13   -0.65    2.39
   9   0 -12   20.88    2.48
  -9   0  12   20.84    3.04
   9   0 -12   17.96    2.61
   9   0 -11    2.54    1.92
  -9   0  11    2.92    2.77
   9   0 -11    1.02    2.33
   9   0 -10    0.79    1.69
  -9   0  10   -0.83    2.73
   9   0 -10    1.60    2.25
   9   0  -9    6.89    1.58
  -9   0   9    5.89    2.74
   9   0  -9    9.24    2.41
  -9   0   8   46.56    3.40
   9   0  -8   43.31    3.03
  -9   0   7  424.64   12.24
   9   0  -7  423.34   11.77
  -9   0   6  187.40    6.68
   9   0  -5    0.21    1.41
  -9   0   5   -2.64    2.71
   9   0  -5    3.23    2.33
   9   0  -4   49.82    3.23
   9   0  -3  201.20    5.37
   9   0  -3  203.64    6.58
   9   0  -2  298.67    7.58
  -9   0   2  274.82    9.07
   9   0  -2  292.78    8.76
  -9   0   1   56.50    3.74
   9   0  -1   57.05    3.48
  -9   0   0   96.92    4.43
   9   0   0   97.23    4.14
  -9   0  -1   25.05    3.08
   9   0   1   21.21    2.87
   9   0   2    5.23    2.85
  -9   0  -2    0.39    2.62
   9   0   2    5.88    2.60
  -9   0  -3   32.83    3.27
   9   0   3   37.03    3.05
   9   0   3   37.23    3.55
  -9   0  -4   41.84    3.38
   9   0   4   47.37    3.19
   9   0   4   45.64    3.83
  -9   0  -5   65.40    3.86
   9   0   5   72.30    3.60
   9   0   5   69.67    4.47
  -9   0  -6   46.47    3.52
   9   0   6   61.02    4.37
   9   0   7   88.74    5.15
   9   0   8    3.23    3.83
   9   0   9    4.56    4.02
   9   0  10   28.88    4.74
   9   1 -19   27.94    4.29
   9   1 -18   16.02    3.77
   9   1 -17   11.78    3.46
   9   1 -16    6.20    3.14
   9   1 -16    6.38    2.38
   9   1 -15   10.67    2.94
  -9  -1  15   10.70    2.98
   9   1 -15   11.87    2.48
   9   1 -14   22.64    2.86
  -9  -1  14   22.34    3.19
   9   1 -14   24.92    2.67
  -9  -1  13   89.61    4.37
   9   1 -13   82.04    3.70
   9   1 -12   30.18    2.40
  -9  -1  12   30.68    3.28
   9   1 -12   35.94    2.84
   9   1 -11  167.87    5.26
  -9  -1  11  182.00    6.48
   9   1 -11  181.01    5.79
   9   1 -10   39.51    2.18
  -9  -1  10   43.80    3.50
   9   1 -10   48.07    2.98
   9   1  -9   15.34    1.55
  -9  -1   9   16.51    2.91
   9   1  -9   17.61    2.46
   9   1  -8    8.38    1.21
  -9  -1   8    9.88    2.65
   9   1  -8    8.68    2.31
   9   1  -7   23.28    1.27
  -9  -1   7   31.97    3.14
  -9  -1   6  213.98    7.31
   9   1  -5  270.37    6.82
   9   1  -5  298.54    8.29
  -9  -1   4  335.03    9.45
   9   1  -4  337.49    8.86
   9   1  -3   11.48    0.83
   9   1  -3   15.33    2.54
   9   1  -2   36.58    1.42
  -9  -1   2   43.66    3.32
   9   1  -2   44.18    3.05
  -9  -1   1    4.66    2.60
   9   1  -1    0.38    2.40
  -9  -1   0  127.64    5.26
   9   1   0  125.22    4.85
  -9  -1  -1  155.90    6.01
   9   1   1  165.30    5.72
   9   1   1  171.49    5.98
  -9  -1  -2  251.93    8.24
   9   1   2  264.26    7.87
   9   1   2  264.91    8.29
  -9  -1  -3   32.62    3.29
   9   1   3   32.92    3.02
   9   1   3   39.98    3.57
   9   1   4   18.44    3.44
  -9  -1  -4   19.72    2.98
   9   1   4   16.68    2.72
   9   1   5   14.54    3.60
  -9  -1  -5   13.99    2.93
   9   1   5   17.77    2.73
  -9  -1  -6   44.28    3.37
   9   1   6   45.10    4.25
   9   1   7   46.40    4.52
   9   1   8   22.06    4.33
   9   1   9    6.78    4.33
   9   2 -19   12.70    3.87
   9   2 -18   50.24    4.32
   9   2 -17   69.63    4.40
   9   2 -16   21.61    3.23
   9   2 -15    8.08    2.76
  -9  -2  15    3.74    2.87
   9   2 -15    5.73    2.48
   9   2 -14    9.19    2.55
  -9  -2  14   12.67    3.03
   9   2 -14    7.20    2.56
   9   2 -13   -0.15    2.11
  -9  -2  13    3.74    2.91
   9   2 -13    3.01    2.41
   9   2 -12   -0.08    1.85
  -9  -2  12    2.79    2.86
   9   2 -12    1.79    2.37
   9   2 -11  140.28    4.50
  -9  -2  11  147.81    5.78
   9   2 -11  151.20    5.16
   9   2 -10  360.08    9.53
  -9  -2  10  365.09   11.01
   9   2 -10  389.62   10.35
  -9  -2   9  173.70    6.30
   9   2  -9  181.30    5.68
   9   2  -8    0.69    0.93
  -9  -2   8   -2.36    2.64
   9   2  -8    3.00    2.19
  -9  -2   7    2.12    2.59
  -9  -2   6   12.84    2.80
   9   2  -6   11.53    2.37
   9   2  -5    1.61    2.17
   9   2  -4  103.82    4.26
   9   2  -3   93.05    4.07
  -9  -2   2  245.65    8.41
   9   2  -2  276.27    7.97
  -9  -2   1  117.12    5.19
   9   2  -1  122.89    4.68
  -9  -2   0   16.35    2.99
   9   2   0   19.63    2.74
   9   2   1    7.56    2.92
  -9  -2  -1    3.24    2.69
   9   2   1    5.29    2.53
  -9  -2  -2   41.55    3.43
   9   2   2   39.07    3.16
   9   2   2   42.64    3.65
  -9  -2  -3  118.24    5.11
   9   2   3  122.80    4.77
   9   2   3  129.78    5.46
  -9  -2  -4   72.50    4.05
   9   2   4   77.66    3.75
   9   2   4   75.41    4.55
   9   2   5   11.54    3.63
  -9  -2  -5   15.38    2.91
   9   2   6   10.55    3.91
   9   2   7    1.38    4.09
   9   2   8   -0.45    4.35
   9   3 -20    5.30    3.82
   9   3 -19    2.40    3.58
   9   3 -18   -0.24    3.29
   9   3 -17    3.17    3.10
   9   3 -16   21.97    3.14
   9   3 -15   87.35    4.11
  -9  -3  15   82.24    4.50
   9   3 -14   44.54    3.01
  -9  -3  14   46.95    3.69
   9   3 -14   42.63    3.17
   9   3 -13   22.59    2.34
  -9  -3  13   24.96    3.29
   9   3 -13   25.86    2.81
   9   3 -12   93.84    3.54
  -9  -3  12   97.54    4.87
   9   3 -12  100.36    4.17
  -9  -3  12   96.77    5.40
   9   3 -11    9.29    1.63
  -9  -3  11   11.80    2.94
   9   3 -11   12.43    2.58
  -9  -3  11    7.93    3.36
   9   3 -10   13.67    1.38
  -9  -3  10   16.01    3.00
   9   3 -10   15.49    2.64
  -9  -3  10   15.20    3.10
  -9  -3   9    7.32    2.84
   9   3  -9    4.35    2.30
  -9  -3   9    7.39    2.74
  -9  -3   8   26.16    3.26
   9   3  -8   28.24    2.79
  -9  -3   8   25.95    2.86
  -9  -3   7  198.63    7.19
   9   3  -6   86.84    3.95
  -9  -3   5   65.97    4.08
   9   3  -5   71.56    3.57
   9   3  -4   42.27    3.12
  -9  -3   3   28.89    3.24
   9   3  -3   31.22    2.87
   9   3  -3   34.93    2.85
   9   3  -2    9.69    2.53
  -9  -3   2    2.91    2.79
   9   3  -2    5.56    2.54
  -9  -3   1   31.07    3.41
   9   3  -1   41.66    3.15
  -9  -3   0  242.69    8.19
   9   3   0  262.01    7.78
   9   3   1   89.13    4.11
   9   3   1   92.12    4.44
   9   3   2   28.14    3.46
  -9  -3  -2   26.83    3.23
   9   3   2   28.95    3.03
  -9  -3  -3   31.46    3.36
   9   3   3   33.73    3.12
   9   3   3   38.02    3.87
   9   3   4    2.22    3.51
  -9  -3  -4    4.76    2.85
   9   3   5   23.89    4.01
  -9  -3  -5   21.28    3.05
   9   3   6   43.17    4.66
   9   3   7   24.14    4.47
   9   3   8   17.17    4.70
   9   4 -18   67.71    4.42
   9   4 -17   42.65    3.63
   9   4 -17   36.46    3.07
   9   4 -16   17.04    2.97
  -9  -4  16   10.04    3.26
   9   4 -15    0.79    2.41
  -9  -4  15    3.66    3.02
  -9  -4  15    2.76    4.55
   9   4 -14    9.77    2.27
  -9  -4  14   15.88    3.31
  -9  -4  14    5.40    4.21
  -9  -4  13   55.84    4.02
   9   4 -13   61.92    3.57
  -9  -4  13   60.60    5.00
  -9  -4  12  134.23    5.78
   9   4 -12  134.53    5.05
  -9  -4  12  128.36    6.13
  -9  -4  11   36.74    3.72
   9   4 -11   39.86    3.14
  -9  -4  11   34.95    3.80
  -9  -4  10  211.68    7.73
  -9  -4  10  200.38    7.43
  -9  -4   9   44.42    3.85
   9   4  -9   52.26    3.34
  -9  -4   9   47.89    3.48
  -9  -4   8   48.10    3.87
  -9  -4   8   50.37    3.27
   9   4  -7    0.92    2.00
  -9  -4   7    0.10    2.79
  -9  -4   7    3.43    2.13
   9   4  -6   70.05    3.73
  -9  -4   6   72.18    3.16
   9   4  -6   73.03    3.33
   9   4  -5  208.25    6.93
   9   4  -5  224.48    6.71
   9   4  -4  136.01    5.19
   9   4  -4  141.51    5.00
  -9  -4   3   82.09    4.68
   9   4  -3   87.83    4.15
   9   4  -3   95.70    4.09
  -9  -4   2  186.90    7.12
   9   4  -2  200.91    6.57
   9   4  -2  201.21    6.57
  -9  -4   1   23.41    3.34
   9   4  -1   32.46    3.11
  -9  -4   0    2.99    2.92
   9   4   0   -0.56    2.78
  -9  -4  -1   32.89    3.46
   9   4   1   36.69    3.24
  -9  -4  -2   50.61    3.78
   9   4   2   47.90    4.05
  -9  -4  -3   97.91    4.80
   9   4   3  105.01    5.27
   9   4   4   29.24    4.18
   9   4   4   30.59    3.31
  -9  -4  -4   31.10    3.37
   9   4   5   35.60    4.52
   9   4   6   12.07    4.36
   9   4   7    8.16    4.53
   9   5 -17   44.06    3.31
  -9  -5  17   50.23    5.86
   9   5 -16   42.32    3.49
  -9  -5  16   51.22    4.04
  -9  -5  15   31.43    3.75
  -9  -5  15   36.57    5.06
  -9  -5  14   63.83    4.43
  -9  -5  14   60.74    5.18
  -9  -5  13   33.73    3.78
   9   5 -13   30.29    1.62
  -9  -5  13   35.21    4.43
  -9  -5  12    5.66    3.48
   9   5 -12   11.97    1.50
  -9  -5  12    5.60    3.25
   9   5 -12    3.33    2.78
  -9  -5  11  131.23    5.98
   9   5 -11  132.25    5.19
  -9  -5  11  130.44    5.87
   9   5 -11  137.24    4.17
  -9  -5  10  118.79    5.69
   9   5 -10  119.24    4.96
  -9  -5  10  120.04    5.40
   9   5 -10  129.43    4.07
  -9  -5   9   57.36    4.36
   9   5  -9   66.97    3.84
  -9  -5   9   62.10    3.88
   9   5  -9   68.57    2.93
  -9  -5   8   85.63    5.03
  -9  -5   8   90.09    4.24
  -9  -5   7   49.83    4.04
   9   5  -7   44.33    3.38
  -9  -5   7   43.04    2.97
   9   5  -7   47.71    2.81
   9   5  -6   39.28    3.27
  -9  -5   6   36.04    2.53
   9   5  -6   39.20    2.81
   9   5  -5    6.40    2.40
   9   5  -5    8.28    2.75
  -9  -5   5    7.19    1.70
   9   5  -4   15.19    2.56
  -9  -5   4   15.30    3.32
   9   5  -4   17.48    2.94
  -9  -5   3  116.92    5.63
   9   5  -3  125.16    5.09
   9   5  -3  135.89    5.01
  -9  -5   2   76.25    4.69
   9   5  -2   84.36    4.24
   9   5  -2   86.64    4.15
   9   5  -1   60.26    3.74
   9   5  -1   56.39    3.76
  -9  -5   0   25.17    3.47
  -9  -5  -1   61.60    4.16
   9   5   2    2.02    3.50
  -9  -5  -2    1.56    3.00
   9   5   3   11.15    3.89
   9   5   3    8.17    3.12
  -9  -5  -3    5.79    3.07
   9   5   4    5.78    4.21
  -9  -5  -4   -0.29    3.02
   9   5   5   23.97    4.63
   9   5   6   18.33    4.74
  -9  -6  19    3.16    5.83
  -9  -6  18   10.78    5.47
   9   6 -17   12.70    3.07
  -9  -6  17   11.30    5.20
  -9  -6  16   -2.21    3.44
   9   6 -16    0.82    2.95
  -9  -6  16    2.71    4.74
   9   6 -15   15.10    3.23
  -9  -6  15   11.35    3.57
  -9  -6  15   21.49    4.83
  -9  -6  14   35.57    4.69
  -9  -6  14   35.60    4.13
  -9  -6  13   37.39    4.41
  -9  -6  13   36.24    4.15
  -9  -6  12   43.03    4.30
  -9  -6  12   43.23    4.35
  -9  -6  11   11.12    3.39
   9   6 -11   10.17    1.70
  -9  -6  11   11.16    3.56
  -9  -6  10   41.38    4.20
  -9  -6  10   44.31    3.77
   9   6 -10   46.21    2.42
  -9  -6   9   -0.32    2.82
   9   6  -9    0.30    1.90
  -9  -6   9    0.78    3.33
  -9  -6   8   58.69    4.53
  -9  -6   8   58.73    3.57
   9   6  -8   60.06    2.98
   9   6  -7   44.23    3.61
  -9  -6   7   36.17    2.96
   9   6  -7   42.51    2.76
   9   6  -6   57.35    3.87
  -9  -6   6   50.10    2.98
   9   6  -6   59.60    3.24
   9   6  -5   84.49    4.41
  -9  -6   5   75.94    3.23
  -9  -6   4   25.68    3.74
  -9  -6   4   23.90    1.80
   9   6  -4   32.40    2.97
  -9  -6   3   29.69    3.90
   9   6  -3   37.15    3.24
  -9  -6   2   37.78    3.90
   9   6  -2   35.68    3.49
   9   6  -1    5.47    3.20
  -9  -6   1   10.79    3.37
   9   6   0   25.67    3.76
  -9  -6   0   31.61    3.78
   9   6   1   36.31    3.72
  -9  -6  -1   31.74    3.82
  -9  -6  -2   29.19    3.65
   9   6   2   24.93    3.56
   9   6   3   48.99    4.77
  -9  -6  -3   39.32    3.84
   9   6   4   41.26    4.92
   9   6   5   -5.96    4.61
  -9  -7  19   12.12    5.77
  -9  -7  18    5.80    5.31
  -9  -7  17    4.12    3.62
   9   7 -17    2.85    3.17
  -9  -7  17    3.15    4.97
   9   7 -16   41.88    3.80
  -9  -7  16   48.96    4.55
  -9  -7  16   54.13    5.67
   9   7 -15   49.68    3.89
  -9  -7  15   52.66    4.59
  -9  -7  15   53.95    5.41
  -9  -7  14   -1.51    4.18
   9   7 -14    5.51    3.26
  -9  -7  14   -0.77    3.76
  -9  -7  13    6.86    3.90
  -9  -7  13    1.58    3.67
   9   7 -13   -2.13    3.30
  -9  -7  12   -3.25    3.74
  -9  -7  12    3.68    3.77
  -9  -7  11   53.55    4.61
  -9  -7  11   50.51    4.25
   9   7 -11   48.55    2.37
  -9  -7  10  163.46    7.12
  -9  -7  10  164.88    6.56
   9   7 -10  163.64    5.02
  -9  -7   9  136.72    5.70
   9   7  -9  144.83    4.64
  -9  -7   8   44.88    4.48
  -9  -7   8   48.70    3.56
   9   7  -8   55.85    3.00
  -9  -7   7   17.14    2.78
   9   7  -7   18.76    2.53
  -9  -7   6   13.78    2.44
   9   7  -6   17.74    2.66
  -9  -7   5   41.42    4.29
  -9  -7   5   29.55    2.47
   9   7  -5   41.43    3.21
  -9  -7   4    7.90    1.78
   9   7  -4   12.04    2.91
  -9  -7   4    9.67    3.58
  -9  -7   3  171.60    7.16
   9   7  -3  188.54    6.57
   9   7  -2   76.90    4.66
  -9  -7   2   68.83    4.90
   9   7  -2   83.59    4.58
  -9  -7   1   36.99    4.14
   9   7  -1   45.72    4.03
   9   7  -1   42.66    4.09
   9   7   0   11.43    3.79
  -9  -7   0    6.20    3.53
   9   7   0    6.08    3.46
  -9  -7  -1   -0.37    3.51
   9   7   1   -0.98    3.36
  -9  -7  -2   14.35    3.53
   9   7   2   14.77    3.54
   9   7   3   14.20    4.53
  -9  -7  -3    7.40    3.31
   9   7   4   36.51    5.14
   9   8 -18    5.37    3.38
  -9  -8  18   -3.77    5.59
  -9  -8  17    2.25    5.04
  -9  -8  17    2.58    3.94
   9   8 -17    8.02    3.52
  -9  -8  16    1.86    4.82
  -9  -8  16    6.46    3.92
   9   8 -16    8.05    3.50
  -9  -8  15    8.72    4.51
  -9  -8  15    3.97    3.91
   9   8 -15    7.17    3.48
   9   8 -14   52.14    4.20
  -9  -8  14   55.65    4.94
  -9  -8  14   53.35    5.31
   9   8 -13  109.63    5.33
  -9  -8  13  108.25    6.10
  -9  -8  13  122.66    6.38
  -9  -8  12    2.53    3.77
   9   8 -12    4.83    3.51
  -9  -8  12   -1.47    3.89
  -9  -8  11    2.23    3.55
   9   8 -11   -0.88    1.78
   9   8 -11   -1.38    3.43
  -9  -8  11    1.24    3.79
  -9  -8  10    3.05    3.29
   9   8 -10    0.93    1.99
   9   8 -10    4.96    3.65
   9   8  -9   22.82    2.48
  -9  -8   9   24.36    3.43
   9   8  -8   73.81    4.73
  -9  -8   8   68.55    4.10
   9   8  -8   69.88    3.52
   9   8  -7  112.25    5.52
  -9  -8   7  104.86    4.70
   9   8  -7  110.03    4.50
   9   8  -6   41.34    4.23
  -9  -8   6   39.12    3.12
   9   8  -6   43.02    3.37
  -9  -8   5   12.19    2.39
   9   8  -5   11.29    3.05
   9   8  -5   10.09    3.71
  -9  -8   5   11.92    4.00
  -9  -8   4    8.69    2.06
   9   8  -4   14.24    3.29
   9   8  -4    6.79    3.64
  -9  -8   4    9.06    3.88
   9   8  -3   10.96    3.48
   9   8  -3   10.91    3.74
  -9  -8   3    6.07    3.85
   9   8  -2    3.18    3.55
  -9  -8   2    7.80    3.81
   9   8  -2    6.52    3.68
   9   8  -1   18.10    4.04
  -9  -8   1   17.48    3.95
   9   8  -1   16.15    3.85
   9   8   0   35.41    4.42
  -9  -8   0   30.23    4.10
   9   8   0   30.63    4.02
   9   8   1   19.74    4.58
   9   8   1   26.64    3.94
  -9  -8  -2   17.17    3.81
  -9  -9  18    8.15    5.57
   9   9 -18   12.08    3.74
  -9  -9  17   11.60    5.36
  -9  -9  17    0.98    4.11
   9   9 -17    8.80    3.72
  -9  -9  16    0.71    4.95
  -9  -9  16    2.68    4.06
   9   9 -16    5.17    3.70
  -9  -9  15   -4.48    4.68
  -9  -9  15    2.65    4.09
   9   9 -15    1.34    3.75
  -9  -9  14    0.51    4.38
  -9  -9  14   -4.10    4.40
   9   9 -14   -0.46    3.71
  -9  -9  13   -0.84    4.15
  -9  -9  13    9.55    4.27
   9   9 -13    1.08    3.75
  -9  -9  12    9.35    3.93
   9   9 -12   10.39    3.79
   9   9 -11   47.68    2.68
   9   9 -11   50.89    4.49
  -9  -9  11   58.00    4.68
  -9  -9  10   16.94    3.72
   9   9 -10   18.56    2.40
  -9  -9   9    6.57    3.40
   9   9  -9    5.57    2.42
  -9  -9   8    5.95    3.15
   9   9  -8    9.04    2.67
   9   9  -8    6.82    3.86
  -9  -9   7    1.06    2.91
   9   9  -7    1.52    2.76
   9   9  -7   -0.25    3.74
  -9  -9   6    2.30    2.73
   9   9  -6    4.02    2.96
   9   9  -6    6.15    3.88
  -9  -9   5    8.43    2.58
   9   9  -5   11.49    3.36
   9   9  -5    4.17    3.84
   9   9  -4   22.56    3.65
  -9  -9   4   22.31    4.35
   9   9  -4   22.89    4.14
   9   9  -3   79.63    4.87
   9   9  -3   66.29    4.98
  -9  -9   3   71.22    5.36
   9   9  -2   11.58    4.01
  -9  -9   2   11.66    4.12
   9   9  -2    5.81    4.00
   9   9  -1   -1.19    4.04
  -9  -9   1    1.08    3.89
   9   9  -1    4.63    3.91
   9   9   0    1.55    4.29
  -9  -9   0   -1.83    3.86
   9   9   0    4.24    3.98
   9   9   1   -1.03    4.61
  -9  -9  -1    1.54    3.75
   9  10 -18   -1.91    3.84
  -9 -10  17    7.32    5.29
   9  10 -17    0.08    4.11
  -9 -10  17   -0.83    4.45
  -9 -10  16   25.42    5.45
  -9 -10  16   20.40    4.78
   9  10 -16   13.89    4.26
  -9 -10  15   44.17    5.22
   9  10 -15   43.61    4.72
  -9 -10  15   52.31    5.66
  -9 -10  14    4.52    4.48
  -9 -10  14   12.63    4.65
   9  10 -14    7.66    4.10
  -9 -10  13    8.36    4.45
   9  10 -13   20.67    4.30
  -9 -10  12    0.91    4.05
   9  10 -12    1.13    4.13
  -9 -10  11    2.34    3.85
   9  10 -11   -1.05    4.03
  -9 -10  10   20.69    4.05
   9  10  -9   37.73    3.12
   9  10  -9   38.71    4.60
  -9 -10   9   34.21    4.12
  -9 -10   8   28.03    3.77
   9  10  -8   30.24    3.28
   9  10  -8   38.70    4.63
  -9 -10   7   11.34    3.30
   9  10  -7   12.06    3.19
   9  10  -7   16.54    4.28
   9  10  -6   44.71    4.00
   9  10  -6   45.53    4.74
   9  10  -5   42.56    4.21
   9  10  -5   45.29    4.87
   9  10  -4   16.69    3.87
   9  10  -4   10.77    4.37
   9  10  -3   78.53    5.24
   9  10  -3   74.82    5.33
  -9 -10   3   71.74    5.59
   9  10  -2   24.32    4.47
  -9 -10   2   26.69    4.63
   9  10  -2   23.66    4.57
   9  10  -1    9.93    4.44
  -9 -10   1    8.56    4.30
   9  10  -1    9.61    4.35
   9  10   0   23.50    4.43
   9  10   0   20.95    4.77
  -9 -10   0   16.13    4.24
   9  11 -18    7.62    4.27
  -9 -11  17   16.33    5.52
   9  11 -17    3.73    4.24
  -9 -11  17    5.21    4.68
  -9 -11  16   -3.34    5.19
   9  11 -16    4.48    4.37
  -9 -11  16   -1.82    4.64
   9  11 -15   -0.87    4.42
  -9 -11  15    0.28    4.96
  -9 -11  15   -4.17    4.84
  -9 -11  14   28.51    5.09
   9  11 -14   20.13    4.65
  -9 -11  13    9.47    4.63
   9  11 -13    9.55    4.50
  -9 -11  12    6.05    4.35
   9  11 -12    5.99    4.46
  -9 -11  11   29.22    4.55
   9  11 -11   20.36    4.82
  -9 -11  10    8.47    4.04
  -9 -11   9   -2.26    3.78
   9  11  -9   -1.46    4.45
  -9 -11   8    8.70    3.63
   9  11  -8    1.85    4.60
   9  11  -7   23.55    4.87
   9  11  -6   45.62    5.19
   9  11  -5    8.11    4.62
   9  11  -4   -1.32    4.61
   9  11  -3   -5.37    4.71
  -9 -11   3    2.95    4.41
   9  11  -2    3.68    4.54
  -9 -11   2    2.82    4.27
   9  11  -1    4.73    4.46
  -9 -11   1    7.65    4.34
  -9 -12  16    6.23    5.42
   9  12 -16   10.29    4.73
  -9 -12  16   13.34    5.06
  -9 -12  15    0.69    4.99
   9  12 -15    2.92    4.65
  -9 -12  14    0.92    4.74
   9  12 -14    0.87    4.68
   9  12 -13    7.02    4.87
  -9 -12  13    5.89    4.73
   9  12 -12   -6.55    4.85
  -9 -12  12    4.16    4.43
  -9 -12  11   26.67    4.68
  -9 -12  10    1.98    4.15
   9  12 -10    9.07    5.03
  -9 -12   9   18.15    4.11
   9  12  -9   16.04    5.12
   9  12  -8   11.89    5.03
   9  12  -7    8.79    4.93
   9  12  -6   -3.38    5.02
   9  12  -5    5.26    4.93
   9  12  -4    1.09    4.88
  -9 -13  14   17.04    5.11
  -9 -13  13   16.18    5.12
  -9 -13  12   18.69    4.92
  -9 -13  11   10.41    4.56
  10 -12  -4   22.97    4.39
  10 -12  -3   10.06    4.52
  10 -12  -2   17.64    5.22
  10 -12  -2    9.26    4.66
  10 -12  -2   16.88    5.86
  10 -12  -1   69.68    5.73
  10 -12   0   32.43    5.46
  10 -12   0   34.51    6.49
  10 -12   1   12.86    5.03
  10 -12   1    0.64    5.14
  10 -12   1   -2.00    5.97
  10 -12   2    7.40    5.01
  10 -12   2   13.05    5.40
  10 -12   2    6.47    6.09
  10 -12   3   12.73    5.13
  10 -12   3   10.21    5.61
  10 -12   3    6.40    6.03
  10 -11  -7   33.31    4.86
  10 -11  -7   33.77    5.34
  10 -11  -6   35.34    5.04
  10 -11  -6   34.34    5.51
 -10  11   6   35.99    6.48
  10 -11  -5   14.17    4.79
  10 -11  -5   17.30    4.05
  10 -11  -5   23.19    5.28
 -10  11   5   19.04    5.98
  10 -11  -4   14.91    4.77
  10 -11  -4   17.11    4.29
  10 -11  -4    9.55    5.33
 -10  11   4   13.59    5.68
  10 -11  -3    2.60    4.69
  10 -11  -3    2.64    4.41
  10 -11  -3    0.29    5.29
 -10  11   3   -0.14    5.33
  10 -11  -2    9.90    5.03
  10 -11  -2   16.53    4.73
  10 -11  -2    7.58    5.59
 -10  11   2   14.04    5.32
  10 -11  -1   18.12    4.87
  10 -11   0   45.96    5.35
  10 -11   0   35.94    6.16
  10 -11   1   68.04    5.79
  10 -11   1   70.40    5.95
  10 -11   1   58.21    6.57
  10 -11   2   38.45    5.46
  10 -11   2   39.62    5.58
  10 -11   2   39.65    6.28
  10 -11   3   40.70    5.40
  10 -11   3   35.82    5.74
  10 -11   3   40.12    6.14
  10 -11   4   12.98    4.97
  10 -11   4   10.06    5.68
  10 -11   5   -5.10    4.94
  10 -11   5    1.92    5.51
  10 -11   6   10.09    4.79
  10 -11   6    3.26    5.28
  10 -11   7   10.01    4.81
  10 -11   7   -0.13    5.29
  10 -10  -9   12.52    4.24
  10 -10  -9   17.49    4.65
  10 -10  -8   14.84    4.29
  10 -10  -8    5.54    4.55
  10 -10  -7    1.12    4.32
  10 -10  -7    5.51    4.61
  10 -10  -6   -1.68    4.39
  10 -10  -6    1.97    3.63
  10 -10  -6   -0.13    4.58
 -10  10   6   -1.81    5.48
  10 -10  -5   23.68    4.98
  10 -10  -5   29.69    4.24
  10 -10  -5   29.76    5.33
 -10  10   5   28.37    5.82
  10 -10  -4   40.78    5.20
  10 -10  -4   32.70    4.38
  10 -10  -4   37.21    5.53
 -10  10   4   26.14    5.70
  10 -10  -3  165.80    7.50
  10 -10  -3  157.34    8.08
 -10  10   3  162.58    8.00
 -10  10   2  123.78    7.03
  10 -10  -1   -0.15    5.22
 -10  10   1   -0.23    4.52
  10 -10   0    0.22    4.68
  10 -10   0   -0.74    5.10
 -10  10   0   -0.43    4.38
  10 -10   1    6.48    4.70
  10 -10   1    1.94    5.14
  10 -10   2   16.47    4.91
  10 -10   2   16.29    5.48
  10 -10   3   90.84    6.14
  10 -10   3   93.74    6.93
  10 -10   4   57.96    5.55
  10 -10   4   53.69    6.15
  10 -10   5   81.95    5.92
  10 -10   5   75.09    6.45
  10 -10   6    1.82    4.57
  10 -10   6    3.32    5.31
  10 -10   6    4.66    5.09
  10 -10   7   10.91    4.65
  10 -10   7   26.65    5.70
  10 -10   7   14.05    5.15
  10 -10   8   -2.72    4.56
  10 -10   8    7.95    4.95
  10  -9 -10   -0.23    3.87
  10  -9 -10    2.43    4.14
  10  -9  -9    5.57    4.13
  10  -9  -9    7.35    4.42
  10  -9  -8   42.82    4.72
  10  -9  -8   37.56    4.90
  10  -9  -7   46.06    4.01
  10  -9  -7   43.03    4.97
  10  -9  -7   48.52    5.11
  10  -9  -6   53.38    4.99
  10  -9  -6   44.54    5.11
 -10   9   6   44.46    5.99
  10  -9  -5   21.14    4.76
 -10   9   5   12.06    5.29
  10  -9  -4   -2.08    4.55
 -10   9   4    0.39    4.92
  10  -9  -3   36.68    5.22
 -10   9   3   37.01    5.19
 -10   9   2   93.68    6.08
  10  -9  -1   46.41    5.53
 -10   9   1   45.72    4.99
  10  -9   0   44.84    5.52
 -10   9   0   41.19    4.62
  10  -9   1   13.82    4.99
 -10   9  -1    7.08    3.87
  10  -9   2    4.56    4.81
  10  -9   3    5.72    4.92
  10  -9   4    2.00    4.71
  10  -9   5   31.38    4.89
  10  -9   5   21.18    5.10
  10  -9   6   42.90    5.11
  10  -9   6   45.45    5.47
  10  -9   7   72.76    5.30
  10  -9   7   54.96    5.65
  10  -9   8   15.33    5.59
  10  -8 -11   29.17    3.99
  10  -8 -11   24.13    4.13
 -10   8  11   26.01    6.45
  10  -8 -10   50.87    4.58
 -10   8  10   43.71    6.53
  10  -8 -10   51.74    4.71
  10  -8  -9   47.73    4.67
  10  -8  -9   58.77    4.96
  10  -8  -8    0.85    4.07
  10  -8  -7   31.74    4.59
 -10   8   7   31.94    5.87
  10  -8  -6   35.66    4.66
 -10   8   6   34.62    5.58
  10  -8  -5   10.14    4.34
 -10   8   5   12.51    4.93
  10  -8  -4   51.39    4.97
 -10   8   4   44.28    5.25
 -10   8   3   49.99    5.22
  10  -8  -2   23.51    4.73
 -10   8   2   30.44    4.57
  10  -8  -1   10.51    4.58
 -10   8   1   10.49    4.04
  10  -8   0    3.25    4.47
 -10   8   0    9.32    3.86
 -10   8  -1   52.19    4.33
  10  -8   1   59.36    5.42
  10  -8   2   77.65    5.86
 -10   8  -2   82.25    4.64
  10  -8   3   51.44    5.40
  10  -8   4   13.00    4.70
  10  -8   5   28.21    4.90
  10  -8   6   13.54    4.64
  10  -8   7   -1.84    4.33
  10  -8   7    3.65    4.49
 -10   7  13    4.66    5.08
  10  -7 -12    9.09    3.59
  10  -7 -12   14.22    3.61
 -10   7  12   13.12    6.16
  10  -7 -11   28.19    4.10
  10  -7 -11   28.09    3.95
 -10   7  11   25.87    6.20
  10  -7 -10   42.18    4.31
 -10   7  10   36.21    6.23
  10  -7  -9   33.46    4.29
  10  -7  -8    7.72    3.92
  10  -7  -7   81.75    5.18
 -10   7   7   65.47    6.10
  10  -7  -6   27.89    4.35
 -10   7   6   31.56    5.13
  10  -7  -5   24.81    4.30
 -10   7   5   21.39    4.68
  10  -7  -4   41.17    4.70
 -10   7   4   40.72    4.85
 -10   7   3   44.35    4.77
  10  -7  -2   66.38    5.20
 -10   7   2   66.72    5.01
  10  -7  -1   61.08    5.13
 -10   7   1   62.24    4.68
  10  -7   0  135.09    6.56
 -10   7   0  122.27    5.71
  10  -7   1   27.50    4.49
 -10   7  -1   34.44    3.74
  10  -7   2   10.63    4.31
 -10   7  -2   14.43    3.26
  10  -7   3    8.00    4.29
  10  -7   4  110.77    6.16
  10  -7   5   57.80    5.30
  10  -7   6   22.19    4.46
  10  -7   7   24.72    4.55
  10  -7   9    0.92    4.14
  10  -6 -14   29.24    4.52
 -10   6  14   26.73    5.67
 -10   6  13   25.65    6.30
 -10   6  13   21.39    5.28
  10  -6 -12   64.17    4.39
 -10   6  12   64.24    6.67
  10  -6 -11   21.76    3.71
 -10   6  11   26.03    5.79
  10  -6 -10   10.39    3.69
  10  -6  -9   -4.94    3.69
 -10   6   9   -2.29    4.95
  10  -6  -8   -2.27    3.70
  10  -6  -7   30.41    4.09
 -10   6   7   25.96    4.81
  10  -6  -6  144.33    6.32
 -10   6   6  135.86    6.89
 -10   6   5  146.03    6.29
  10  -6  -5  134.76    6.31
 -10   6   5  134.99    6.58
 -10   6   4   19.30    3.79
 -10   6   4   18.85    4.13
 -10   6   3    2.19    3.47
 -10   6   3    3.26    3.64
  10  -6  -2    2.57    3.71
 -10   6   2    3.59    3.50
  10  -6  -1   -1.24    3.81
 -10   6   1   -0.60    3.31
 -10   6   0   52.11    4.42
 -10   6   0   54.87    4.07
  10  -6   0   50.64    4.67
  10  -6   1   49.17    4.77
 -10   6  -1   57.12    3.87
  10  -6   2  109.24    5.96
 -10   6  -2  106.14    4.63
  10  -6   3   46.82    4.74
 -10   6  -3   37.87    3.09
  10  -6   4   -3.01    4.10
  10  -6   5    3.49    3.98
  10  -6   6   11.56    4.05
  10  -6   7   40.02    4.40
  10  -6   8    0.61    4.14
  10  -6   9    8.40    4.28
  10  -5 -15    9.60    4.14
 -10   5  15    5.06    5.49
  10  -5 -14   14.91    4.04
 -10   5  14   22.17    6.08
 -10   5  14   10.49    5.38
  10  -5 -13   -1.24    3.57
  10  -5 -13    1.99    3.12
 -10   5  13   -8.85    5.72
 -10   5  13    3.47    4.76
  10  -5 -12   38.88    3.79
 -10   5  12   39.41    5.88
  10  -5 -11   86.82    4.68
 -10   5  11   68.36    6.23
  10  -5 -10  129.54    5.67
  10  -5  -9  112.38    5.35
 -10   5   9   98.49    6.51
 -10   5   8   40.79    4.20
  10  -5  -8   41.60    4.07
 -10   5   7    0.20    3.38
  10  -5  -7   -1.45    3.31
 -10   5   7    3.29    3.98
 -10   5   6    4.30    3.35
  10  -5  -6    4.18    3.42
 -10   5   6   -0.46    3.91
 -10   5   5    0.10    3.32
  10  -5  -5    1.22    3.49
 -10   5   5    5.75    3.64
 -10   5   4   68.51    4.53
 -10   5   4   65.94    4.65
  10  -5  -3  129.58    5.93
 -10   5   3  119.17    5.65
 -10   5   2  146.82    6.25
  10  -5  -2  147.42    6.39
 -10   5   2  137.12    5.88
  10  -5  -1  116.38    5.69
 -10   5   1  108.06    5.08
 -10   5   0   -1.97    3.39
  10  -5   0    2.56    3.66
 -10   5   0    3.64    2.91
 -10   5  -1    1.95    3.35
  10  -5   1    6.15    3.74
 -10   5  -1    4.41    2.80
 -10   5  -2   -3.70    3.33
  10  -5   2    0.62    3.66
 -10   5  -2    1.36    2.57
 -10   5  -3   32.63    3.85
  10  -5   3   34.35    4.26
 -10   5  -3   35.54    2.74
  10  -5   4   72.40    4.86
  10  -5   5   61.20    4.61
  10  -5   6   45.10    4.33
  10  -5   7    5.05    4.00
  10  -5   7    3.37    3.58
  10  -5   8   -0.34    4.18
  10  -5   9    6.56    4.20
  10  -4 -16   29.96    4.48
  10  -4 -15   29.37    4.29
 -10   4  15   43.95    6.40
 -10   4  15   44.11    6.06
  10  -4 -14   52.01    4.45
 -10   4  14   62.59    6.41
 -10   4  14   57.00    6.11
  10  -4 -13   51.32    4.11
  10  -4 -13   51.60    3.83
 -10   4  13   45.17    6.05
  10  -4 -12   29.76    3.49
 -10   4  12   27.92    5.41
 -10   4  11    2.98    3.40
  10  -4 -11    8.89    3.17
 -10   4  10   35.69    4.00
  10  -4 -10   43.18    3.71
 -10   4   9    3.45    3.23
  10  -4  -9    4.02    3.06
 -10   4   8  113.15    5.39
  10  -4  -8  114.04    5.28
 -10   4   7  110.07    5.41
  10  -4  -7  109.30    5.20
 -10   4   6  182.42    6.97
  10  -4  -6  174.95    6.76
 -10   4   5   88.43    4.94
 -10   4   4    7.32    3.26
  10  -4  -3    0.78    3.34
  10  -4  -2   47.44    4.08
  10  -4  -1  109.90    5.34
 -10   4   1   98.04    4.69
  10  -4   0  170.26    6.75
 -10   4   0  159.04    5.92
 -10   4  -1   89.06    4.80
  10  -4   1   83.29    4.96
 -10   4  -1   80.79    3.95
 -10   4  -2   76.80    4.57
  10  -4   2   74.23    4.76
 -10   4  -2   72.42    3.53
 -10   4  -3    1.86    3.18
  10  -4   3   -0.09    3.45
 -10   4  -3    1.14    2.04
 -10   4  -4    4.12    3.31
  10  -4   4    4.70    3.55
 -10   4  -5   25.88    3.62
  10  -4   5   26.31    3.78
  10  -4   6   25.23    3.76
  10  -4   7   70.75    5.04
  10  -4   8   37.74    4.57
  10  -4   9   15.69    4.27
  10  -4  10    6.21    4.26
  10  -3 -16    6.84    3.84
 -10   3  16   -0.91    5.87
 -10   3  16   10.26    5.70
  10  -3 -15    4.40    3.64
 -10   3  15    0.60    5.43
 -10   3  15   -0.17    5.34
  10  -3 -14   17.67    3.55
  10  -3 -14   17.25    2.99
 -10   3  14   20.84    5.29
  10  -3 -13   48.70    3.81
  10  -3 -13   53.33    3.67
 -10   3  12   65.16    4.42
  10  -3 -12   65.38    3.96
  10  -3 -11   46.13    3.65
 -10   3  11   47.71    4.01
 -10   3  10  156.63    6.33
  10  -3 -10  153.64    5.95
 -10   3   9   52.91    4.20
  10  -3  -9   54.42    3.79
 -10   3   8   -0.29    3.23
  10  -3  -8   -1.15    2.84
 -10   3   7    0.78    3.16
  10  -3  -7    3.47    2.91
 -10   3   6   87.22    4.79
  10  -3  -6   92.96    4.73
 -10   3   5  222.85    7.82
 -10   3   4  108.05    5.18
  10  -3  -4  103.55    5.03
  10  -3  -3  162.93    6.37
  10  -3  -2   76.83    4.45
 -10   3   1    5.38    3.04
  10  -3  -1    0.73    3.16
 -10   3   0    7.34    3.11
  10  -3   0    8.39    3.20
  10  -3   1   72.86    4.41
 -10   3  -1   81.96    4.57
 -10   3  -1   68.70    3.51
 -10   3  -2   56.13    4.20
  10  -3   2   62.86    4.21
 -10   3  -2   54.76    3.02
  10  -3   3    4.90    3.30
 -10   3  -3   10.36    1.92
 -10   3  -4   75.98    4.40
  10  -3   4   66.69    4.46
 -10   3  -5   88.62    4.73
  10  -3   5   88.06    4.71
  10  -3   6    5.11    3.91
  10  -3   6    7.19    3.25
  10  -3   7   12.46    4.07
  10  -3   8   -5.93    4.17
  10  -3   9   25.54    4.47
  10  -3  10   16.50    4.42
  10  -2 -17    5.47    3.82
 -10   2  17   -2.51    5.85
 -10   2  17    4.21    5.81
  10  -2 -16   52.82    4.31
 -10   2  16   44.22    6.30
  10  -2 -15   42.64    3.91
  10  -2 -14   39.74    3.67
  10  -2 -14   54.46    3.43
  10  -2 -13   26.07    3.17
 -10   2  13   30.61    3.71
  10  -2 -13   33.58    3.19
  10  -2 -12    1.24    2.57
 -10   2  12   -0.77    3.28
  10  -2 -12    1.91    2.73
 -10   2  11   14.33    3.41
  10  -2 -11   12.91    2.98
 -10   2  10  120.91    5.60
  10  -2 -10  136.37    5.35
 -10   2   9  196.24    7.24
  10  -2  -9  206.88    6.93
 -10   2   8  219.22    7.67
  10  -2  -8  216.54    7.32
 -10   2   7  115.64    5.37
  10  -2  -7  115.82    5.06
 -10   2   6   18.60    3.31
 -10   2   5    4.96    3.03
  10  -2  -4   36.51    3.46
  10  -2  -3  117.28    5.16
  10  -2  -2  168.17    6.35
 -10   2   1  116.14    5.33
  10  -2  -1  113.37    5.16
 -10   2   0   58.86    4.07
  10  -2   0   52.49    3.89
 -10   2  -1   55.23    4.08
  10  -2   1   55.44    3.96
 -10   2  -2   76.49    4.35
  10  -2   2   79.26    4.40
 -10   2  -2   69.80    3.18
 -10   2  -3   -0.93    3.08
  10  -2   3    1.62    3.11
 -10   2  -4   86.22    4.61
  10  -2   4   82.39    4.43
  10  -2   4   77.61    4.87
 -10   2  -5   80.23    4.46
  10  -2   5   77.89    4.31
  10  -2   5   84.96    4.92
 -10   2  -6   48.60    3.87
  10  -2   6   51.26    3.64
  10  -2   6   45.39    4.54
  10  -2   7    9.61    4.06
  10  -2   8   38.43    4.61
  10  -2   9   -1.75    4.23
  10  -1 -18    3.53    3.87
  10  -1 -17   -0.68    3.60
  10  -1 -16    9.39    3.38
  10  -1 -15    0.21    3.00
  10  -1 -15    0.73    2.63
  10  -1 -14   19.65    3.06
 -10   1  14   18.36    3.51
  10  -1 -14   23.99    2.97
  10  -1 -13   61.14    3.61
 -10   1  13   63.47    4.31
  10  -1 -12  106.29    4.25
 -10   1  12  109.76    5.17
  10  -1 -12  100.23    4.53
  10  -1 -11   43.64    2.80
 -10   1  11   48.82    3.95
  10  -1 -11   43.03    3.35
 -10   1  10   27.35    3.61
  10  -1 -10   23.13    2.99
 -10   1   9    8.23    3.28
  10  -1  -9   12.66    2.82
 -10   1   8   36.48    3.69
  10  -1  -8   42.83    3.37
 -10   1   7  334.10   10.58
  10  -1  -7  350.38   10.17
 -10   1   6  156.16    6.26
 -10   1   5   66.73    4.14
  10  -1  -5   63.95    3.97
  10  -1  -4   14.86    3.00
  10  -1  -3   42.08    1.96
  10  -1  -3   49.78    3.61
  10  -1  -2   34.33    1.94
 -10   1   2   30.87    3.62
  10  -1  -2   33.72    3.34
 -10   1   1   26.37    3.40
  10  -1  -1   23.56    3.16
 -10   1   0   93.60    4.88
  10  -1   0   95.24    4.63
 -10   1  -1  313.99    9.74
  10  -1   1  303.35    9.40
 -10   1  -2   91.74    4.84
  10  -1   2  106.55    4.80
 -10   1  -3   66.77    4.25
  10  -1   3   71.62    4.14
  10  -1   3   78.80    4.55
  10  -1   4    7.26    3.56
 -10   1  -4    4.58    3.14
  10  -1   4    3.53    2.92
  10  -1   5    3.27    3.70
 -10   1  -5    8.35    3.20
  10  -1   5    9.06    2.98
  10  -1   6    2.20    3.82
 -10   1  -6    0.47    2.96
  10  -1   7    5.34    4.00
  10  -1   8   40.72    4.65
  10  -1   9   50.02    4.97
  10   0 -18    7.56    3.73
  10   0 -17    0.56    3.45
  10   0 -16   24.15    3.49
  10   0 -15   86.80    4.49
  10   0 -15  100.57    4.24
  10   0 -14    8.55    2.68
 -10   0  14   15.64    3.43
  10   0 -14   14.80    2.83
  10   0 -13    3.70    2.34
 -10   0  13   -4.12    3.20
  10   0 -13    1.57    2.66
  10   0 -12   10.30    2.22
 -10   0  12    6.60    3.34
  10   0 -12    9.39    2.67
  10   0 -11   66.84    3.05
 -10   0  11   67.14    4.35
  10   0 -11   75.46    3.82
  10   0 -10  114.68    3.90
 -10   0  10  116.49    5.37
  10   0 -10  122.08    4.84
 -10   0   9   77.75    4.46
  10   0  -9   81.99    3.97
 -10   0   8   81.98    4.63
  10   0  -8   81.08    4.09
 -10   0   7   21.45    3.34
 -10   0   6    0.70    2.88
  10   0  -5   27.43    3.15
  10   0  -4   82.20    2.60
  10   0  -4   74.56    4.07
  10   0  -3  469.29   11.73
  10   0  -3  472.19   13.14
  10   0  -2  122.22    3.62
 -10   0   2  129.93    5.64
  10   0  -2  130.38    5.18
 -10   0   1   42.82    3.77
  10   0  -1   37.52    3.39
 -10   0   0    9.44    3.10
  10   0   0    5.67    2.77
 -10   0  -1    7.28    3.12
  10   0   1    8.52    2.84
 -10   0  -2   54.79    4.02
  10   0   2   55.94    3.70
  10   0   2   54.65    4.14
  10   0   3   32.14    3.88
 -10   0  -3   39.86    3.67
  10   0   3   38.86    3.42
 -10   0  -4   52.95    3.95
  10   0   4   64.63    3.77
  10   0   4   61.07    4.43
  10   0   5   29.59    4.13
 -10   0  -5   29.65    3.47
  10   0   5   34.35    3.28
  10   0   6   31.32    4.33
 -10   0  -6   22.37    3.36
  10   0   7   21.01    4.27
  10   0   8   -0.95    4.17
  10   1 -19   29.10    4.24
  10   1 -18   34.54    4.02
  10   1 -17   -1.81    3.26
  10   1 -16   21.12    3.27
  10   1 -16   22.65    2.88
  10   1 -15   56.51    3.65
 -10  -1  15   59.91    4.14
  10   1 -15   64.45    3.61
  10   1 -14   82.94    4.01
 -10  -1  14   96.76    4.94
  10   1 -14   97.77    4.24
  10   1 -13   80.87    3.66
 -10  -1  13   81.27    4.72
  10   1 -13   93.97    4.13
  10   1 -12    8.61    2.00
 -10  -1  12    6.64    3.33
  10   1 -12    7.13    2.75
  10   1 -11   11.54    1.84
 -10  -1  11   12.49    3.34
  10   1 -11   15.29    2.78
  10   1 -10    2.29    1.47
  10   1 -10    2.22    2.59
  10   1  -9   42.12    1.96
 -10  -1   9   46.75    3.92
  10   1  -9   47.07    3.33
  10   1  -8   88.68    2.80
 -10  -1   8   96.89    4.96
  10   1  -8  103.82    4.34
  10   1  -7   87.34    2.56
 -10  -1   7  108.92    4.99
 -10  -1   6  235.70    7.21
  10   1  -6  238.18    6.44
  10   1  -5  193.31    6.57
  10   1  -4   27.05    2.99
  10   1  -3  207.09    6.94
 -10  -1   2   76.77    4.57
  10   1  -2   80.30    4.17
 -10  -1   1   90.78    4.86
  10   1  -1   88.65    4.34
  10   1   0   24.06    3.27
 -10  -1   0   22.86    3.40
  10   1   0   29.18    3.17
 -10  -1  -1  101.58    5.12
  10   1   1  112.20    4.74
  10   1   1  109.43    5.07
 -10  -1  -2   66.03    4.27
  10   1   2   71.24    3.96
  10   1   2   76.26    4.50
  10   1   3   10.63    3.55
 -10  -1  -3    8.08    3.16
  10   1   3   13.81    2.99
  10   1   4   24.95    3.94
 -10  -1  -4   20.07    3.38
  10   1   4   24.05    3.14
  10   1   5    4.02    3.83
 -10  -1  -5    5.02    3.01
  10   1   6   24.91    4.28
  10   1   7   52.94    4.95
  10   1   8   14.35    4.51
  10   2 -19   28.88    4.00
  10   2 -18    7.54    3.47
  10   2 -17   12.77    3.25
  10   2 -16   25.31    3.13
  10   2 -16   24.24    2.97
  10   2 -15   -0.58    2.57
 -10  -2  15    1.60    3.28
  10   2 -15    2.35    2.73
  10   2 -14    2.30    2.30
 -10  -2  14    1.70    3.34
  10   2 -14    7.31    2.77
  10   2 -13   -0.80    2.06
 -10  -2  13    0.09    3.22
  10   2 -13    0.89    2.77
  10   2 -12    8.48    1.91
 -10  -2  12    9.74    3.33
  10   2 -12    5.56    2.69
  10   2 -11  198.14    5.71
 -10  -2  11  201.15    7.47
  10   2 -11  213.75    6.72
  10   2 -10   46.62    2.04
 -10  -2  10   46.09    4.01
  10   2 -10   50.06    3.41
  10   2  -9   45.21    1.76
 -10  -2   9   52.08    4.09
 -10  -2   8    2.82    2.96
  10   2  -8    5.67    2.63
 -10  -2   7   -1.90    3.14
  10   2  -6   46.31    3.38
 -10  -2   5   69.88    4.53
  10   2  -5   72.12    3.91
  10   2  -4  153.39    5.68
 -10  -2   3   39.37    3.84
  10   2  -3   45.42    3.41
 -10  -2   2   56.64    4.16
  10   2  -2   57.52    3.68
 -10  -2   1   20.15    3.49
  10   2  -1   19.06    2.96
 -10  -2   0   22.69    3.50
  10   2   0   30.21    3.20
 -10  -2  -1   41.40    3.90
  10   2   1   49.76    3.58
  10   2   1   48.49    3.96
 -10  -2  -2   41.78    3.73
  10   2   2   38.14    3.36
  10   2   2   34.87    3.94
 -10  -2  -3   42.13    3.78
  10   2   3   40.75    3.49
  10   2   3   51.13    4.33
 -10  -2  -4   44.23    3.78
  10   2   4   52.20    3.53
  10   2   4   46.01    4.44
 -10  -2  -5   38.53    3.63
  10   2   5   40.53    4.52
  10   2   6   -1.06    4.10
  10   2   7   10.66    4.48
  10   3 -18   -3.70    3.29
  10   3 -17    6.20    2.96
  10   3 -16   14.42    2.87
 -10  -3  16   14.52    3.52
  10   3 -15   49.75    3.23
 -10  -3  15   47.06    4.14
  10   3 -15   55.22    3.58
  10   3 -14   31.97    2.65
 -10  -3  14   34.91    3.98
  10   3 -14   39.19    3.26
  10   3 -13   98.66    3.80
 -10  -3  13  112.08    5.43
  10   3 -13  115.44    4.68
  10   3 -12   48.09    2.41
 -10  -3  12   51.00    4.27
  10   3 -11    1.39    1.30
 -10  -3  11   -1.67    3.20
  10   3 -11   -2.19    2.68
 -10  -3  10   23.79    3.61
  10   3 -10   29.10    3.04
 -10  -3   9  121.52    5.76
  10   3  -9  125.52    4.98
 -10  -3   8  137.85    6.14
 -10  -3   7   87.10    4.95
  10   3  -6   67.55    3.90
  10   3  -5   14.87    2.93
  10   3  -4   16.10    2.79
  10   3  -4   16.88    2.87
  10   3  -3    0.73    2.64
 -10  -3   3    0.52    3.12
  10   3  -3    1.38    2.76
 -10  -3   2   78.11    4.74
  10   3  -2   74.72    4.09
  10   3  -2   78.14    4.15
 -10  -3   1  112.87    5.57
  10   3  -1  126.18    5.06
 -10  -3   0  140.44    6.25
  10   3   0  165.65    5.84
  10   3   1   11.09    3.46
 -10  -3  -1   11.46    3.30
  10   3   1   10.74    3.08
  10   3   2    1.36    3.45
 -10  -3  -2    4.92    3.26
  10   3   2    2.16    2.89
  10   3   3    0.75    3.67
 -10  -3  -3    1.15    3.15
  10   3   3    0.23    2.93
  10   3   4   13.92    4.06
 -10  -3  -4   11.03    3.30
  10   3   5   48.32    4.83
  10   3   6   31.52    4.71
  10   4 -17    2.50    2.96
 -10  -4  16    2.97    3.42
 -10  -4  15    6.47    3.53
 -10  -4  14    5.82    3.57
  10   4 -14    0.68    2.91
 -10  -4  13  117.18    5.88
  10   4 -13  132.31    5.17
 -10  -4  13  118.69    6.41
 -10  -4  12  158.41    6.66
  10   4 -12  168.32    5.90
 -10  -4  12  148.35    6.81
 -10  -4  11  145.08    6.66
  10   4 -11  163.35    5.89
 -10  -4  11  157.25    6.56
 -10  -4  10   24.98    3.83
  10   4 -10   26.96    3.19
 -10  -4  10   28.34    3.56
 -10  -4   9   -1.61    3.40
  10   4  -9    2.70    2.83
 -10  -4   9   -0.61    2.69
  10   4  -8    4.57    2.26
 -10  -4   8    3.57    3.38
  10   4  -7   42.09    3.41
  10   4  -7   44.77    2.99
 -10  -4   6  180.35    7.51
  10   4  -6  196.58    6.67
  10   4  -6  197.13    6.26
  10   4  -5  109.46    4.75
  10   4  -5  104.95    4.44
 -10  -4   4   32.41    3.90
  10   4  -4   35.28    3.34
  10   4  -4   38.08    3.19
 -10  -4   3   83.69    5.02
  10   4  -3   84.13    4.40
  10   4  -3   95.77    4.34
  10   4  -2    4.42    2.93
 -10  -4   2   -0.93    3.41
  10   4  -2    0.49    2.94
  10   4  -1    2.61    3.06
 -10  -4   1    4.10    3.35
  10   4  -1    3.16    3.02
 -10  -4   0   36.84    3.92
  10   4   0   44.94    3.69
 -10  -4  -1   42.88    4.02
  10   4   1   48.61    3.77
 -10  -4  -2   85.50    4.94
  10   4   2  104.92    5.29
  10   4   3   10.39    3.91
 -10  -4  -3    9.05    3.41
  10   4   4    6.31    4.18
 -10  -4  -4    2.37    3.18
  10   4   5    3.37    4.36
  10   5 -17   39.50    3.64
 -10  -5  16   54.13    4.47
 -10  -5  16   58.93    6.02
 -10  -5  15   10.16    3.68
 -10  -5  15   13.16    4.91
 -10  -5  14   26.33    4.06
 -10  -5  14   27.28    4.71
  10   5 -13    2.17    1.61
 -10  -5  13   -0.89    3.63
  10   5 -13   -2.77    3.06
 -10  -5  13    2.83    3.87
 -10  -5  12   37.00    4.37
  10   5 -12   45.28    3.65
 -10  -5  12   43.44    4.36
  10   5 -12   41.33    2.36
 -10  -5  11   22.80    3.92
  10   5 -11   22.38    3.23
  10   5 -11   21.93    2.19
 -10  -5  11   19.18    3.63
 -10  -5  10   19.53    3.93
  10   5 -10   17.46    3.19
  10   5 -10   23.07    2.34
 -10  -5  10   17.76    3.34
 -10  -5   9   86.52    5.40
 -10  -5   9   92.89    4.58
  10   5  -9  102.90    3.87
 -10  -5   8  125.23    6.14
 -10  -5   8  117.95    4.90
  10   5  -8  136.67    4.66
  10   5  -7   44.49    3.72
 -10  -5   7   35.90    2.76
  10   5  -7   41.16    2.97
  10   5  -6    6.04    2.56
  10   5  -6   14.24    3.16
  10   5  -5   -0.06    2.62
  10   5  -5    0.22    3.00
  10   5  -4   87.61    4.55
  10   5  -4   85.46    4.16
 -10  -5   3   33.51    4.21
  10   5  -3   37.31    3.69
 -10  -5   2   90.18    5.32
  10   5  -2   94.06    4.83
  10   5  -2  102.69    4.79
  10   5  -1   33.69    3.71
 -10  -5   1   30.59    3.98
  10   5  -1   34.91    3.71
 -10  -5   0    7.20    3.48
 -10  -5  -1    4.87    3.38
  10   5   2   -0.43    3.99
 -10  -5  -2    7.38    3.43
  10   5   3    3.09    4.22
 -10  -5  -3    4.40    3.32
  10   5   4   32.45    4.83
 -10  -6  18    0.49    5.55
 -10  -6  17   -1.16    3.67
  10   6 -17   -1.71    3.21
 -10  -6  17    2.62    5.26
  10   6 -16    0.12    3.24
 -10  -6  16    4.65    3.74
 -10  -6  16   -1.59    4.98
  10   6 -15   29.31    3.69
 -10  -6  15   26.32    4.22
 -10  -6  15   32.73    5.11
 -10  -6  14  116.37    6.11
 -10  -6  14  109.13    6.41
 -10  -6  13   17.23    4.05
 -10  -6  13   20.72    4.31
 -10  -6  12   54.57    4.74
 -10  -6  12   50.75    4.59
  10   6 -12   49.44    2.43
 -10  -6  11   86.58    5.46
 -10  -6  11   80.91    4.93
  10   6 -11   93.20    3.41
 -10  -6  10   27.37    3.54
 -10  -6  10   26.00    4.24
  10   6 -10   35.34    3.68
  10   6 -10   33.88    2.52
 -10  -6   9   13.06    3.00
  10   6  -9   20.94    2.46
 -10  -6   9   19.61    4.12
 -10  -6   8   53.87    4.88
  10   6  -8   65.00    4.30
 -10  -6   8   57.67    3.57
  10   6  -8   68.97    3.37
  10   6  -7  105.21    5.11
 -10  -6   7  101.51    4.22
  10   6  -6  125.38    5.49
 -10  -6   6  116.19    4.23
 -10  -6   5   67.60    5.14
  10   6  -5   81.21    4.57
  10   6  -5   81.08    4.12
 -10  -6   4   58.19    4.88
  10   6  -4   70.66    4.01
  10   6  -3   14.72    3.23
 -10  -6   3   13.40    3.87
  10   6  -2   20.16    3.57
 -10  -6   2   19.91    4.01
  10   6  -1   33.93    3.85
 -10  -6   1   32.16    4.21
  10   6   0   31.58    4.21
 -10  -6   0   34.90    4.12
  10   6   1   67.57    4.53
 -10  -6  -1   64.62    4.64
 -10  -6  -2   11.30    3.63
  10   6   2   16.64    3.62
  10   6   3    5.56    4.41
 -10  -6  -3    4.63    3.41
  10   7 -18   10.31    3.47
 -10  -7  18    7.00    5.55
 -10  -7  17    7.65    4.00
  10   7 -17    9.42    3.47
 -10  -7  17   12.11    5.48
 -10  -7  16   18.46    4.24
  10   7 -16   22.29    3.67
 -10  -7  16   25.73    5.26
  10   7 -15   24.41    3.81
 -10  -7  15   20.90    4.36
 -10  -7  15   22.99    4.94
 -10  -7  14   -2.02    4.26
  10   7 -14   -3.18    3.64
 -10  -7  14   -1.21    4.11
 -10  -7  13   25.31    4.50
 -10  -7  13   26.25    4.44
 -10  -7  12  131.46    6.62
 -10  -7  12  132.38    6.27
  10   7 -12  119.61    3.94
 -10  -7  11   43.12    4.86
 -10  -7  11   47.76    4.29
  10   7 -11   45.26    2.60
 -10  -7  10   68.60    5.49
 -10  -7  10   74.39    4.57
  10   7 -10   79.77    3.39
 -10  -7   9   49.78    5.09
 -10  -7   9   57.72    3.99
  10   7  -9   60.27    3.19
 -10  -7   8   26.65    3.06
  10   7  -8   29.13    2.84
 -10  -7   7   -0.11    2.42
  10   7  -7   -2.91    2.63
 -10  -7   6   44.14    2.78
  10   7  -6   55.74    3.51
 -10  -7   5   56.31    5.02
  10   7  -5   61.43    3.86
 -10  -7   4   97.19    6.06
  10   7  -4  126.75    5.25
 -10  -7   3   56.19    4.95
  10   7  -3   69.97    4.41
  10   7  -2   23.81    3.93
  10   7  -2   26.49    4.11
 -10  -7   2   29.98    4.33
  10   7  -1   11.69    3.93
  10   7  -1    5.19    3.74
 -10  -7   1    4.47    3.87
  10   7   0    1.33    4.03
 -10  -7   0    0.21    3.75
  10   7   0    2.42    3.66
 -10  -7  -1   11.90    3.86
  10   7   1   24.05    3.80
 -10  -7  -2    2.96    3.67
  10   8 -18   -2.99    3.52
 -10  -8  18    0.94    5.50
 -10  -8  17   -1.71    4.29
  10   8 -17    7.46    3.65
 -10  -8  17    7.23    5.29
 -10  -8  16    8.00    5.07
 -10  -8  16   15.62    4.41
  10   8 -16   14.28    3.74
 -10  -8  15    8.38    4.81
  10   8 -15   11.24    3.75
 -10  -8  15    6.07    4.28
 -10  -8  14   24.62    4.89
  10   8 -14   22.66    4.07
 -10  -8  14   28.68    4.76
 -10  -8  13    1.52    4.14
  10   8 -13    3.12    3.71
 -10  -8  13    2.78    4.12
 -10  -8  12    7.15    3.93
  10   8 -12    2.65    3.83
 -10  -8  12    7.53    4.35
 -10  -8  11    0.89    3.50
  10   8 -11    0.84    2.06
  10   8 -11    0.08    3.75
 -10  -8  11   -0.41    4.31
 -10  -8  10   13.91    3.54
  10   8 -10   11.06    2.42
 -10  -8  10   18.32    4.45
 -10  -8   9   23.54    3.39
  10   8  -9   22.31    2.76
 -10  -8   9   16.01    4.53
  10   8  -8   43.92    4.48
 -10  -8   8   40.48    3.46
  10   8  -8   41.63    3.24
  10   8  -7   83.37    5.22
 -10  -8   7   81.28    4.04
  10   8  -6   46.59    4.52
  10   8  -6   51.20    3.71
  10   8  -5   -2.28    3.18
  10   8  -5    2.97    3.97
 -10  -8   5   -6.17    4.26
  10   8  -4    2.85    3.43
  10   8  -4   -0.08    3.98
 -10  -8   4    0.13    4.16
  10   8  -3    2.53    3.62
  10   8  -3    2.19    3.89
 -10  -8   3    4.93    4.06
  10   8  -2   17.92    4.03
  10   8  -2   10.18    3.99
 -10  -8   2   10.35    4.20
  10   8  -1   34.53    4.60
 -10  -8   1   40.67    4.66
  10   8  -1   33.53    4.33
  10   8   0   10.25    4.39
 -10  -8   0   16.54    4.20
  10   8   0   12.30    3.97
  10   8   1   12.02    4.59
 -10  -8  -1   19.97    4.06
  10   9 -18    5.33    3.93
 -10  -9  18    5.63    5.58
 -10  -9  17   -0.15    5.25
 -10  -9  17    2.42    4.40
  10   9 -17    4.89    3.94
 -10  -9  16    1.15    5.06
 -10  -9  16    6.30    4.60
  10   9 -16   -1.29    3.93
 -10  -9  15   -0.13    4.83
 -10  -9  15    5.02    4.40
  10   9 -15    8.69    3.98
 -10  -9  14    0.63    4.52
 -10  -9  14    2.58    4.50
  10   9 -14    4.78    3.95
 -10  -9  13   -1.18    4.23
 -10  -9  13    3.32    4.61
  10   9 -13    5.41    4.01
  10   9 -12   63.65    5.00
 -10  -9  12   63.75    5.93
 -10  -9  12   72.83    5.23
  10   9 -11   73.77    3.48
  10   9 -11   85.48    5.24
 -10  -9  11   75.51    6.14
 -10  -9  11   86.23    5.23
 -10  -9  10   23.67    3.85
  10   9 -10   14.91    2.65
 -10  -9  10   24.07    4.94
 -10  -9   9    4.97    3.30
  10   9  -9    6.13    2.73
  10   9  -9    6.41    4.02
 -10  -9   8    4.70    3.03
  10   9  -8    6.01    2.92
  10   9  -8   -0.26    4.09
  10   9  -7   18.69    3.26
  10   9  -7   19.48    4.25
  10   9  -6   -0.89    3.28
  10   9  -6    0.61    4.14
 -10  -9   6    5.18    4.55
  10   9  -5   86.81    4.86
  10   9  -5   77.99    5.39
 -10  -9   5   76.09    5.87
  10   9  -4  131.10    5.96
  10   9  -4  127.77    6.28
 -10  -9   4  124.86    6.88
  10   9  -3   32.94    4.34
 -10  -9   3   27.33    4.77
  10   9  -3   29.95    4.44
  10   9  -2    0.72    4.09
 -10  -9   2   -0.12    4.17
  10   9  -2   -2.54    4.17
  10   9  -1   -2.17    4.25
 -10  -9   1    1.23    4.07
  10   9  -1    0.08    4.18
  10   9   0    8.72    4.63
 -10  -9   0   12.83    4.14
  10   9   0   13.57    4.16
  10  10 -18    8.03    4.13
 -10 -10  17    6.30    5.53
 -10 -10  17    7.70    4.60
  10  10 -17   14.46    4.26
 -10 -10  16   22.56    5.45
 -10 -10  16   20.87    5.06
  10  10 -16   19.31    4.47
 -10 -10  15   21.04    5.20
 -10 -10  15   27.79    5.15
  10  10 -15   22.83    4.53
 -10 -10  14    9.97    4.74
 -10 -10  14   12.21    4.94
  10  10 -14    8.29    4.30
 -10 -10  13    5.39    4.37
 -10 -10  13   10.87    4.85
  10  10 -13   -0.35    4.23
 -10 -10  12    1.00    4.14
 -10 -10  12    4.13    4.78
  10  10 -12    5.00    4.29
 -10 -10  11    5.70    3.94
 -10 -10  11   -3.12    4.84
 -10 -10  10   24.18    4.03
  10  10 -10   20.88    2.90
 -10 -10  10   21.29    5.21
  10  10  -9   39.15    3.47
  10  10  -9   44.21    5.09
 -10 -10   9   52.54    4.19
  10  10  -8    7.12    3.19
  10  10  -8   11.25    4.49
  10  10  -7    5.31    3.39
 -10 -10   7    4.03    4.70
  10  10  -7   11.49    4.42
  10  10  -6    1.71    3.57
 -10 -10   6   -1.40    4.69
  10  10  -6   -0.37    4.48
  10  10  -5    7.04    3.82
 -10 -10   5    0.68    4.61
  10  10  -5   -3.23    4.49
  10  10  -4    8.54    3.97
 -10 -10   4    4.18    4.49
  10  10  -4    4.26    4.52
  10  10  -3   35.96    4.83
 -10 -10   3   39.91    5.22
  10  10  -3   41.34    5.01
  10  10  -2   41.19    5.04
 -10 -10   2   32.68    5.01
  10  10  -2   38.08    4.88
 -10 -10   1   27.42    4.70
  10  10  -1   20.82    4.66
 -10 -10   0    0.53    4.11
 -10 -11  16    2.55    5.12
 -10 -11  16    7.94    4.97
  10  11 -16   -1.93    4.61
 -10 -11  15   20.70    5.23
 -10 -11  15   18.58    5.38
  10  11 -15   19.77    4.75
 -10 -11  14    3.97    4.65
 -10 -11  14    2.66    5.01
  10  11 -14    3.79    4.52
 -10 -11  13    2.28    4.48
 -10 -11  13    0.15    5.05
  10  11 -13   -3.79    4.65
 -10 -11  12   -1.00    4.29
 -10 -11  12    9.33    5.15
  10  11 -12    6.26    4.61
 -10 -11  11    6.36    4.07
 -10 -11  10    2.06    3.79
  10  11 -10   -4.73    4.85
  10  11  -9   -1.48    4.75
  10  11  -8    0.99    4.75
  10  11  -7   20.39    3.75
 -10 -11   7   22.71    5.31
  10  11  -7   17.46    5.02
  10  11  -6   11.70    3.84
 -10 -11   6   -1.72    4.87
  10  11  -6    0.98    4.73
  10  11  -5   12.33    4.14
 -10 -11   5   19.90    5.19
  10  11  -5   10.37    4.88
  10  11  -4    8.46    4.33
 -10 -11   4    5.69    4.75
  10  11  -4    9.84    4.78
  10  11  -3    5.36    4.62
  10  11  -3    4.18    4.40
 -10 -11   3    6.98    4.73
 -10 -12  15   13.08    5.14
 -10 -12  14    1.15    4.81
 -10 -12  13    3.34    4.47
 -10 -12  13    2.18    5.10
 -10 -12  12    7.91    4.43
  10  12 -12    5.21    4.95
  10  12 -10    1.57    5.00
  10  12  -9   17.37    5.26
  10  12  -8    9.16    5.22
  11 -11  -5   21.25    4.47
  11 -11  -4    4.92    4.98
  11 -11  -4   -1.22    4.58
  11 -11  -4    2.96    5.31
 -11  11   4    2.00    5.57
  11 -11  -3   -0.23    5.13
  11 -11  -3   -1.59    4.60
  11 -11  -3   -3.52    5.72
 -11  11   3   -3.94    5.43
  11 -11  -2    7.24    4.88
 -11  11   2    7.76    5.38
  11 -11  -1   34.59    5.41
  11 -11  -1   45.31    6.56
  11 -11   0   54.63    5.89
  11 -11   0   52.34    5.81
  11 -11   0   48.77    6.56
  11 -11   1   72.41    6.39
  11 -11   1   92.55    6.49
  11 -11   1   91.04    7.35
  11 -11   2  112.49    6.92
  11 -11   2  100.82    6.93
  11 -11   2   96.45    7.52
  11 -11   3   21.81    5.36
  11 -11   3   21.56    5.95
  11 -10  -8   -1.68    4.92
  11 -10  -7   26.38    4.97
  11 -10  -7   21.04    5.24
  11 -10  -6   33.39    5.31
  11 -10  -6   36.81    4.45
  11 -10  -6   37.86    5.59
 -11  10   6   27.52    6.36
  11 -10  -5   30.37    5.21
  11 -10  -5   27.71    4.42
  11 -10  -5   29.02    5.53
 -11  10   5   15.79    5.83
  11 -10  -4   38.80    5.51
  11 -10  -4   48.70    5.92
 -11  10   4   41.56    6.06
  11 -10  -3  110.65    6.84
 -11  10   3  106.60    7.06
 -11  10   2   52.79    5.77
  11 -10  -1   11.66    5.55
 -11  10   1   -3.76    4.71
  11 -10   0   13.05    5.07
  11 -10   0   20.04    5.69
 -11  10   0   17.83    4.68
  11 -10   1   81.65    6.15
  11 -10   1   77.47    6.75
  11 -10   2   87.86    6.37
  11 -10   2   78.89    6.89
  11 -10   3   21.86    5.19
  11 -10   3   22.20    5.73
  11 -10   4   57.94    5.90
  11 -10   4   60.01    6.34
  11 -10   5   10.91    5.03
  11 -10   5    3.07    5.27
  11 -10   6    3.72    4.79
  11 -10   6    6.87    5.31
  11  -9 -10    1.91    4.13
  11  -9 -10    6.05    4.34
  11  -9  -9   20.39    4.61
  11  -9  -9   18.51    4.78
  11  -9  -8   58.14    5.38
  11  -9  -8   48.94    5.46
 -11   9   8   46.30    6.71
  11  -9  -7   14.32    4.74
  11  -9  -7   24.58    5.01
 -11   9   7   19.86    5.95
  11  -9  -6   24.25    5.02
 -11   9   6   24.51    5.86
 -11   9   5   -5.23    5.41
  11  -9  -5    0.53    4.81
  11  -9  -4   10.17    4.96
 -11   9   4    8.40    5.27
 -11   9   3   66.97    5.93
 -11   9   2   86.88    6.14
  11  -9  -1   89.94    6.61
 -11   9   1   77.19    5.67
  11  -9   0   13.25    5.20
 -11   9   0   19.74    4.44
  11  -9   1   12.47    5.21
 -11   9  -1    9.08    4.09
  11  -9   2   22.32    5.50
  11  -9   3    5.75    5.24
  11  -9   4   27.81    5.51
  11  -9   5   16.69    5.04
  11  -9   5   18.09    5.28
  11  -9   6   49.49    5.43
  11  -9   6   54.50    5.82
  11  -9   7   79.80    5.84
  11  -9   7   73.58    6.10
  11  -8 -11   25.89    4.33
  11  -8 -11   25.73    4.26
  11  -8 -10    8.32    4.19
  11  -8 -10    6.47    4.29
  11  -8  -9   10.21    4.44
  11  -8  -8    1.50    4.42
 -11   8   8   -7.86    5.88
  11  -8  -7   30.74    4.93
 -11   8   7   32.23    5.99
  11  -8  -6   64.77    5.62
 -11   8   6   66.22    6.38
  11  -8  -5   88.76    6.08
 -11   8   5   87.81    6.50
  11  -8  -4  167.97    7.88
 -11   8   4  171.28    7.97
 -11   8   3    2.38    4.68
  11  -8  -2    1.22    4.57
 -11   8   2    1.66    4.28
  11  -8  -1   -0.14    4.78
 -11   8   1   -0.20    4.14
  11  -8   0   33.99    5.33
 -11   8   0   35.99    4.42
  11  -8   1  201.94    8.69
 -11   8  -1  199.00    7.39
  11  -8   2  108.61    6.72
  11  -8   3   63.13    5.88
  11  -8   4   17.83    5.12
  11  -8   5    0.50    4.82
  11  -8   6    7.58    4.61
  11  -8   6    4.33    4.68
  11  -7 -12   -1.44    3.99
  11  -7 -12   -0.42    3.82
  11  -7 -11   22.68    4.16
 -11   7  11   19.94    6.35
  11  -7 -10   62.99    4.96
  11  -7  -9   45.03    4.74
  11  -7  -8   16.22    4.33
 -11   7   8   10.00    5.40
  11  -7  -7   12.28    4.31
 -11   7   7    4.87    5.29
  11  -7  -6   12.99    4.26
 -11   7   6   14.73    4.97
  11  -7  -5   27.17    4.57
 -11   7   5   24.63    5.02
 -11   7   4  109.48    6.43
 -11   7   3   38.00    4.89
  11  -7  -2   64.76    5.53
 -11   7   2   67.70    5.20
  11  -7  -1   51.56    5.29
 -11   7   1   56.81    4.73
  11  -7   0   45.97    5.30
 -11   7   0   40.35    4.26
  11  -7   1    6.84    4.60
 -11   7  -1    2.90    3.51
  11  -7   2   27.38    4.94
 -11   7  -2   22.71    3.49
  11  -7   3  133.91    7.08
  11  -7   4   46.54    5.22
  11  -7   5   52.36    5.37
  11  -7   6   10.48    4.54
  11  -7   8    3.95    4.48
 -11   6  13   25.26    6.32
  11  -6 -12   35.68    4.12
 -11   6  12   26.51    6.21
  11  -6 -11   20.07    3.96
  11  -6 -10   -3.32    3.76
 -11   6  10   -3.09    5.57
  11  -6  -9   19.68    4.10
  11  -6  -8   20.72    4.20
 -11   6   8   21.13    5.26
  11  -6  -7   26.54    4.24
 -11   6   7   24.68    5.14
 -11   6   6   28.38    4.30
  11  -6  -6   30.09    4.44
 -11   6   6   25.12    4.92
 -11   6   5   43.93    4.61
  11  -6  -5   42.95    4.81
 -11   6   5   35.70    4.96
 -11   6   4   18.50    4.13
 -11   6   4   16.00    4.24
  11  -6  -3    5.82    4.24
 -11   6   3   15.11    4.09
 -11   6   2    8.30    4.13
  11  -6  -2    7.95    4.24
 -11   6   2   13.49    3.94
  11  -6  -1   36.44    4.84
 -11   6   1   36.16    4.13
 -11   6   0   40.33    4.53
  11  -6   0   41.65    5.06
 -11   6   0   43.48    4.05
  11  -6   1   88.88    5.90
 -11   6  -1   96.98    4.75
  11  -6   2   82.56    5.66
 -11   6  -2   80.05    4.14
  11  -6   3   28.97    4.76
  11  -6   4    7.07    4.41
  11  -6   5   17.09    4.41
  11  -6   6   51.30    4.90
  11  -6   8   10.48    4.53
  11  -5 -14   11.50    3.88
 -11   5  14   14.24    6.22
  11  -5 -13    8.16    3.64
  11  -5 -13   13.58    3.56
 -11   5  13   12.57    5.84
  11  -5 -12   61.20    4.44
 -11   5  12   56.94    6.51
  11  -5 -11   74.71    4.75
  11  -5 -10   17.23    3.80
 -11   5   9   26.82    4.30
  11  -5  -9   36.39    4.13
 -11   5   8   25.46    4.25
  11  -5  -8   26.73    4.08
 -11   5   8   35.15    5.05
 -11   5   7    9.51    3.96
  11  -5  -7   15.96    3.85
 -11   5   7    6.41    4.44
 -11   5   6   17.72    3.96
  11  -5  -6    8.76    3.78
 -11   5   6    8.13    4.21
 -11   5   5   51.56    4.70
 -11   5   5   61.17    4.90
 -11   5   4   87.80    5.27
 -11   5   4   75.77    5.22
  11  -5  -3   67.18    5.04
 -11   5   3   68.52    4.72
  11  -5  -2  131.88    6.42
 -11   5   2  120.52    5.72
 -11   5   1   60.91    4.83
  11  -5  -1   60.37    5.01
 -11   5   1   55.44    4.22
 -11   5   0   15.67    3.88
  11  -5   0   12.19    4.23
 -11   5   0    8.89    3.30
 -11   5  -1    4.66    3.74
  11  -5   1    6.46    4.06
 -11   5  -1    2.99    3.04
 -11   5  -2   20.18    4.05
  11  -5   2   16.90    4.23
 -11   5  -2   17.56    2.93
 -11   5  -3  121.85    5.84
  11  -5   3  108.63    6.01
  11  -5   4  150.61    6.74
  11  -5   5   66.60    5.00
  11  -5   6   -0.36    3.90
  11  -5   7    3.51    4.36
  11  -5   8   49.85    5.20
  11  -4 -15   20.15    3.90
 -11   4  15   14.78    6.20
  11  -4 -14   53.45    4.36
  11  -4 -14   57.16    3.96
 -11   4  14   61.62    6.69
  11  -4 -13   11.35    3.40
  11  -4 -13   12.18    3.44
 -11   4  13   16.40    5.60
  11  -4 -12    5.89    3.46
 -11   4  12   11.67    5.28
 -11   4  11    8.35    3.87
  11  -4 -11   -0.75    3.43
 -11   4  10    8.33    3.88
  11  -4 -10    0.26    3.48
 -11   4   9   69.51    4.87
  11  -4  -9   68.77    4.64
 -11   4   8   99.01    5.44
  11  -4  -8   89.22    5.09
 -11   4   7  150.61    6.55
  11  -4  -7  138.67    6.18
 -11   4   6   19.93    3.89
  11  -4  -6   13.62    3.68
 -11   4   5    2.25    3.59
 -11   4   4    2.26    3.70
  11  -4  -4   -2.30    3.74
 -11   4   3    2.81    3.75
  11  -4  -3    6.84    3.71
  11  -4  -2   61.58    4.79
 -11   4   1   82.25    5.03
  11  -4  -1   73.65    5.06
 -11   4   1   70.75    4.26
 -11   4   0   75.72    4.88
  11  -4   0   70.19    4.99
 -11   4   0   66.74    4.04
 -11   4  -1  115.64    5.68
  11  -4   1  115.15    5.83
 -11   4  -1  104.51    4.59
 -11   4  -2   16.41    3.79
  11  -4   2   13.08    3.93
 -11   4  -2   12.07    2.63
 -11   4  -3    1.26    3.67
  11  -4   3    1.17    3.80
 -11   4  -4    3.04    3.64
  11  -4   4    3.44    3.87
  11  -4   5   52.45    4.60
  11  -4   6   92.38    5.78
  11  -4   7   25.94    4.62
  11  -4   8    1.52    4.41
  11  -3 -16   -2.18    3.64
 -11   3  16   -4.09    5.87
  11  -3 -15    7.22    3.52
 -11   3  15    7.52    5.71
  11  -3 -14   21.56    3.46
  11  -3 -14   26.66    3.40
  11  -3 -13   49.91    3.79
 -11   3  13   62.50    4.63
  11  -3 -13   61.46    4.05
 -11   3  12   80.45    5.03
  11  -3 -12   81.08    4.57
 -11   3  11   72.94    5.02
  11  -3 -11   85.41    4.68
 -11   3  10   57.76    4.67
  11  -3 -10   57.14    4.15
 -11   3   9   -6.48    3.83
  11  -3  -9   -0.88    3.23
 -11   3   8   29.32    4.08
  11  -3  -8   32.57    3.74
 -11   3   7    5.44    3.65
  11  -3  -7    4.37    3.28
 -11   3   6   47.03    4.33
 -11   3   5   75.26    4.88
  11  -3  -4  104.70    5.39
  11  -3  -3  133.46    6.02
  11  -3  -2    9.84    3.50
 -11   3   1    1.80    3.53
  11  -3  -1   -1.28    3.49
 -11   3   0   12.29    3.69
  11  -3   0   18.13    3.74
 -11   3  -1   22.88    3.93
  11  -3   1   27.68    3.98
 -11   3  -1   25.64    2.87
 -11   3  -2   51.46    4.38
  11  -3   2   57.29    4.59
 -11   3  -2   49.71    3.04
 -11   3  -3   35.56    4.04
  11  -3   3   35.78    4.13
 -11   3  -4   31.62    3.94
  11  -3   4   21.47    3.89
  11  -3   5   17.43    4.27
 -11   3  -5   18.98    3.73
  11  -3   5   18.66    3.67
  11  -3   6   40.28    4.77
  11  -3   7    1.63    4.27
  11  -3   8   45.11    4.97
  11  -2 -17   20.03    3.90
  11  -2 -16   45.53    4.11
  11  -2 -15   34.83    3.67
  11  -2 -15   36.06    3.40
  11  -2 -14   10.16    3.06
 -11   2  14    7.32    3.61
  11  -2 -14   12.52    3.14
  11  -2 -13    6.05    2.76
 -11   2  13    5.92    3.58
  11  -2 -13    5.67    3.04
  11  -2 -12   33.18    3.00
 -11   2  12   42.27    4.23
  11  -2 -12   36.04    3.57
 -11   2  11   31.50    4.08
  11  -2 -11   20.15    3.42
 -11   2  10   58.64    4.59
  11  -2 -10   61.28    4.13
 -11   2   9   71.14    4.76
  11  -2  -9   75.26    4.39
 -11   2   8  145.25    6.42
  11  -2  -8  149.07    6.00
 -11   2   7  135.73    6.19
  11  -2  -7  141.07    5.91
 -11   2   6   -2.21    3.45
 -11   2   5   27.70    3.92
  11  -2  -5   23.12    3.61
  11  -2  -4   79.99    4.76
  11  -2  -3   91.81    4.94
 -11   2   2   94.30    5.22
  11  -2  -2   85.28    5.03
 -11   2   1   92.91    5.11
  11  -2  -1   83.88    4.88
 -11   2   0   68.98    4.72
  11  -2   0   59.78    4.39
 -11   2  -1    9.13    3.48
  11  -2   1    4.53    3.41
 -11   2  -2    9.07    3.55
  11  -2   2   11.68    3.61
 -11   2  -3   28.29    3.91
  11  -2   3   18.58    3.67
 -11   2  -4   71.87    4.67
  11  -2   4   75.16    4.57
  11  -2   4   78.06    5.23
 -11   2  -5   67.77    4.53
  11  -2   5   71.57    4.39
  11  -2   5   69.35    5.24
  11  -2   6   18.05    4.49
 -11   2  -6   18.79    3.57
  11  -2   7   21.77    4.55
  11  -2   8   12.75    4.63
  11  -1 -18    2.19    3.72
  11  -1 -17    1.51    3.50
  11  -1 -16    3.41    3.20
  11  -1 -15   20.41    3.14
  11  -1 -15   20.90    3.18
  11  -1 -14   42.53    3.35
 -11   1  14   39.81    4.30
  11  -1 -14   47.62    3.65
  11  -1 -13   14.03    2.68
 -11   1  13   15.35    3.79
  11  -1 -13   13.70    3.13
  11  -1 -12   36.46    2.84
 -11   1  12   41.38    4.25
  11  -1 -12   41.55    3.54
  11  -1 -11   73.55    3.41
 -11   1  11   82.35    4.94
  11  -1 -11   83.82    4.42
 -11   1  10    1.38    3.47
  11  -1 -10   -1.64    3.08
 -11   1   9   11.53    3.65
  11  -1  -9   11.87    3.19
 -11   1   8  144.54    6.49
  11  -1  -8  161.71    6.11
 -11   1   7  240.88    8.60
 -11   1   6   92.89    5.28
  11  -1  -5   63.64    4.16
  11  -1  -4   14.03    3.30
  11  -1  -3    1.23    3.15
 -11   1   2   22.79    3.76
  11  -1  -2   21.47    3.42
 -11   1   1   10.41    3.45
  11  -1  -1   14.55    3.35
 -11   1   0  121.88    5.80
  11  -1   0  112.66    5.39
 -11   1  -1   34.97    3.96
  11  -1   1   41.04    3.86
 -11   1  -2   75.44    4.75
  11  -1   2   79.18    4.62
 -11   1  -3   44.62    4.16
  11  -1   3   39.69    3.90
  11  -1   3   51.42    4.43
  11  -1   4   15.83    4.23
 -11   1  -4   11.05    3.63
  11  -1   4    9.40    3.34
  11  -1   5   33.08    4.63
 -11   1  -5   33.92    3.91
  11  -1   6   10.94    4.38
  11  -1   7    2.44    4.33
  11   0 -18   27.51    3.90
  11   0 -17    9.16    3.44
  11   0 -16   12.14    3.14
  11   0 -16    2.22    2.94
  11   0 -15   12.86    2.95
 -11   0  15   12.16    3.69
  11   0 -14    5.42    2.54
 -11   0  14    5.70    3.48
  11   0 -14   -0.25    3.01
  11   0 -13    3.50    2.32
 -11   0  13    3.93    3.59
  11   0 -13   -1.38    2.94
  11   0 -12   90.54    3.73
 -11   0  12  105.56    5.45
  11   0 -12  103.02    4.59
  11   0 -11  105.03    3.86
 -11   0  11  112.63    5.67
  11   0 -11  118.70    4.96
  11   0 -10  100.20    3.57
 -11   0  10  113.82    5.59
  11   0 -10  113.67    4.91
  11   0  -9   48.27    2.27
 -11   0   9   52.57    4.42
  11   0  -9   55.14    3.83
 -11   0   8    9.34    3.57
  11   0  -8   12.89    3.05
 -11   0   7    2.15    3.46
 -11   0   6   17.53    3.73
  11   0  -6   18.05    3.24
  11   0  -5   78.46    4.43
  11   0  -4  144.35    5.81
 -11   0   3  167.79    7.00
  11   0  -3  170.73    6.39
 -11   0   2   51.32    4.37
  11   0  -2   48.12    3.91
 -11   0   1    3.27    3.46
  11   0  -1   -0.49    3.05
 -11   0   0   16.41    3.57
  11   0   0   15.45    3.35
  11   0   1    2.89    3.42
 -11   0  -1   -0.79    3.36
  11   0   1    2.37    3.20
 -11   0  -2   51.40    4.31
  11   0   2   55.44    4.00
  11   0   2   58.98    4.54
  11   0   3   83.82    4.52
  11   0   3   91.87    5.14
  11   0   4   35.40    4.46
 -11   0  -4   28.69    3.90
  11   0   4   40.54    3.64
  11   0   5   10.35    4.24
 -11   0  -5   11.46    3.58
  11   0   6   61.16    5.16
  11   0   7    0.72    4.36
  11   1 -17    2.43    3.17
  11   1 -16   26.18    3.32
  11   1 -16   34.30    3.32
  11   1 -15   42.20    3.29
 -11  -1  15   52.40    4.38
  11   1 -15   48.32    3.64
  11   1 -14   29.17    2.88
 -11  -1  14   36.87    4.12
  11   1 -14   39.86    3.50
  11   1 -13    6.71    2.21
 -11  -1  13    9.09    3.69
  11   1 -13   10.27    2.99
  11   1 -12    1.67    1.90
 -11  -1  12    0.21    3.60
  11   1 -12   -0.55    2.94
  11   1 -11    1.86    1.65
 -11  -1  11    2.51    3.46
  11   1 -11    2.05    2.87
  11   1 -10   11.44    1.53
 -11  -1  10   19.81    3.77
  11   1 -10   16.21    3.05
 -11  -1   9   69.22    4.77
  11   1  -9   74.77    3.99
 -11  -1   8   90.67    5.00
  11   1  -8   82.85    4.22
 -11  -1   7   74.78    4.95
  11   1  -6   72.66    4.21
 -11  -1   5   31.16    4.04
  11   1  -5   27.82    3.37
  11   1  -4   -2.86    2.97
 -11  -1   3   62.47    4.72
  11   1  -3   61.06    4.10
 -11  -1   2   70.73    4.76
  11   1  -2   64.81    4.12
 -11  -1   1  216.17    8.01
  11   1  -1  217.20    7.38
 -11  -1   0  106.87    5.56
  11   1   0  115.79    5.15
  11   1   0  118.90    5.44
  11   1   1   29.46    3.97
 -11  -1  -1   19.43    3.81
  11   1   1   21.18    3.38
  11   1   2    1.98    3.63
 -11  -1  -2    0.09    3.41
  11   1   2    2.27    3.10
  11   1   3    1.85    3.94
 -11  -1  -3    3.86    3.41
  11   1   3    3.02    3.15
  11   1   4   11.24    4.16
 -11  -1  -4    5.83    3.36
  11   1   4   10.20    3.25
  11   1   5    0.72    4.19
  11   1   6   40.78    4.92
  11   2 -16    3.73    2.75
  11   2 -16    1.20    3.01
  11   2 -15    7.95    2.58
 -11  -2  15    7.13    3.69
  11   2 -15   10.96    3.12
  11   2 -14   20.24    2.48
 -11  -2  14   22.78    4.01
  11   2 -14   26.73    3.37
  11   2 -13    7.69    2.02
 -11  -2  13    9.47    3.80
  11   2 -13    6.92    3.06
  11   2 -12   42.77    2.37
 -11  -2  12   51.56    4.46
  11   2 -12   55.15    3.73
  11   2 -11   21.19    1.68
 -11  -2  11   31.09    4.01
  11   2 -11   30.99    3.31
  11   2 -10   20.05    1.32
 -11  -2  10   29.53    4.04
  11   2 -10   30.20    3.29
 -11  -2   9    1.87    3.55
  11   2  -9    2.14    2.95
 -11  -2   8   -3.42    3.44
 -11  -2   7   -1.18    3.55
  11   2  -6   14.02    3.15
  11   2  -5  238.42    7.84
  11   2  -4  254.47    8.27
 -11  -2   3   13.61    3.70
  11   2  -3   14.92    3.17
  11   2  -2    3.93    3.19
 -11  -2   2    5.61    3.48
  11   2  -2    3.63    3.11
 -11  -2   1   35.15    4.07
  11   2  -1   41.56    3.72
 -11  -2   0   32.36    4.11
  11   2   0   38.52    3.64
 -11  -2  -1   55.87    4.51
  11   2   1   57.83    4.08
  11   2   1   57.29    4.52
  11   2   2   23.39    4.07
 -11  -2  -2   14.10    3.66
  11   2   2   19.56    3.45
  11   2   3   17.49    4.14
 -11  -2  -3   11.05    3.67
  11   2   3   15.52    3.40
  11   2   4   25.61    4.46
 -11  -2  -4   16.77    3.68
  11   2   5   25.31    4.53
 -11  -3  16   19.08    3.97
  11   3 -16   21.10    3.31
 -11  -3  15   24.83    4.05
  11   3 -15   21.33    3.38
 -11  -3  14   14.53    3.98
  11   3 -14   17.85    3.30
 -11  -3  13    7.90    3.71
  11   3 -13    8.65    3.17
 -11  -3  12    0.80    3.64
  11   3 -12   -3.71    3.12
 -11  -3  11   22.32    3.99
  11   3 -11   26.98    3.36
 -11  -3  10   64.19    4.85
  11   3 -10   62.83    3.99
 -11  -3   9   57.76    4.85
  11   3  -9   68.10    4.05
 -11  -3   8   60.98    4.77
  11   3  -7   47.89    3.75
 -11  -3   6   16.64    3.90
  11   3  -6   23.13    3.28
  11   3  -5   65.92    4.19
  11   3  -5   75.68    4.03
  11   3  -4    5.82    2.94
 -11  -3   4    9.87    3.73
  11   3  -4    9.57    3.08
 -11  -3   3   44.01    4.44
  11   3  -3   45.92    3.84
  11   3  -3   50.11    3.79
 -11  -3   2   44.98    4.45
  11   3  -2   52.68    3.97
 -11  -3   1   70.77    5.01
  11   3  -1   87.20    4.59
 -11  -3   0   25.70    4.01
  11   3   0   41.29    3.77
  11   3   1    4.04    3.70
 -11  -3  -1   12.92    3.70
  11   3   1   11.45    3.41
  11   3   2   21.54    4.21
 -11  -3  -2   23.02    3.83
  11   3   2   18.19    3.46
  11   3   3   18.85    4.26
 -11  -3  -3   17.84    3.75
  11   3   3   22.56    3.55
  11   3   4   21.58    4.57
  11   3   5   37.05    5.00
 -11  -4  16   27.51    4.28
 -11  -4  15   27.50    4.25
  11   4 -15   27.66    3.52
 -11  -4  14    5.31    3.92
  11   4 -14    0.55    3.12
 -11  -4  13   66.81    5.15
  11   4 -13   63.87    4.20
 -11  -4  12   45.21    4.78
  11   4 -12   60.91    4.01
 -11  -4  11   19.33    4.04
  11   4 -11   19.01    3.30
 -11  -4  10    2.89    3.89
  11   4 -10   -0.53    3.14
  11   4  -9   11.77    2.53
 -11  -4   9   11.03    4.09
 -11  -4   8   47.20    4.81
  11   4  -8   60.35    3.46
  11   4  -7   56.39    4.14
  11   4  -7   57.42    3.51
  11   4  -6   49.23    3.88
  11   4  -6   49.80    3.48
  11   4  -5    1.28    2.95
  11   4  -5    3.34    3.19
  11   4  -4   22.35    3.23
 -11  -4   4   21.63    4.02
  11   4  -4   13.81    3.40
  11   4  -3   54.23    4.13
  11   4  -3   57.14    4.01
  11   4  -2    8.86    3.32
 -11  -4   2    9.73    3.84
  11   4  -2   12.17    3.38
 -11  -4   1   49.76    4.65
  11   4  -1   49.20    4.10
  11   4  -1   52.69    4.28
 -11  -4   0   80.19    5.23
  11   4   0   95.90    4.87
 -11  -4  -1   44.30    4.36
  11   4   1   47.52    4.01
  11   4   2   21.34    4.21
 -11  -4  -2   16.64    3.82
  11   4   3    4.13    4.37
 -11  -4  -3    7.60    3.61
  11   4   4   -0.58    4.51
  11   5 -17   43.03    3.95
 -11  -5  16   42.44    4.56
 -11  -5  15   22.97    4.30
 -11  -5  14    3.69    4.01
 -11  -5  13   49.60    4.88
  11   5 -13   49.11    3.99
  11   5 -13   44.94    2.54
 -11  -5  13   38.56    4.83
  11   5 -12   10.55    2.21
 -11  -5  12    8.88    4.03
  11   5 -12    7.66    3.41
 -11  -5  12    8.48    3.97
  11   5 -11   24.24    2.52
 -11  -5  11   19.09    4.20
  11   5 -11   23.20    3.60
 -11  -5  11   19.71    3.73
 -11  -5  10   25.45    4.53
  11   5 -10   23.00    3.62
  11   5 -10   30.79    2.71
 -11  -5   9   59.52    5.20
  11   5  -9   63.31    3.45
 -11  -5   8   27.77    4.50
  11   5  -8   31.19    3.77
  11   5  -8   35.78    3.01
  11   5  -7    5.58    2.78
  11   5  -7    6.20    3.38
  11   5  -6    5.25    2.84
  11   5  -6    4.39    3.34
  11   5  -5   17.61    3.14
 -11  -5   5   13.25    4.15
  11   5  -5   13.54    3.54
  11   5  -4   46.45    4.09
  11   5  -4   51.68    3.81
 -11  -5   3   35.82    4.46
  11   5  -3   42.01    4.03
  11   5  -3   46.38    3.88
  11   5  -2   20.53    3.71
 -11  -5   2   14.25    4.03
  11   5  -2   15.69    3.68
  11   5  -1   20.46    3.83
 -11  -5   1   17.83    4.01
 -11  -5   0   14.21    3.93
 -11  -5  -1   -4.58    3.73
  11   5   2   17.40    4.48
 -11  -5  -2   11.47    3.85
  11   5   3   43.89    5.12
  11   6 -18   -5.25    3.39
 -11  -6  17    3.68    4.06
  11   6 -17    8.65    3.55
  11   6 -16    6.27    3.62
 -11  -6  16    5.86    4.08
 -11  -6  16    6.76    5.17
 -11  -6  15  126.32    6.64
 -11  -6  15  121.78    7.20
 -11  -6  14  134.26    6.93
 -11  -6  14  142.43    7.11
 -11  -6  13   61.65    5.38
 -11  -6  13   55.79    5.14
  11   6 -12    1.99    2.05
 -11  -6  12    3.64    4.14
 -11  -6  12    2.52    3.82
  11   6 -11    8.54    2.28
 -11  -6  11    6.03    4.24
  11   6 -11    8.85    3.50
 -11  -6  11    9.29    3.57
  11   6 -10    1.41    2.36
 -11  -6  10    3.87    4.10
 -11  -6  10    0.24    3.26
  11   6  -9    9.19    2.55
 -11  -6   9    5.94    4.24
 -11  -6   9    4.40    2.79
  11   6  -8   64.22    4.41
  11   6  -8   66.21    3.59
  11   6  -7  115.38    5.59
  11   6  -7  122.79    4.93
  11   6  -6   26.79    3.27
  11   6  -6   21.96    3.82
 -11  -6   5   39.49    4.74
  11   6  -5   27.42    3.99
  11   6  -5   34.01    3.61
  11   6  -4    4.51    3.31
 -11  -6   4    6.01    4.17
  11   6  -3   10.38    3.56
 -11  -6   3    5.80    4.07
 -11  -6   2   34.56    4.56
  11   6  -2   41.89    4.23
  11   6  -1   -4.14    3.92
 -11  -6   1   -0.56    3.95
  11   6   0   29.97    4.48
  11   6   0   27.79    4.14
 -11  -6   0   20.66    4.13
  11   6   1   21.20    4.00
 -11  -6  -1   18.24    4.12
 -11  -6  -2    1.30    3.78
  11   7 -18   18.00    3.81
 -11  -7  18   32.68    6.12
 -11  -7  17    1.61    4.22
  11   7 -17    4.08    3.72
 -11  -7  17    6.89    5.41
  11   7 -16    6.51    3.74
 -11  -7  16    9.32    4.43
 -11  -7  16    2.87    5.09
  11   7 -15    0.75    3.80
 -11  -7  15    1.42    4.37
 -11  -7  15    2.15    4.74
 -11  -7  14   10.25    4.75
 -11  -7  14   19.57    4.68
 -11  -7  13  100.56    6.33
 -11  -7  13   95.50    5.96
 -11  -7  12   66.04    5.79
 -11  -7  12   77.72    5.17
  11   7 -12   71.90    3.16
 -11  -7  11   56.17    5.45
 -11  -7  11   53.86    4.49
  11   7 -11   58.92    3.11
  11   7 -10   16.70    2.55
 -11  -7  10   13.10    4.60
 -11  -7  10   10.85    3.40
  11   7  -9    5.95    2.62
 -11  -7   9    9.98    4.33
 -11  -7   9    2.00    2.91
  11   7  -8    3.38    2.80
 -11  -7   8    5.67    2.55
  11   7  -7    1.75    2.86
  11   7  -6    4.90    3.10
 -11  -7   6    7.70    4.35
 -11  -7   5   40.98    4.99
  11   7  -5   45.74    3.90
 -11  -7   4   46.53    5.12
  11   7  -4   59.04    4.27
  11   7  -3   31.67    4.21
 -11  -7   3   31.86    4.74
  11   7  -2   -2.88    3.89
  11   7  -2    2.28    3.95
 -11  -7   2    7.48    4.19
  11   7  -1    6.50    4.07
  11   7  -1    6.38    4.01
 -11  -7   1    7.37    4.13
  11   7   0    3.53    4.25
 -11  -7   0    9.34    4.08
  11   7   0    5.52    3.92
  11   7   1    0.48    4.45
 -11  -7  -1    2.10    3.87
  11   8 -18    5.94    3.83
 -11  -8  18    2.67    5.63
 -11  -8  17    5.91    4.50
  11   8 -17   10.26    3.94
 -11  -8  16   42.47    5.36
  11   8 -16   38.34    4.39
 -11  -8  16   43.07    5.75
 -11  -8  15   21.36    4.89
  11   8 -15   13.84    4.10
 -11  -8  15   14.81    4.93
  11   8 -14    0.81    3.92
 -11  -8  14    0.99    4.67
 -11  -8  14    2.61    4.44
 -11  -8  13   41.61    4.84
  11   8 -13   45.05    4.71
 -11  -8  13   32.09    5.32
 -11  -8  12   15.00    4.12
  11   8 -12   19.16    4.27
 -11  -8  12   13.36    4.72
 -11  -8  11   23.13    3.98
  11   8 -11   19.44    2.61
  11   8 -11   22.92    4.35
 -11  -8  11   17.61    4.98
 -11  -8  10  107.06    6.98
 -11  -8  10  109.82    5.44
  11   8 -10  121.21    4.60
 -11  -8   9   72.01    4.29
  11   8  -9   85.44    4.05
  11   8  -8   36.37    3.43
  11   8  -7   -1.22    3.17
  11   8  -6   -0.90    3.30
  11   8  -6   -4.30    4.20
 -11  -8   6    0.84    4.49
  11   8  -5   19.87    3.79
  11   8  -5   14.50    4.43
 -11  -8   5   12.69    4.69
  11   8  -4    9.44    3.78
  11   8  -4    8.44    4.23
 -11  -8   4    7.93    4.51
  11   8  -3   16.18    4.02
  11   8  -3   15.06    4.29
 -11  -8   3   10.49    4.48
  11   8  -2   24.29    4.42
 -11  -8   2   14.90    4.60
  11   8  -2   18.26    4.36
  11   8  -1   39.03    4.72
  11   8  -1   34.43    4.47
 -11  -8   0   11.14    4.33
  11   8   0   19.79    4.15
  11   9 -18   17.76    4.26
 -11  -9  17   -2.11    4.82
  11   9 -17    2.08    4.11
 -11  -9  17    0.59    5.29
 -11  -9  16   -4.14    4.92
  11   9 -16    5.73    4.14
 -11  -9  16    7.31    5.17
 -11  -9  15    7.41    4.87
 -11  -9  15   14.09    4.99
  11   9 -15   -3.02    4.10
 -11  -9  14   34.53    5.18
 -11  -9  14   44.13    5.54
  11   9 -14   37.42    4.70
 -11  -9  13   32.66    4.85
 -11  -9  13   44.71    5.69
  11   9 -13   32.98    4.74
  11   9 -12   51.12    4.94
 -11  -9  12   46.80    5.87
 -11  -9  12   45.72    4.82
 -11  -9  11   32.94    4.30
 -11  -9  11   28.68    5.49
 -11  -9  10   18.83    3.68
  11   9 -10   24.85    2.99
 -11  -9  10   21.81    5.15
  11   9  -9    2.12    2.90
  11   9  -9    2.68    4.47
  11   9  -8  110.79    5.04
  11   9  -8  113.69    6.19
  11   9  -7   83.61    4.68
  11   9  -7   89.00    5.70
 -11  -9   7   87.43    6.62
  11   9  -6   38.13    4.08
  11   9  -6   41.71    4.90
 -11  -9   6   32.35    5.46
  11   9  -5    9.25    3.84
 -11  -9   5    7.54    4.78
  11   9  -5   -1.71    4.41
  11   9  -4    7.15    3.94
 -11  -9   4   -0.13    4.57
  11   9  -4    7.13    4.32
  11   9  -3   -0.45    4.19
 -11  -9   3    5.02    4.51
  11   9  -3    5.38    4.27
  11   9  -2    3.83    4.29
 -11  -9   2    1.84    4.49
  11   9  -2    7.41    4.41
 -11  -9   1    3.44    4.36
  11   9  -1   10.41    4.26
 -11 -10  16   32.47    5.67
 -11 -10  16   25.92    5.51
  11  10 -16   28.53    4.81
 -11 -10  15   10.30    4.99
 -11 -10  15    0.44    5.11
  11  10 -15   10.33    4.46
 -11 -10  14    2.34    4.71
 -11 -10  14    3.83    5.07
  11  10 -14    7.44    4.47
 -11 -10  13    2.38    4.30
 -11 -10  13    4.06    5.24
  11  10 -13    2.74    4.44
 -11 -10  12   10.15    4.17
 -11 -10  12   16.40    5.27
  11  10 -12    8.88    4.50
 -11 -10  11   19.84    5.34
  11  10 -10   25.62    4.88
  11  10  -9   38.17    3.66
  11  10  -9   44.32    5.14
  11  10  -8   20.59    3.56
  11  10  -8   29.03    4.94
  11  10  -7   -1.64    3.51
 -11 -10   7    5.75    5.02
  11  10  -7    0.57    4.53
  11  10  -6   21.99    4.12
 -11 -10   6   27.39    5.45
  11  10  -6   38.93    5.05
  11  10  -5   35.97    4.49
 -11 -10   5   36.95    5.49
  11  10  -5   35.35    5.05
  11  10  -4    7.81    4.26
 -11 -10   4   14.92    5.00
  11  10  -4   11.06    4.74
 -11 -10   3   -1.80    4.82
  11  10  -3    4.84    4.65
 -11 -11  15   -8.28    5.13
 -11 -11  14   21.64    4.99
 -11 -11  13   37.42    5.11
 -11 -11  13   36.67    6.06
  11  11 -13   42.50    5.36
 -11 -11  12    1.78    5.41
  11  11 -12    1.78    4.87
 -11 -11  11    7.98    5.51
  11  11 -10    5.33    4.83
  11  11  -9   21.89    5.10
  11  11  -8    7.11    3.51
 -11 -11   8    3.93    5.21
  11  11  -8   -5.45    5.03
  11  11  -7   17.07    3.94
 -11 -11   7    8.43    5.36
  11  11  -6   58.19    5.01
  11  11  -5   24.52    4.56
 -12  11   2   46.49    5.95
  12 -10  -6   39.44    4.73
 -12  10   5   10.57    5.84
  12 -10  -4    5.78    5.19
  12 -10  -4   12.07    5.61
 -12  10   4    3.32    5.47
 -12  10   3   25.36    5.60
 -12  10   2    8.95    5.14
  12 -10  -1    3.95    5.77
 -12  10   1    0.56    4.77
  12 -10   0   25.78    6.12
  12 -10   1    2.07    5.33
  12 -10   1    9.10    5.78
  12  -9  -8   65.90    5.72
  12  -9  -8   67.81    5.96
  12  -9  -7   47.21    5.76
 -12   9   7   51.91    6.74
  12  -9  -6    6.17    5.21
 -12   9   6   -1.05    5.67
  12  -9  -5    9.91    5.17
 -12   9   5   15.31    5.63
  12  -9  -4   12.17    5.46
 -12   9   4   29.48    5.66
 -12   9   3   35.95    5.68
  12  -9  -2   31.81    5.83
 -12   9   2   15.65    5.07
  12  -9  -1   76.25    6.74
 -12   9   1   59.63    5.52
  12  -9   0   74.68    6.81
 -12   9   0   77.90    5.56
  12  -9   1   35.50    5.97
  12  -9   2   18.04    5.75
  12  -9   3   51.55    6.36
  12  -9   4   52.27    6.12
  12  -8 -10    3.49    4.38
  12  -8  -9   12.55    4.71
 -12   8   9   22.92    6.37
  12  -8  -8   33.41    5.07
 -12   8   8   29.74    6.38
  12  -8  -7   74.65    5.98
 -12   8   7   56.76    6.63
  12  -8  -6  106.70    6.66
 -12   8   6  104.95    7.30
  12  -8  -5  223.32    9.16
 -12   8   5  209.31    9.33
 -12   8   4   25.32    5.46
 -12   8   3   61.24    5.75
  12  -8  -2   74.19    6.48
 -12   8   2   74.38    5.69
  12  -8  -1   52.52    6.00
 -12   8   1   46.00    5.03
  12  -8   0   82.51    6.69
 -12   8   0   79.73    5.29
  12  -8   1   39.96    5.84
 -12   8  -1   39.02    4.31
  12  -8   2   36.37    5.82
  12  -8   3    8.92    5.26
  12  -8   4    4.29    4.99
  12  -8   5    4.28    4.94
  12  -8   6   21.70    5.02
  12  -8   6    9.58    4.98
  12  -7 -12   -3.05    4.06
  12  -7 -11   16.45    4.29
  12  -7 -10   58.84    5.16
  12  -7  -9   11.69    4.43
 -12   7   9   11.98    5.94
  12  -7  -8    3.85    4.51
 -12   7   8    7.39    5.54
  12  -7  -7   -0.49    4.53
 -12   7   7    2.36    5.25
  12  -7  -6   -4.05    4.73
 -12   7   6   -2.24    5.20
  12  -7  -5  111.03    6.76
 -12   7   5  108.76    6.84
 -12   7   4  176.56    8.01
  12  -7  -3  164.50    7.89
 -12   7   3  157.58    7.43
  12  -7  -2   19.32    5.00
 -12   7   2   21.46    4.67
  12  -7  -1   61.81    5.78
 -12   7   1   46.89    4.86
  12  -7   0   18.35    5.08
 -12   7   0   15.32    4.01
  12  -7   1    6.54    4.93
 -12   7  -1    6.14    3.59
  12  -7   2   21.57    5.05
  12  -7   3   21.57    5.09
  12  -7   4   25.04    5.13
  12  -7   5   73.96    5.90
  12  -6 -12   25.93    4.27
  12  -6 -11    5.36    4.03
  12  -6 -10    3.97    4.04
  12  -6  -9   31.79    4.49
 -12   6   9   25.73    5.91
  12  -6  -8  108.14    6.03
 -12   6   8   95.86    6.98
  12  -6  -7   27.09    4.61
 -12   6   7   27.59    5.36
 -12   6   6   84.36    5.84
  12  -6  -6   86.22    5.86
 -12   6   6   79.40    6.15
 -12   6   5    2.96    4.21
 -12   6   5    7.21    4.68
 -12   6   4    9.04    4.39
 -12   6   4   -1.18    4.48
  12  -6  -3   -0.26    4.40
 -12   6   3    3.83    4.31
  12  -6  -2   37.86    5.30
 -12   6   2   49.93    4.77
 -12   6   1  338.19   11.19
  12  -6  -1  329.11   11.46
 -12   6   1  329.03   10.53
 -12   6   0  266.71    9.34
  12  -6   0  237.77    9.43
 -12   6   0  244.77    8.40
  12  -6   1    7.74    4.67
 -12   6  -1   -0.61    3.37
  12  -6   2    8.98    4.63
  12  -6   3   -1.40    4.57
  12  -6   4    6.39    4.56
  12  -6   5   17.42    4.63
  12  -5 -14   -0.17    3.60
  12  -5 -13   18.83    3.75
  12  -5 -13   22.67    4.01
  12  -5 -12   53.57    4.50
  12  -5 -11   55.39    4.74
  12  -5 -10   31.98    4.32
 -12   5   9    5.65    4.26
  12  -5  -9   10.84    3.98
 -12   5   9    6.79    5.15
 -12   5   8    4.16    4.19
  12  -5  -8    3.96    4.05
 -12   5   8    1.83    4.79
 -12   5   7   28.98    4.62
  12  -5  -7   22.15    4.36
 -12   5   7   20.78    5.00
 -12   5   6  157.94    7.14
  12  -5  -6  150.61    6.89
 -12   5   6  143.12    7.29
 -12   5   5   45.11    4.85
 -12   5   5   48.25    5.09
  12  -5  -4   55.14    5.12
 -12   5   4   54.24    5.04
 -12   5   3   68.01    5.36
  12  -5  -3   76.25    5.48
 -12   5   3   73.30    5.20
  12  -5  -2   73.43    5.51
 -12   5   2   68.92    4.95
 -12   5   1    6.87    4.09
  12  -5  -1   10.38    4.35
 -12   5   1    9.09    3.70
 -12   5   0   94.10    5.76
  12  -5   0   86.78    5.93
 -12   5   0   86.35    4.86
 -12   5  -1  310.40   10.21
  12  -5   1  279.56   10.15
 -12   5  -1  287.98    8.82
 -12   5  -2  111.16    6.07
  12  -5   2  102.01    6.19
  12  -5   3    9.82    4.41
  12  -5   4   -5.40    4.36
  12  -5   5    3.97    4.19
  12  -5   6    9.54    4.76
  12  -4 -15   11.07    3.73
  12  -4 -14   27.66    3.73
  12  -4 -14   21.23    3.66
 -12   4  14   20.57    6.11
  12  -4 -13   -0.89    3.20
  12  -4 -13   -3.18    3.67
 -12   4  12   -1.55    4.09
  12  -4 -12   -5.65    3.79
 -12   4  11   10.69    4.19
  12  -4 -11    1.55    3.72
 -12   4  10   11.12    4.27
  12  -4 -10    9.47    3.87
 -12   4   9   29.37    4.46
  12  -4  -9   34.09    4.18
 -12   4   8   82.88    5.53
  12  -4  -8   85.68    5.21
 -12   4   7   52.81    4.92
  12  -4  -7   51.02    4.67
 -12   4   6    0.98    4.10
 -12   4   5    3.69    4.02
  12  -4  -4   35.91    4.53
  12  -4  -3   45.39    4.69
  12  -4  -2   27.61    4.43
 -12   4   2   26.67    3.88
 -12   4   1   13.95    4.15
  12  -4  -1   12.00    4.16
 -12   4   1   11.81    3.46
 -12   4   0  122.52    6.27
  12  -4   0  112.91    6.19
 -12   4   0  119.57    5.22
 -12   4  -1   54.88    4.89
  12  -4   1   60.50    5.04
 -12   4  -1   52.92    3.71
 -12   4  -2   15.47    4.22
  12  -4   2   12.99    4.29
 -12   4  -3  104.42    5.82
  12  -4   3  100.64    5.79
 -12   4  -4   87.46    5.36
  12  -4   4   84.71    5.47
  12  -4   5   10.94    4.55
  12  -4   5   16.12    4.15
  12  -4   6    4.22    4.59
  12  -3 -16   -2.11    3.51
  12  -3 -15   16.26    3.51
 -12   3  15   11.31    6.10
  12  -3 -14   36.92    3.75
  12  -3 -14   50.29    3.98
  12  -3 -13   41.55    3.58
 -12   3  13   38.67    4.58
  12  -3 -12   25.28    3.14
 -12   3  12   30.62    4.42
  12  -3 -12   35.28    3.96
 -12   3  11   20.64    4.26
  12  -3 -11   18.25    3.84
 -12   3  10   26.89    4.51
  12  -3 -10   24.26    3.91
 -12   3   9   -0.72    4.13
  12  -3  -9   -0.67    3.63
 -12   3   8    7.86    4.03
  12  -3  -8    1.38    3.60
 -12   3   7   22.41    4.35
  12  -3  -7   18.71    3.89
 -12   3   6  109.28    5.97
 -12   3   5  123.62    6.16
  12  -3  -5  108.87    5.84
  12  -3  -4   87.97    5.31
  12  -3  -3   41.48    4.46
 -12   3   2   -2.26    4.00
  12  -3  -2    1.17    3.88
 -12   3   1   50.09    4.80
  12  -3  -1   43.63    4.60
 -12   3   0   21.06    4.26
  12  -3   0   21.22    4.19
 -12   3   0   16.07    3.15
 -12   3  -1   59.82    5.05
  12  -3   1   64.53    5.08
 -12   3  -2  121.46    6.12
  12  -3   2  118.45    6.07
 -12   3  -3  141.91    6.40
  12  -3   3  128.02    6.19
  12  -3   4    0.10    4.38
 -12   3  -4   -0.38    3.92
  12  -3   4    2.42    3.86
  12  -3   5   16.96    4.71
 -12   3  -5   25.61    4.08
  12  -3   6   37.39    5.07
  12  -2 -16   82.14    4.66
  12  -2 -15   17.37    3.34
  12  -2 -15   24.20    3.51
  12  -2 -14   -0.70    2.92
 -12   2  14   -2.20    3.90
  12  -2 -14    3.28    3.27
  12  -2 -13   32.16    3.21
 -12   2  13   36.69    4.58
  12  -2 -13   45.23    3.94
  12  -2 -12   13.52    2.66
 -12   2  12   18.04    4.26
  12  -2 -12   14.89    3.60
 -12   2  11   47.29    4.74
  12  -2 -11   48.11    4.17
 -12   2  10   42.18    4.62
  12  -2 -10   50.35    4.22
 -12   2   9   89.71    5.55
  12  -2  -9   86.86    5.02
 -12   2   8   46.45    4.67
  12  -2  -8   45.99    4.17
 -12   2   7    5.09    3.98
 -12   2   6   -2.68    3.97
  12  -2  -5    0.40    3.60
  12  -2  -4  130.30    6.12
  12  -2  -3  204.95    7.74
 -12   2   2   50.05    4.76
  12  -2  -2   47.34    4.46
 -12   2   1   87.16    5.42
  12  -2  -1   79.61    5.11
 -12   2   0   10.29    3.98
  12  -2   0    3.30    3.75
 -12   2  -1   28.31    4.28
  12  -2   1   30.18    4.15
 -12   2  -2    1.38    3.92
  12  -2   2    5.92    3.77
  12  -2   3   16.51    4.35
 -12   2  -3   20.63    4.02
  12  -2   3   20.12    4.01
 -12   2  -4  115.47    5.82
  12  -2   4  107.34    5.56
  12  -2   4  119.04    6.29
 -12   2  -5   70.72    4.97
  12  -2   5   85.33    5.72
  12  -2   6   -5.48    4.73
  12  -1 -15   34.22    3.37
  12  -1 -15   35.07    3.72
  12  -1 -14   84.88    4.19
 -12   1  14  100.16    5.67
  12  -1 -14   98.12    4.81
  12  -1 -13   39.81    3.08
 -12   1  13   48.31    4.70
  12  -1 -13   52.59    3.99
  12  -1 -12   23.92    2.59
  12  -1 -12   21.73    3.61
  12  -1 -11    6.45    2.10
 -12   1  11   -0.11    3.96
  12  -1 -11    5.82    3.45
  12  -1 -10   28.76    2.27
 -12   1  10   38.23    4.40
  12  -1 -10   36.85    3.79
 -12   1   9   23.06    4.29
  12  -1  -9   17.94    3.58
 -12   1   8   33.07    4.41
  12  -1  -8   32.68    3.91
 -12   1   7   79.25    5.37
 -12   1   6   69.66    5.06
  12  -1  -6   60.95    4.52
  12  -1  -5   53.90    4.35
  12  -1  -4    6.19    3.57
 -12   1   3    3.50    3.74
  12  -1  -3    0.19    3.52
 -12   1   2   20.51    4.19
  12  -1  -2   20.93    3.82
 -12   1   1   75.89    5.32
  12  -1  -1   77.26    4.87
 -12   1   0   38.14    4.48
  12  -1   0   33.64    4.14
 -12   1  -1   40.45    4.50
  12  -1   1   46.05    4.26
  12  -1   2   30.82    4.53
 -12   1  -2   32.28    4.33
  12  -1   2   26.36    4.07
  12  -1   3    0.10    4.29
 -12   1  -3    0.29    3.76
  12  -1   3   -0.23    3.52
  12  -1   4    4.22    4.41
 -12   1  -4    3.46    3.74
  12  -1   4    2.59    3.47
  12  -1   5    2.02    4.45
  12   0 -16    2.46    3.18
 -12   0  15    0.97    3.84
  12   0 -15   -1.17    3.21
  12   0 -14    1.72    2.46
 -12   0  14    3.22    3.84
  12   0 -14    2.15    3.26
  12   0 -13   27.39    2.58
 -12   0  13   37.93    4.45
  12   0 -13   31.83    3.68
 -12   0  12  126.52    6.24
  12   0 -12  134.78    5.41
 -12   0  11  129.20    6.25
  12   0 -11  135.41    5.51
  12   0 -10   31.92    2.07
 -12   0  10   43.23    4.59
  12   0 -10   45.25    3.86
  12   0  -9   29.04    1.81
 -12   0   9   29.09    4.49
  12   0  -9   37.30    3.81
  12   0  -8    2.38    1.25
 -12   0   8   -2.00    3.89
  12   0  -8   -1.91    3.40
 -12   0   7   11.48    3.97
  12   0  -6   68.80    4.58
  12   0  -5  105.60    5.26
  12   0  -4   51.30    4.16
 -12   0   3   78.79    5.30
  12   0  -3   69.91    4.69
 -12   0   2   39.31    4.58
  12   0  -2   45.27    4.15
 -12   0   1   38.07    4.51
  12   0  -1   37.27    4.09
  12   0   0    4.63    3.79
 -12   0   0    7.32    3.87
  12   0   0    2.53    3.54
  12   0   1   13.52    4.11
 -12   0  -1   13.45    4.04
  12   0   1   16.25    3.69
 -12   0  -2   96.80    5.58
  12   0   2  109.06    5.30
  12   0   2  107.04    5.87
  12   0   3  107.59    5.25
  12   0   3  114.92    6.08
  12   0   4   37.81    4.89
 -12   0  -4   35.58    4.29
  12   0   5   11.29    4.58
  12   1 -16   31.47    3.59
 -12  -1  15    5.66    3.95
  12   1 -15    5.23    3.31
 -12  -1  14    0.55    4.00
  12   1 -14    1.53    3.20
 -12  -1  13   43.75    4.73
  12   1 -13   53.54    3.99
 -12  -1  12   25.13    4.34
  12   1 -12   11.90    3.42
 -12  -1  11    3.81    3.95
  12   1 -11    5.94    3.30
 -12  -1  10  196.40    8.29
  12   1 -10  220.02    7.41
 -12  -1   9  366.56   12.31
  12   1  -9  385.36   11.25
 -12  -1   8   71.97    5.30
 -12  -1   7    1.93    3.95
  12   1  -6    0.52    3.32
  12   1  -5    8.37    3.39
 -12  -1   4   27.70    4.36
  12   1  -4   25.44    3.74
 -12  -1   3   26.37    4.31
  12   1  -3   21.75    3.71
 -12  -1   2   87.80    5.67
  12   1  -2   93.53    5.00
 -12  -1   1   68.97    5.24
  12   1  -1   84.26    4.77
 -12  -1   0   87.39    5.54
  12   1   0   95.58    5.02
  12   1   0   91.39    5.33
  12   1   1   20.11    4.28
 -12  -1  -1   14.72    4.10
  12   1   1   19.77    3.74
  12   1   2    5.46    4.16
 -12  -1  -2    1.92    3.84
  12   1   2    3.77    3.56
  12   1   3   36.38    4.74
 -12  -1  -3   25.74    4.14
  12   1   3   28.42    3.87
  12   1   4   35.06    4.83
 -12  -1  -4   18.20    3.97
  12   2 -17    9.48    3.34
 -12  -2  16   -1.82    3.93
  12   2 -16    4.01    3.23
 -12  -2  15    4.67    4.05
  12   2 -15    6.62    3.31
 -12  -2  14   50.23    4.89
  12   2 -14   51.23    3.99
 -12  -2  13   47.75    4.88
  12   2 -13   47.19    4.02
 -12  -2  12   32.52    4.62
  12   2 -12   38.43    3.81
 -12  -2  11   35.24    4.62
  12   2 -11   32.78    3.72
 -12  -2  10   13.22    4.19
  12   2 -10   14.58    3.41
 -12  -2   9    2.09    3.93
  12   2  -9    7.89    3.44
 -12  -2   8   26.63    4.56
  12   2  -7  125.93    5.61
 -12  -2   6   73.38    5.52
  12   2  -6   86.67    4.73
  12   2  -5   83.04    4.84
 -12  -2   4   25.50    4.40
  12   2  -4   25.53    3.67
  12   2  -3    8.88    3.54
 -12  -2   3    6.58    4.03
  12   2  -3    5.41    3.42
  12   2  -2    4.14    3.62
 -12  -2   2    5.04    4.01
  12   2  -2    8.43    3.48
 -12  -2   1    0.12    4.04
  12   2  -1    0.08    3.52
 -12  -2   0   24.46    4.31
  12   2   0   25.49    3.85
 -12  -2  -1   45.76    4.72
  12   2   1   53.83    4.27
  12   2   1   53.16    4.82
  12   2   2   25.42    4.46
 -12  -2  -2   20.51    4.09
  12   2   2   28.44    3.84
  12   2   3    1.78    4.24
 -12  -2  -3    1.86    3.75
  12   2   4   54.14    5.22
 -12  -3  16   43.48    4.77
  12   3 -16   48.47    4.07
 -12  -3  15   21.56    4.42
  12   3 -15   17.71    3.60
 -12  -3  14    5.28    4.10
  12   3 -14   -0.29    3.43
 -12  -3  13   10.26    4.22
  12   3 -13   12.38    3.51
 -12  -3  12   16.36    4.40
  12   3 -12   17.47    3.51
 -12  -3  11    2.23    4.04
  12   3 -11    5.74    3.32
 -12  -3  10   21.63    4.55
  12   3 -10   20.21    3.60
 -12  -3   9   50.03    5.07
 -12  -3   8  143.78    7.06
  12   3  -7   86.22    4.78
  12   3  -6   20.87    3.35
  12   3  -6   18.41    3.74
 -12  -3   5  182.84    8.28
  12   3  -5  197.77    7.29
 -12  -3   4   59.15    5.14
  12   3  -4   65.63    4.48
  12   3  -4   57.06    4.25
  12   3  -3   28.57    3.88
 -12  -3   3   20.40    4.36
  12   3  -3   28.95    3.84
  12   3  -2   84.21    4.83
  12   3  -2   81.81    4.86
 -12  -3   1   26.70    4.40
  12   3  -1   35.97    4.05
 -12  -3   0   -3.78    4.01
  12   3   0    0.39    3.60
  12   3   1   -3.42    4.18
 -12  -3  -1    2.43    3.90
  12   3   1   -3.33    3.66
  12   3   2    4.99    4.30
 -12  -3  -2    7.89    3.95
  12   3   2    8.06    3.57
  12   3   3    6.58    4.45
 -12  -3  -3    4.28    3.71
 -12  -4  16   -1.93    4.09
 -12  -4  15    1.09    4.18
  12   4 -15    0.72    3.48
 -12  -4  14   18.98    4.52
  12   4 -14   20.36    3.70
 -12  -4  13   64.85    5.56
  12   4 -13   74.32    4.59
  12   4 -13   64.89    3.36
 -12  -4  12   29.10    4.72
  12   4 -12   34.34    3.98
  12   4 -12   28.29    2.81
  12   4 -11    4.17    2.57
 -12  -4  11    2.05    4.17
  12   4 -11    2.41    3.39
  12   4 -10    6.20    2.66
 -12  -4  10    8.17    4.39
  12   4 -10    3.03    3.41
  12   4  -9    8.85    2.82
 -12  -4   9    5.98    4.25
  12   4  -8    9.12    2.97
 -12  -4   8   -0.14    4.14
  12   4  -8    3.94    3.55
 -12  -4   7   61.09    5.48
  12   4  -7   68.82    4.61
  12   4  -7   73.59    4.15
  12   4  -6  193.57    7.22
  12   4  -6  193.63    6.84
 -12  -4   5   30.05    4.73
  12   4  -5   34.87    4.02
  12   4  -5   35.32    3.82
  12   4  -4    3.71    3.42
 -12  -4   4   -5.09    4.27
  12   4  -4    1.84    3.62
 -12  -4   3   70.89    5.51
  12   4  -3   76.87    4.92
  12   4  -2   39.13    4.21
  12   4  -2   40.98    4.24
  12   4  -1   42.09    4.30
 -12  -4   1   32.80    4.63
  12   4  -1   33.17    4.15
 -12  -4   0   12.92    4.20
  12   4   0   20.09    3.87
 -12  -4  -1   18.96    4.14
  12   4   2    8.82    4.49
 -12  -4  -2    6.56    3.85
 -12  -5  17    5.19    4.38
 -12  -5  16   -3.00    4.25
 -12  -5  15   25.69    4.80
 -12  -5  14    6.73    4.44
  12   5 -14    5.70    3.64
  12   5 -13    2.39    2.21
 -12  -5  13    0.95    4.35
  12   5 -13    3.98    3.59
 -12  -5  12   56.45    5.35
  12   5 -12   60.68    4.49
  12   5 -12   52.88    3.18
  12   5 -11   59.04    4.47
  12   5 -11   65.35    3.47
 -12  -5  10   32.30    5.03
  12   5 -10   38.21    3.20
  12   5  -9   15.82    3.00
 -12  -5   9    9.56    4.51
  12   5  -8    5.81    2.95
  12   5  -8    6.42    3.63
  12   5  -7   19.10    3.27
  12   5  -7   17.25    3.86
  12   5  -6    4.77    3.21
  12   5  -6    5.67    3.63
  12   5  -5    6.86    3.31
 -12  -5   5    1.09    4.39
  12   5  -5    0.34    3.68
  12   5  -4   92.95    5.16
  12   5  -4   88.45    4.90
 -12  -5   3   63.54    5.51
  12   5  -3   67.35    4.77
  12   5  -3   68.07    4.68
  12   5  -2   12.41    3.98
 -12  -5   2    3.55    4.25
  12   5  -2   11.69    3.90
  12   5  -1   -2.87    4.06
 -12  -5   1    0.70    4.15
  12   5   0    3.98    4.18
 -12  -5   0    5.20    4.01
 -12  -5  -1    5.54    4.11
  12   6 -18   11.75    3.76
  12   6 -17   31.34    4.22
 -12  -6  17   30.28    4.88
 -12  -6  16    5.98    4.58
 -12  -6  15   -2.52    4.61
 -12  -6  14    6.22    4.58
 -12  -6  13    4.15    4.61
  12   6 -12   18.94    2.53
 -12  -6  12   22.61    4.98
  12   6 -12   23.97    3.96
  12   6 -11    0.42    2.53
 -12  -6  11   -1.93    4.69
  12   6 -11    0.09    3.75
 -12  -6  10   22.21    5.05
  12   6 -10   31.61    3.06
 -12  -6   9   57.73    5.83
  12   6  -9   64.92    4.83
  12   6  -9   76.28    3.94
  12   6  -8   62.31    4.74
  12   6  -8   66.42    3.95
  12   6  -7    2.54    3.04
  12   6  -7    5.71    3.93
  12   6  -6   11.24    3.34
 -12  -6   6    2.74    4.61
  12   6  -6    0.62    3.85
  12   6  -5   12.39    3.57
 -12  -6   5    7.24    4.46
  12   6  -5   10.26    3.99
  12   6  -4   26.08    3.94
 -12  -6   4   28.22    4.90
  12   6  -3   12.63    3.82
 -12  -6   3    6.58    4.43
 -12  -6   2   83.33    5.89
  12   6  -2   81.53    5.30
 -12  -6   1   60.02    5.41
  12   6  -1   71.55    5.27
  12   6   0   10.01    4.53
  12   6   0   10.51    4.18
 -12  -6   0   12.23    4.36
 -12  -6  -1   10.55    4.16
  12   7 -18   12.41    3.93
 -12  -7  17    3.42    4.48
  12   7 -17   -0.29    3.88
  12   7 -16   -5.84    4.07
 -12  -7  16    1.46    4.64
  12   7 -15   39.13    4.59
 -12  -7  15   43.90    5.55
 -12  -7  15   35.65    5.57
 -12  -7  14   23.77    5.19
 -12  -7  14   19.65    4.89
 -12  -7  13   -2.55    4.80
 -12  -7  13    3.87    4.18
 -12  -7  12    4.61    4.81
 -12  -7  12   -1.48    3.81
  12   7 -11   13.28    2.66
 -12  -7  11    9.65    4.91
 -12  -7  11   11.60    3.67
 -12  -7  10   25.49    5.34
  12   7 -10   32.17    3.11
  12   7  -9   13.11    2.99
  12   7  -8    0.37    3.02
  12   7  -7   17.25    3.39
 -12  -7   6   36.75    5.38
  12   7  -6   38.48    3.85
 -12  -7   5   47.05    5.61
  12   7  -5   48.77    4.24
  12   7  -4   10.38    3.85
 -12  -7   4   11.32    4.83
  12   7  -3    2.12    3.96
 -12  -7   3   -2.74    4.48
  12   7  -2    1.34    4.11
  12   7  -2    4.30    4.21
 -12  -7   2    1.98    4.42
  12   7  -1    4.81    4.38
 -12  -7   1    4.80    4.27
  12   7  -1    0.56    4.15
 -12  -7   0   12.47    4.32
 -12  -8  17   39.06    5.44
  12   8 -17   23.58    4.52
 -12  -8  17   33.92    6.10
  12   8 -16   63.70    5.08
 -12  -8  16   60.96    6.18
 -12  -8  16   66.63    6.38
  12   8 -15    5.31    4.24
 -12  -8  15    8.24    5.12
 -12  -8  15   12.69    5.11
  12   8 -14   -0.86    4.24
 -12  -8  14   -3.52    5.06
 -12  -8  14    3.10    4.55
  12   8 -13   11.56    4.42
 -12  -8  13    8.46    5.13
 -12  -8  13    9.18    4.28
  12   8 -12    7.45    4.44
 -12  -8  12    2.23    5.06
 -12  -8  12    2.21    3.92
  12   8 -11    1.76    2.63
 -12  -8  11   10.24    5.05
  12   8 -10    0.26    2.87
 -12  -8  10    4.17    4.97
  12   8  -9   26.26    3.43
  12   8  -8   43.06    3.87
  12   8  -7   21.35    3.66
 -12  -8   7   23.55    5.46
  12   8  -6    3.55    3.62
  12   8  -6    1.03    4.39
 -12  -8   6    1.80    4.85
  12   8  -5    3.16    3.86
  12   8  -5   -0.37    4.49
 -12  -8   5    4.80    4.91
  12   8  -4   20.61    4.25
  12   8  -4   19.69    4.64
 -12  -8   4   10.46    4.92
  12   8  -3    8.07    4.29
 -12  -8   3   13.77    4.74
  12   8  -3    5.36    4.37
 -12  -8   2    2.73    4.52
  12   8  -2    9.70    4.38
 -12  -8   1   13.08    4.59
  12   8  -1    9.83    4.30
 -12  -9  16    5.49    5.22
  12   9 -16    8.49    4.34
 -12  -9  16    3.93    5.22
 -12  -9  15   31.75    5.89
  12   9 -15   40.32    4.79
 -12  -9  15   30.22    5.30
 -12  -9  14   27.28    5.80
  12   9 -14   37.67    4.95
 -12  -9  14   33.95    5.14
  12   9 -13   30.08    4.81
 -12  -9  13   33.39    5.84
 -12  -9  13   21.71    4.62
  12   9 -12   16.80    4.60
 -12  -9  12   -0.16    5.42
 -12  -9  11    0.65    5.04
  12   9 -10   19.64    3.16
  12   9 -10   25.84    4.93
  12   9  -9    0.24    3.15
  12   9  -9    3.27    4.60
  12   9  -8    2.70    3.38
  12   9  -8    4.23    4.64
  12   9  -7    5.42    3.62
  12   9  -7    7.79    4.61
 -12  -9   7   14.34    5.25
  12   9  -6   23.54    4.08
 -12  -9   6   14.99    5.28
  12   9  -6   25.05    4.82
  12   9  -5   39.47    4.55
 -12  -9   5   34.67    5.60
  12   9  -5   23.72    4.96
  12   9  -4    0.52    4.10
 -12  -9   4    4.47    4.87
  12   9  -4    6.46    4.55
 -12 -10  16    6.78    5.06
 -12 -10  15    5.34    4.86
 -12 -10  13    5.26    5.56
  12  10 -13    8.73    4.72
 -12 -10  12   36.14    6.11
  12  10 -12   36.01    5.07
 -12 -10  11   16.83    5.69
  12  10 -10   14.36    4.99
  12  10  -9   -2.95    3.41
  12  10  -9    0.39    4.83
  12  10  -8    1.03    3.57
 -12 -10   8   -3.85    5.38
  12  10  -8    8.68    4.76
  12  10  -7   -1.41    3.72
  12  10  -6   -0.08    3.90
 -13  10   2    4.71    5.16
 -13  10   1    3.48    4.86
 -13   9   5    7.55    5.50
 -13   9   4   24.05    5.79
 -13   9   3   42.15    5.82
  13  -9  -2   47.09    6.44
 -13   9   2   37.22    5.45
 -13   9   1   43.03    5.28
  13  -8  -8   38.12    5.49
  13  -8  -7    3.29    4.94
 -13   8   7   -1.10    5.90
  13  -8  -6    6.71    5.08
 -13   8   6   12.20    5.76
  13  -8  -5    8.78    5.24
 -13   8   5   14.94    5.65
 -13   8   4   19.81    5.48
  13  -8  -3    5.34    5.38
 -13   8   3    5.78    4.98
  13  -8  -2   24.79    5.80
 -13   8   2   32.95    5.12
  13  -8  -1   42.75    6.05
 -13   8   1   42.69    5.03
  13  -8   0   28.22    5.87
  13  -8   1   49.85    6.26
  13  -8   2   17.06    5.55
  13  -7 -10   19.20    4.80
  13  -7  -9   28.35    4.86
 -13   7   9   19.66    6.21
  13  -7  -8    5.73    4.62
 -13   7   8    4.56    5.83
  13  -7  -7   17.64    4.96
 -13   7   7   20.41    5.86
  13  -7  -6   40.25    5.50
 -13   7   6   35.29    5.96
 -13   7   5   65.88    6.28
 -13   7   4    5.71    5.06
  13  -7  -3    9.98    5.27
 -13   7   3   15.87    4.97
  13  -7  -2   23.57    5.39
 -13   7   2   29.81    5.00
  13  -7  -1   39.15    5.93
 -13   7   1   51.34    4.94
  13  -7   0   -1.53    5.28
  13  -7   1   13.68    5.33
  13  -7   2   54.15    5.94
  13  -7   3    4.03    4.94
  13  -7   4   40.75    5.55
  13  -6 -12    0.28    4.17
  13  -6 -11    3.97    4.28
  13  -6 -10   21.13    4.69
 -13   6  10   17.33    6.35
  13  -6  -9   94.13    5.90
 -13   6   9   87.27    7.23
  13  -6  -8   59.40    5.46
 -13   6   8   77.70    6.67
  13  -6  -7  116.01    6.63
 -13   6   7  114.30    7.34
 -13   6   6   37.86    5.25
  13  -6  -6   25.26    5.03
 -13   6   6   26.38    5.64
 -13   6   5   62.20    5.69
 -13   6   5   61.33    5.87
  13  -6  -4   99.79    6.55
 -13   6   4   97.41    6.33
  13  -6  -3   54.13    5.61
 -13   6   3   39.44    5.09
  13  -6  -2   28.19    5.20
 -13   6   2   35.14    4.79
 -13   6   1   64.75    5.71
  13  -6  -1   60.81    5.90
 -13   6   1   63.24    5.01
  13  -6   0   11.97    5.03
  13  -6   1    5.22    4.88
  13  -6   2    4.58    4.76
  13  -6   3    4.75    4.81
  13  -6   4   32.21    5.22
  13  -5 -13   33.50    3.79
  13  -5 -13   35.11    4.43
  13  -5 -12   60.19    4.99
  13  -5 -11   13.11    4.35
 -13   5  10    6.78    4.64
  13  -5 -10    7.81    4.29
 -13   5  10    9.89    5.64
 -13   5   9    6.02    4.72
  13  -5  -9    1.76    4.28
 -13   5   9    6.28    5.37
 -13   5   8    1.68    4.66
  13  -5  -8    2.40    4.34
 -13   5   8    1.32    5.11
 -13   5   7  100.63    6.37
  13  -5  -7  102.78    6.15
 -13   5   7   90.24    6.63
 -13   5   6  101.39    6.44
 -13   5   6  105.16    6.60
 -13   5   5   42.72    5.18
 -13   5   5   34.76    5.07
  13  -5  -4   29.67    4.99
 -13   5   4   25.49    4.70
  13  -5  -3   12.92    4.74
 -13   5   3   12.48    4.31
 -13   5   2   90.76    6.17
  13  -5  -2   91.24    6.12
 -13   5   2   92.72    5.60
 -13   5   1   -0.13    4.57
  13  -5  -1    3.25    4.67
 -13   5   1    1.25    3.83
 -13   5   0   10.94    4.73
  13  -5   0    2.58    4.71
 -13   5  -1   22.26    4.79
  13  -5   1   13.34    4.74
 -13   5  -2   23.48    4.74
  13  -5   2   15.57    4.83
  13  -5   3   13.63    4.85
  13  -5   4    9.87    4.60
  13  -4 -14   16.55    3.86
  13  -4 -13    0.28    3.15
  13  -4 -13   -3.31    3.92
 -13   4  12   12.57    4.63
  13  -4 -12    6.25    3.99
 -13   4  11   10.26    4.61
  13  -4 -11   21.72    4.31
 -13   4  10   72.37    5.77
  13  -4 -10   81.00    5.29
 -13   4   9   26.56    4.87
  13  -4  -9   38.97    4.67
 -13   4   8   30.35    4.90
  13  -4  -8   32.12    4.54
 -13   4   7   -4.71    4.47
  13  -4  -7    2.27    4.06
 -13   4   6    1.72    4.49
 -13   4   5    7.84    4.66
  13  -4  -5    9.79    4.42
 -13   4   4   16.70    4.77
  13  -4  -4   12.25    4.45
  13  -4  -3   63.06    5.30
 -13   4   3   51.67    4.72
 -13   4   2  177.28    8.01
  13  -4  -2  185.60    7.90
 -13   4   2  180.23    7.18
 -13   4   1   22.09    4.80
  13  -4  -1   26.59    4.73
 -13   4   1   20.67    3.84
 -13   4   0    7.15    4.49
  13  -4   0    7.89    4.58
 -13   4  -1    5.13    4.30
  13  -4   1    6.88    4.50
 -13   4  -2    2.38    4.42
  13  -4   2    0.43    4.46
 -13   4  -3   28.60    4.62
  13  -4   3   23.91    4.68
  13  -4   4   17.30    5.00
  13  -4   4   15.45    4.40
  13  -3 -14   32.95    4.10
 -13   3  13   45.33    5.08
  13  -3 -13   44.83    4.38
  13  -3 -12   21.94    2.92
 -13   3  12   25.13    4.69
  13  -3 -12   22.09    4.03
 -13   3  11   21.03    4.65
  13  -3 -11    9.77    3.90
 -13   3  10   -2.15    4.49
  13  -3 -10    1.78    3.89
 -13   3   9    4.60    4.52
  13  -3  -9   11.92    4.09
 -13   3   8  154.76    7.43
  13  -3  -8  155.80    6.87
 -13   3   7   70.31    5.72
  13  -3  -7   64.77    5.16
 -13   3   6   45.41    5.13
  13  -3  -5   38.16    4.78
  13  -3  -4   25.74    4.52
  13  -3  -3   21.11    4.46
 -13   3   2   82.92    6.02
  13  -3  -2   86.45    5.67
 -13   3   1   75.44    5.85
  13  -3  -1   79.28    5.60
 -13   3   1   68.70    4.50
 -13   3   0  108.69    6.31
  13  -3   0   99.88    6.00
 -13   3  -1   21.22    4.56
  13  -3   1   20.52    4.62
 -13   3  -2    1.32    4.24
  13  -3   2   -4.12    4.34
  13  -3   3   -0.94    4.55
 -13   3  -3   -1.04    4.15
  13  -3   3    4.32    4.13
  13  -3   4    8.04    4.83
 -13   3  -4   10.28    4.21
  13  -2 -15    1.13    3.53
 -13   2  14    1.59    4.30
  13  -2 -14    1.30    3.56
 -13   2  13   14.68    4.46
  13  -2 -13   13.50    3.82
 -13   2  12   32.52    4.96
  13  -2 -12   31.82    4.08
 -13   2  11   26.25    4.81
  13  -2 -11   21.03    3.92
 -13   2  10   58.46    5.32
  13  -2 -10   56.34    4.65
 -13   2   9   49.98    5.16
  13  -2  -9   40.71    4.46
 -13   2   8   10.96    4.40
  13  -2  -8    1.53    3.78
 -13   2   7    3.60    4.34
 -13   2   6   46.31    5.11
  13  -2  -6   41.76    4.62
  13  -2  -5   65.16    5.08
  13  -2  -4   89.17    5.57
 -13   2   3    7.41    4.41
  13  -2  -3    3.75    4.12
 -13   2   2   17.03    4.47
  13  -2  -2    8.50    4.24
 -13   2   1    4.45    4.36
  13  -2  -1   -0.42    4.07
 -13   2   0    6.72    4.33
  13  -2   0    0.30    4.12
 -13   2  -1   33.97    4.88
  13  -2   1   34.81    4.55
  13  -2   2   40.24    5.06
 -13   2  -2   35.69    4.80
  13  -2   2   38.91    4.57
  13  -2   3   31.28    4.99
 -13   2  -3   20.96    4.48
  13  -2   3   32.29    4.35
  13  -2   4   -2.56    4.79
 -13   2  -4    0.66    3.93
  13  -1 -15   21.90    3.80
 -13   1  14   11.41    4.53
  13  -1 -14   18.85    3.72
 -13   1  13   11.04    4.49
  13  -1 -13   15.05    3.71
 -13   1  12   26.60    4.77
  13  -1 -12   27.02    3.94
 -13   1  11    9.74    4.38
  13  -1 -11    4.88    3.66
 -13   1  10   31.18    4.79
  13  -1 -10   32.54    4.16
 -13   1   9   15.95    4.51
  13  -1  -9    4.56    3.67
 -13   1   8   31.38    4.89
  13  -1  -8   31.33    4.22
 -13   1   7   83.25    5.93
  13  -1  -6   76.76    5.13
  13  -1  -5   12.75    4.06
  13  -1  -4    6.58    3.88
 -13   1   3   21.97    4.67
  13  -1  -3   28.73    4.31
 -13   1   2   98.77    6.13
  13  -1  -2   89.15    5.48
 -13   1   1   61.33    5.40
  13  -1  -1   67.16    5.03
 -13   1   0    9.08    4.38
  13  -1   0    7.10    3.96
  13  -1   1   32.21    4.81
 -13   1  -1   22.42    4.57
  13  -1   1   28.91    4.32
  13  -1   2    5.15    4.55
 -13   1  -2   -1.85    4.29
  13  -1   2   -2.32    3.97
  13  -1   3   -2.34    4.65
 -13   1  -3    4.78    4.18
  13  -1   3    3.12    3.79
 -13   1  -4    8.98    4.01
  13   0 -16    5.27    3.61
 -13   0  15   38.76    4.88
  13   0 -15   48.09    4.21
 -13   0  14   29.17    4.73
  13   0 -14   37.23    4.05
 -13   0  13   22.37    4.69
  13   0 -13   24.92    3.88
 -13   0  12   49.72    5.13
  13   0 -12   39.15    4.11
 -13   0  11   37.17    5.08
  13   0 -11   42.32    4.23
 -13   0  10   77.22    5.77
  13   0 -10   80.20    4.91
 -13   0   9    0.14    4.37
  13   0  -9    1.93    3.57
 -13   0   8   23.07    4.70
 -13   0   7    7.52    4.44
  13   0  -6   67.62    4.89
  13   0  -5  224.38    8.17
 -13   0   4   83.40    5.99
  13   0  -4   83.60    5.16
 -13   0   3    6.06    4.29
  13   0  -3    7.29    3.88
 -13   0   2    1.79    4.31
  13   0  -2   -2.16    3.88
 -13   0   1   32.36    4.81
  13   0  -1   32.09    4.31
  13   0   0   29.06    4.54
 -13   0   0   24.48    4.61
  13   0   0   30.02    4.25
  13   0   1   39.71    4.87
 -13   0  -1   38.49    4.73
  13   0   1   27.27    4.26
  13   0   2   48.60    5.21
 -13   0  -2   39.64    4.73
  13   0   2   36.40    4.36
 -13   0  -3   39.71    4.75
  13   0   3   60.56    5.38
  13   1 -16   60.72    4.39
 -13  -1  15   21.82    4.64
  13   1 -15   18.47    3.81
 -13  -1  14   11.50    4.51
  13   1 -14    7.62    3.63
 -13  -1  13   11.81    4.48
  13   1 -13    6.83    3.62
 -13  -1  12   28.83    4.85
  13   1 -12   24.03    3.86
 -13  -1  11   34.67    4.97
  13   1 -11   29.56    3.99
 -13  -1  10   37.07    5.03
  13   1 -10   44.52    4.12
 -13  -1   9   70.86    5.88
  13   1  -9   86.41    5.06
 -13  -1   8   57.82    5.46
  13   1  -7    9.56    3.86
  13   1  -6    6.11    3.74
  13   1  -5   11.60    3.81
 -13  -1   4    8.19    4.42
  13   1  -4    4.63    3.69
 -13  -1   3   59.33    5.55
  13   1  -3   78.11    4.96
 -13  -1   2   25.85    4.68
  13   1  -2   30.26    4.22
 -13  -1   1   24.67    4.74
  13   1  -1   27.70    4.15
  13   1   0   38.19    4.80
 -13  -1   0   28.23    4.72
  13   1   0   33.05    4.29
  13   1   1    0.49    4.32
 -13  -1  -1    2.80    4.16
  13   1   1   -2.37    3.81
  13   1   2   22.95    4.77
  13   1   2   25.03    4.10
 -13  -1  -3    3.37    4.04
  13   2 -17   -4.58    3.52
 -13  -2  16    0.11    4.30
  13   2 -16    1.68    3.54
 -13  -2  15   12.97    4.54
  13   2 -15   16.30    3.76
 -13  -2  14   91.37    6.15
  13   2 -14   96.59    5.17
 -13  -2  13   93.30    6.34
  13   2 -13  102.22    5.21
 -13  -2  12   13.26    4.64
  13   2 -12   13.52    3.76
 -13  -2  11    1.96    4.52
  13   2 -11    7.36    3.73
 -13  -2  10    2.86    4.57
  13   2 -10   18.43    3.76
 -13  -2   9   12.44    4.67
 -13  -2   8   25.30    4.76
  13   2  -7   82.69    5.04
  13   2  -6   73.18    4.86
 -13  -2   5   43.28    5.23
  13   2  -5   41.39    4.38
  13   2  -4   10.09    3.84
 -13  -2   4   11.96    4.64
  13   2  -4    6.70    3.77
  13   2  -3   16.36    4.00
 -13  -2   3   17.03    4.70
  13   2  -3   16.00    4.03
  13   2  -2    3.02    4.02
 -13  -2   2    3.73    4.31
  13   2  -2    1.05    3.88
 -13  -2   1   20.56    4.52
  13   2  -1   18.51    4.05
 -13  -2   0   75.44    5.71
  13   2   0   94.05    5.27
  13   2   1   60.98    4.72
  13   2   1   68.29    5.27
  13   2   2   29.50    4.91
 -13  -2  -2   21.14    4.46
  13   3 -17   11.13    3.71
 -13  -3  16   -5.00    4.61
  13   3 -16   -0.94    3.66
 -13  -3  15    5.06    4.52
  13   3 -15   -2.87    3.74
 -13  -3  14    0.66    4.52
  13   3 -14    2.99    3.67
 -13  -3  13   17.24    4.86
  13   3 -13   14.68    3.81
 -13  -3  12   72.40    5.92
  13   3 -12   70.75    4.80
 -13  -3  11  173.96    8.46
  13   3 -11  205.94    7.31
 -13  -3  10   52.56    5.62
  13   3 -10   58.76    4.51
 -13  -3   9   11.98    4.68
 -13  -3   8   -7.12    4.81
  13   3  -8   -0.98    3.70
  13   3  -7    4.86    3.38
 -13  -3   7    8.72    4.74
  13   3  -7    2.61    3.87
  13   3  -6   18.87    3.74
  13   3  -6   21.05    4.04
 -13  -3   5  102.12    6.67
  13   3  -5  109.40    5.62
  13   3  -5  108.42    5.36
  13   3  -4   85.87    5.21
  13   3  -4   82.62    5.07
 -13  -3   3   60.30    5.58
  13   3  -3   64.68    4.80
  13   3  -3   63.92    4.86
  13   3  -2   38.94    4.63
 -13  -3   2   38.38    5.12
  13   3  -2   35.31    4.35
  13   3  -1    5.23    4.32
 -13  -3   1    9.33    4.43
  13   3  -1    5.50    3.93
 -13  -3   0   -1.86    4.31
  13   3   0    0.40    3.84
  13   3   1   26.86    4.79
 -13  -3  -1   20.99    4.43
  13   3   1   22.06    4.15
 -13  -3  -2   27.20    4.48
 -13  -4  16   24.18    4.93
  13   4 -16   28.77    4.15
 -13  -4  15   21.23    4.92
  13   4 -15   34.83    4.18
 -13  -4  14    8.75    4.70
  13   4 -14   20.39    3.94
  13   4 -13   19.87    2.82
 -13  -4  13   18.01    4.93
  13   4 -13   25.16    4.08
  13   4 -12   -0.32    2.72
 -13  -4  12    2.49    4.58
  13   4 -12   -2.22    3.84
  13   4 -11    8.34    2.91
 -13  -4  11    8.98    4.74
  13   4 -11    8.86    3.83
  13   4 -10   12.28    3.13
 -13  -4  10    4.40    4.70
 -13  -4   9   40.27    5.42
  13   4  -9   46.11    3.74
  13   4  -8   66.00    4.89
  13   4  -8   73.40    4.37
  13   4  -7   58.90    4.73
  13   4  -7   59.79    4.25
  13   4  -6    0.08    3.50
 -13  -4   6   -3.40    4.78
  13   4  -6   -0.09    3.84
  13   4  -5   11.18    3.76
 -13  -4   5    8.63    4.68
  13   4  -5   18.25    4.14
  13   4  -4   16.39    3.98
 -13  -4   4   15.04    4.74
  13   4  -4   13.83    4.13
  13   4  -3   29.56    4.27
 -13  -4   3   21.83    4.80
  13   4  -3   33.49    4.47
  13   4  -2   44.42    4.68
 -13  -4   2   41.04    5.22
  13   4  -2   37.40    4.59
  13   4  -1   15.97    4.41
 -13  -4   1   14.70    4.58
  13   4  -1   20.31    4.21
 -13  -4   0   10.26    4.42
  13   4   0   15.99    4.09
 -13  -4  -1   -3.77    4.25
 -13  -5  17   31.87    5.00
 -13  -5  16    7.00    4.89
 -13  -5  15    2.21    4.66
 -13  -5  14   21.75    5.16
  13   5 -14   18.11    4.13
 -13  -5  13   13.27    5.01
  13   5 -13    3.08    3.91
  13   5 -12   13.73    2.80
 -13  -5  12   15.09    5.05
  13   5 -12    8.05    3.90
 -13  -5  11   29.39    5.39
  13   5 -11   35.20    3.36
 -13  -5  10   38.90    5.58
  13   5 -10   38.71    3.52
  13   5  -9   16.60    3.28
 -13  -5   9   13.27    4.92
  13   5  -9   13.66    4.16
  13   5  -8    7.40    3.31
  13   5  -8    4.76    4.03
  13   5  -7  108.68    5.92
  13   5  -7  119.70    5.38
 -13  -5   6   50.82    5.71
  13   5  -6   58.00    4.87
  13   5  -6   59.19    4.39
  13   5  -5   10.36    3.75
 -13  -5   5    0.87    4.74
  13   5  -5    2.01    4.03
  13   5  -4   19.97    4.01
 -13  -5   4   22.49    4.95
  13   5  -4   19.70    4.36
  13   5  -3   38.37    4.52
  13   5  -3   37.00    4.59
  13   5  -2    4.88    4.10
 -13  -5   2    0.90    4.52
  13   5  -1    9.44    4.20
 -13  -5   1    6.83    4.56
 -13  -5   0    7.76    4.40
 -13  -5  -1    9.31    4.26
  13   6 -17   -0.53    4.05
 -13  -6  17    3.90    4.77
 -13  -6  16    1.38    4.85
 -13  -6  15   52.71    5.88
 -13  -6  14   43.95    5.69
 -13  -6  13    4.16    4.94
  13   6 -12    9.92    2.68
 -13  -6  12   10.65    5.06
  13   6 -12    9.88    4.15
  13   6 -11   22.90    3.03
 -13  -6  11   16.46    5.29
  13   6 -11   16.71    4.27
 -13  -6  10   28.94    5.54
  13   6 -10   43.02    3.50
  13   6  -9   52.78    4.92
  13   6  -9   47.55    3.81
  13   6  -8   26.77    3.58
  13   6  -8   30.00    4.54
  13   6  -7    0.14    3.43
 -13  -6   7   -4.37    5.03
  13   6  -7    3.50    4.23
  13   6  -6    1.66    3.57
 -13  -6   6   -3.62    4.91
  13   6  -6   -4.80    4.21
  13   6  -5    9.93    3.80
 -13  -6   5   12.31    4.98
  13   6  -4   32.46    4.34
 -13  -6   4   27.08    5.28
  13   6  -3   33.82    4.47
 -13  -6   3   27.68    5.24
  13   6  -2   20.14    4.55
 -13  -6   2   15.59    4.84
 -13  -6   1   24.61    4.87
  13   7 -16    0.49    4.28
 -13  -7  16    2.31    4.98
 -13  -7  15    4.51    5.11
 -13  -7  14   12.00    5.39
 -13  -7  13   29.05    5.63
 -13  -7  12   20.72    5.40
  13   7 -11    1.15    2.79
 -13  -7  11    1.15    5.21
  13   7 -10    3.69    2.97
 -13  -7  10    0.99    5.20
  13   7  -9    5.20    3.16
  13   7  -8   26.89    3.67
  13   7  -7    7.35    3.61
 -13  -7   7    8.24    5.08
  13   7  -6   33.78    4.16
 -13  -7   6   35.73    5.62
  13   7  -5   10.95    4.02
 -13  -7   5    6.06    5.08
  13   7  -4    2.14    4.07
 -13  -7   4   11.51    4.96
  13   7  -3    2.07    4.37
  13   7  -3    0.98    4.49
 -13  -7   3    6.31    4.91
  13   8 -15    0.09    4.41
 -13  -8  15   -4.08    5.35
  13   8 -14    3.82    4.49
 -13  -8  14    4.37    5.38
  13   8 -13    1.58    4.57
 -13  -8  13    4.15    5.35
 -13  -8  12    2.02    5.47
 -13  -8  11   27.06    6.02
  13   8 -10   46.42    3.73
  13   8  -9   13.36    3.39
  13   8  -8    5.54    3.59
 -13  -8   8    6.83    5.65
  13   8  -7   11.38    3.71
  13   8  -7   -0.39    4.80
 -13  -8   7    0.64    5.37
  13   8  -6    3.62    3.95
  13   8  -6   -6.95    4.97
 -13  -8   6   -0.15    5.11
  13   8  -5    8.66    4.29
  13   8  -5    7.54    4.80
 -13  -8   5    8.45    5.10
  13   9  -9    3.32    3.44
  13   9  -8   16.07    3.84
  13   9  -7   35.10    4.38
  13   9  -6   26.20    4.45
  13  10  -8    5.72    3.77
 -14   8   5   12.14    5.62
 -14   8   4    0.77    5.40
 -14   8   3    9.82    5.16
 -14   7   7    9.38    5.95
  14  -7  -6    4.21    5.13
 -14   7   6   12.94    5.84
 -14   7   5   69.41    6.46
  14  -7  -4   68.52    6.54
 -14   7   4   61.83    6.07
  14  -7  -3   43.34    6.04
 -14   7   3   42.28    5.51
  14  -7  -2   58.77    6.28
 -14   7   2   53.44    5.45
  14  -7  -1   -8.08    5.47
  14  -6  -9   13.18    4.75
 -14   6   9    9.76    6.07
  14  -6  -8   14.98    4.97
 -14   6   8   15.16    6.04
  14  -6  -7   17.04    5.10
 -14   6   7   26.58    5.94
 -14   6   6    2.65    5.05
  14  -6  -6    1.32    4.98
 -14   6   6   -3.51    5.34
 -14   6   5   -2.11    5.20
 -14   6   5    2.75    5.24
  14  -6  -4   27.21    5.57
 -14   6   4   32.96    5.24
  14  -6  -3   87.97    6.58
 -14   6   3   76.35    5.98
 -14   6   2   46.60    5.81
  14  -6  -2   43.70    5.84
 -14   6   2   47.29    5.12
  14  -6  -1   33.57    5.66
  14  -6   0   35.88    5.74
  14  -6   1   -1.42    5.23
  14  -5 -11   -6.40    4.54
 -14   5  10    1.56    4.94
  14  -5 -10   -1.00    4.50
 -14   5  10    4.25    5.89
 -14   5   9    2.83    4.97
  14  -5  -9    2.67    4.48
 -14   5   9    0.79    5.74
 -14   5   8   -0.14    4.97
  14  -5  -8    3.26    4.66
 -14   5   8    4.53    5.41
 -14   5   7  112.08    7.02
  14  -5  -7  122.27    6.77
 -14   5   6   56.65    5.98
 -14   5   6   64.21    6.23
 -14   5   5   14.66    5.14
  14  -5  -5   13.61    5.14
 -14   5   5   16.27    5.08
 -14   5   4   -5.34    4.95
  14  -5  -4   -0.65    4.85
 -14   5   4    2.55    4.74
  14  -5  -3    5.11    5.00
 -14   5   3    2.95    4.45
 -14   5   2    1.24    4.95
  14  -5  -2    4.30    4.83
 -14   5   2    4.75    4.18
 -14   5   1   17.43    5.11
  14  -5  -1   20.49    5.11
 -14   5   0   30.72    5.38
  14  -5   0   35.32    5.60
 -14   5  -1   22.89    5.08
  14  -5   1   18.28    5.09
  14  -5   2   60.94    5.74
  14  -4 -13    3.42    4.10
 -14   4  12   13.33    4.93
  14  -4 -12   12.53    4.34
 -14   4  11   70.82    5.97
  14  -4 -11   63.06    5.29
 -14   4  10   65.27    5.93
  14  -4 -10   53.26    5.16
 -14   4   9   26.46    5.29
  14  -4  -9   20.84    4.67
 -14   4   8   12.86    5.00
  14  -4  -8   13.77    4.58
 -14   4   7    7.03    4.94
  14  -4  -7    2.40    4.64
 -14   4   6    3.97    5.00
  14  -4  -5   44.49    5.32
 -14   4   5   36.26    5.12
  14  -4  -4   55.18    5.56
 -14   4   4   46.75    5.12
 -14   4   3  120.74    7.09
  14  -4  -3  118.67    6.84
 -14   4   3  106.14    6.12
 -14   4   2   35.53    5.39
  14  -4  -2   42.75    5.50
 -14   4   2   38.61    4.53
 -14   4   1    5.52    4.81
  14  -4  -1    6.08    4.83
 -14   4   0    2.28    4.71
  14  -4   0   -0.59    4.83
 -14   4  -1    4.31    4.80
  14  -4   1   -1.49    4.75
 -14   4  -2   31.96    5.12
  14  -4   2   36.93    5.20
  14  -4   3   45.55    5.24
  14  -3 -14   39.47    4.40
 -14   3  13   33.64    5.21
  14  -3 -13   22.56    4.28
 -14   3  12   10.14    4.78
  14  -3 -12    5.41    4.12
 -14   3  11   29.32    5.29
  14  -3 -11   30.22    4.63
 -14   3  10   16.33    5.08
  14  -3 -10    6.43    4.23
 -14   3   9   70.88    6.06
  14  -3  -9   51.32    5.12
 -14   3   8   88.32    6.61
  14  -3  -8   97.96    5.98
 -14   3   7    9.99    5.08
 -14   3   6    5.53    5.05
  14  -3  -6    2.23    4.47
  14  -3  -5    8.53    4.65
  14  -3  -4   11.41    4.71
 -14   3   3   55.52    5.87
  14  -3  -3   44.70    5.25
 -14   3   2   36.62    5.41
  14  -3  -2   32.56    5.16
 -14   3   2   28.46    4.16
 -14   3   1   40.63    5.47
  14  -3  -1   43.33    5.21
 -14   3   0   37.14    5.27
  14  -3   0   30.10    5.13
 -14   3  -1    9.47    4.68
  14  -3   1   17.10    4.67
 -14   3  -2    0.11    4.46
  14  -3   2   -4.60    4.51
 -14   3  -3    0.11    4.36
  14  -2 -15    4.64    3.82
 -14   2  14    9.69    4.73
  14  -2 -14    8.20    3.91
 -14   2  13    4.96    4.74
  14  -2 -13    1.67    3.91
 -14   2  12    7.82    4.93
  14  -2 -12    8.91    4.09
 -14   2  11   29.16    5.29
  14  -2 -11   28.18    4.38
 -14   2  10   16.77    5.03
  14  -2 -10   17.15    4.20
 -14   2   9    0.71    4.83
  14  -2  -9    2.93    4.14
 -14   2   8    2.74    4.78
  14  -2  -8   -8.03    4.44
 -14   2   7   18.26    5.04
  14  -2  -6   27.76    4.77
  14  -2  -5   -2.60    4.28
  14  -2  -4    9.95    4.47
 -14   2   3   48.88    5.64
  14  -2  -3   52.82    5.22
 -14   2   2   10.95    4.84
  14  -2  -2   12.20    4.60
 -14   2   1    0.93    4.83
  14  -2  -1   -3.44    4.54
 -14   2   0    4.23    4.80
  14  -2   0    5.28    4.45
  14  -2   1   30.62    5.17
 -14   2  -1   32.58    5.06
  14  -2   1   30.06    4.70
 -14   2  -2   34.26    4.93
  14  -2   2   38.89    4.76
 -14   2  -3    7.80    4.37
  14  -1 -15   22.91    4.09
 -14   1  14    8.47    4.88
  14  -1 -14    7.05    3.87
 -14   1  13   11.47    4.83
  14  -1 -13    5.28    3.94
 -14   1  12    0.13    4.80
  14  -1 -12    4.63    3.92
 -14   1  11    4.70    4.66
  14  -1 -11    5.33    4.01
 -14   1  10   65.18    5.97
  14  -1 -10   73.26    5.17
 -14   1   9   47.97    5.74
  14  -1  -9   48.19    4.78
 -14   1   8   20.79    5.14
 -14   1   7   16.31    4.95
  14  -1  -6   20.59    4.49
  14  -1  -5    1.50    4.21
 -14   1   4   90.42    6.56
  14  -1  -4   92.76    5.79
 -14   1   3   24.72    5.12
  14  -1  -3   23.65    4.62
 -14   1   2   44.36    5.48
  14  -1  -2   42.57    4.86
 -14   1   1   27.58    5.05
  14  -1  -1   27.94    4.64
  14  -1   0   28.37    4.93
 -14   1   0   27.43    4.98
  14  -1   0   17.38    4.48
  14  -1   1   10.12    4.81
 -14   1  -1    7.26    4.58
  14  -1   1    4.72    4.28
 -14   1  -2   -1.45    4.44
  14  -1   2    7.41    4.21
 -14   1  -3   14.41    4.34
  14   0 -16    7.02    3.75
 -14   0  15   21.49    5.00
  14   0 -15   34.48    4.22
 -14   0  14   37.54    5.29
  14   0 -14   29.34    4.30
 -14   0  13   23.08    5.14
  14   0 -13   27.59    4.23
 -14   0  12   10.32    4.98
  14   0 -12   12.21    3.93
 -14   0  11   11.15    4.93
  14   0 -11    6.22    3.88
 -14   0  10   -0.15    4.81
  14   0 -10    2.67    3.93
 -14   0   9    4.78    4.83
  14   0  -9   -4.31    4.10
 -14   0   8   30.47    5.34
  14   0  -7   33.55    4.58
  14   0  -6   66.34    5.14
  14   0  -5    4.80    4.16
 -14   0   4    6.39    4.86
  14   0  -4   -3.36    4.15
 -14   0   3    8.77    4.89
  14   0  -3    2.81    4.29
 -14   0   2    5.56    4.76
  14   0  -2    7.99    4.28
 -14   0   1   14.17    4.80
  14   0  -1   20.43    4.49
  14   0   0   13.45    4.88
 -14   0   0   12.49    4.78
  14   0   0   10.53    4.27
  14   0   1   26.36    5.05
 -14   0  -1   21.54    4.81
  14   0   1   23.68    4.43
 -14   0  -2   18.59    4.71
  14   1 -16   10.35    3.87
 -14  -1  15    3.35    4.74
  14   1 -15    1.73    3.83
 -14  -1  14    3.99    4.84
  14   1 -14    0.50    3.85
 -14  -1  13    7.69    4.92
  14   1 -13    5.63    3.91
 -14  -1  12   34.03    5.46
  14   1 -12   33.62    4.31
 -14  -1  11   15.93    5.13
  14   1 -11   26.78    4.20
 -14  -1  10    8.50    5.12
  14   1 -10    8.56    4.06
 -14  -1   9   10.26    5.06
 -14  -1   8   28.97    5.35
  14   1  -7    6.81    4.11
  14   1  -6    7.42    4.11
 -14  -1   5   -0.15    4.81
  14   1  -5   -0.30    4.07
 -14  -1   4   27.23    5.38
  14   1  -4   35.05    4.59
 -14  -1   3   47.43    5.70
  14   1  -3   50.36    4.97
  14   1  -3   56.54    5.01
  14   1  -2   10.49    4.46
 -14  -1   2   12.85    4.87
  14   1  -2    9.24    4.29
 -14  -1   1    8.66    4.76
  14   1  -1    8.26    4.29
  14   1   0    1.32    4.72
 -14  -1   0    1.83    4.56
  14   1   0    2.04    4.21
 -14  -1  -1    1.59    4.39
  14   1   1    6.83    4.10
 -14  -1  -2   -1.48    4.30
  14   2 -17    6.17    3.86
 -14  -2  16   11.81    4.89
  14   2 -16    7.40    3.91
 -14  -2  15   16.01    5.04
  14   2 -15   21.16    4.12
 -14  -2  14   67.51    6.09
  14   2 -14   59.79    4.86
 -14  -2  13   15.18    5.19
  14   2 -13   20.30    4.15
 -14  -2  12   23.50    5.36
  14   2 -12   20.34    4.23
 -14  -2  11   -3.98    5.15
  14   2 -11    0.91    3.94
 -14  -2  10   20.35    5.31
  14   2 -10   24.58    4.35
 -14  -2   9   26.84    5.52
  14   2  -8   26.17    4.37
 -14  -2   7   65.32    6.32
  14   2  -7   79.42    5.27
  14   2  -6  110.75    5.96
  14   2  -6  107.20    5.68
  14   2  -5    5.91    3.97
 -14  -2   5    6.95    4.92
  14   2  -5    0.48    4.04
  14   2  -4    8.27    4.17
 -14  -2   4    2.05    4.77
  14   2  -4    6.23    4.28
  14   2  -3    9.92    4.39
 -14  -2   3    3.24    4.82
  14   2  -3    6.07    4.18
  14   2  -2   -0.97    4.38
 -14  -2   2    4.19    4.89
  14   2  -2    3.06    4.23
 -14  -2   1   20.35    5.01
  14   2  -1   32.06    4.59
 -14  -2   0   26.05    4.88
  14   2   0   28.67    4.53
 -14  -2  -1   32.48    4.99
 -14  -3  16   -6.74    5.01
  14   3 -16    4.04    3.87
 -14  -3  15    3.72    4.87
  14   3 -15    1.95    3.95
 -14  -3  14   -0.58    5.10
  14   3 -14    9.22    3.97
 -14  -3  13   22.97    5.46
  14   3 -13   37.01    4.49
 -14  -3  12   86.81    6.78
  14   3 -12   91.72    5.42
 -14  -3  11   47.96    6.02
  14   3 -11   54.52    4.83
 -14  -3  10    9.93    5.17
  14   3 -10   11.51    4.19
  14   3  -9    0.22    3.45
 -14  -3   9   -2.10    5.07
  14   3  -8   24.76    3.89
  14   3  -8   19.64    4.36
  14   3  -7   36.56    4.19
  14   3  -7   35.24    4.67
  14   3  -6    5.47    3.90
 -14  -3   6    4.22    4.90
  14   3  -6   12.62    4.35
  14   3  -5   21.63    4.24
 -14  -3   5   11.07    5.14
  14   3  -5   21.60    4.47
  14   3  -4   39.65    4.58
 -14  -3   4   27.84    5.38
  14   3  -4   44.51    4.83
  14   3  -3   12.56    4.35
 -14  -3   3    9.69    4.84
  14   3  -3   13.25    4.41
  14   3  -2    5.11    4.32
 -14  -3   2    2.42    4.74
  14   3  -2    1.46    4.25
  14   3  -1   -4.62    4.49
 -14  -3   1   -1.65    4.60
  14   3  -1   -2.54    4.16
 -14  -3   0   -1.55    4.62
  14   3   0   12.38    4.26
 -14  -4  16   39.96    5.69
  14   4 -16   33.76    4.52
 -14  -4  15   25.84    5.46
  14   4 -15   17.85    4.22
 -14  -4  14    0.90    5.03
  14   4 -14    5.36    4.13
 -14  -4  13   -2.65    5.07
  14   4 -13   -0.35    4.11
  14   4 -12    0.87    3.05
 -14  -4  12    2.40    5.27
  14   4 -12   -2.10    4.13
  14   4 -11   23.38    3.44
 -14  -4  11   18.50    5.33
  14   4 -11   23.41    4.33
  14   4 -10   25.88    3.62
 -14  -4  10   20.91    5.53
  14   4  -9   30.25    3.89
 -14  -4   9   29.66    5.62
  14   4  -9   32.19    4.58
  14   4  -8   24.22    3.93
 -14  -4   8   17.30    5.42
  14   4  -8   25.10    4.49
  14   4  -7   14.93    3.88
  14   4  -7   12.45    4.43
  14   4  -6    7.29    3.91
 -14  -4   6   14.14    5.17
  14   4  -6    2.70    4.28
  14   4  -5   -3.37    4.08
 -14  -4   5    0.76    5.08
  14   4  -5   -5.85    4.36
  14   4  -4   -5.92    4.17
 -14  -4   4   -4.56    5.03
  14   4  -4    4.14    4.36
  14   4  -3   21.04    4.49
 -14  -4   3   13.18    5.17
  14   4  -3   24.35    4.62
  14   4  -2   51.62    4.96
  14   4  -2   59.83    5.15
 -14  -4   1   22.50    5.00
  14   4  -1   23.75    4.53
 -14  -5  16   -5.55    5.19
 -14  -5  15   18.90    5.50
 -14  -5  14   23.23    5.65
  14   5 -14   21.99    4.45
 -14  -5  13   29.91    5.71
  14   5 -13   25.66    4.55
  14   5 -12   12.87    3.06
 -14  -5  12    9.50    5.39
  14   5 -12   12.76    4.26
  14   5 -11    9.00    3.19
 -14  -5  11    4.82    5.25
  14   5 -11    6.06    4.35
  14   5 -10    7.71    3.24
 -14  -5  10   -6.03    5.21
  14   5  -9    3.74    3.37
  14   5  -9   -1.55    4.36
  14   5  -8   17.94    3.75
  14   5  -8   23.18    4.68
 -14  -5   7   96.81    7.38
  14   5  -7  111.21    6.21
  14   5  -7  111.44    5.51
 -14  -5   6   42.41    6.00
  14   5  -6   43.59    5.06
  14   5  -6   44.43    4.41
  14   5  -5   31.31    4.40
 -14  -5   5   20.67    5.32
  14   5  -5   22.76    4.73
  14   5  -4    8.54    4.27
 -14  -5   4    5.86    5.10
  14   5  -4    9.58    4.47
  14   5  -3   -0.81    4.22
 -14  -5   3    5.03    4.97
  14   5  -3    4.43    4.35
 -14  -6  14   -1.45    5.40
 -14  -6  13   26.33    5.87
 -14  -6  12   20.23    5.72
  14   6 -12   11.57    4.40
  14   6 -11    6.13    3.08
 -14  -6  11    2.22    5.30
  14   6 -10   13.60    3.37
 -14  -6  10   12.99    5.58
  14   6  -9   52.26    5.27
  14   6  -9   63.34    4.26
  14   6  -8    4.23    3.65
  14   6  -8    6.65    4.50
  14   6  -7    0.15    3.77
 -14  -6   7   -0.33    5.39
  14   6  -7   -2.18    4.52
  14   6  -6    9.70    3.96
 -14  -6   6    0.63    5.30
 -14  -6   5   35.15    5.75
  14   6  -5   42.58    4.57
 -14  -7  12   13.26    5.84
 -14  -7  11   -4.84    5.67
  14   7 -10    5.94    3.30
  14   7  -9   21.09    3.73
  14   7  -8    4.32    3.67
 -14  -7   8    7.88    5.64
  14   7  -7   13.59    4.00
  14   7  -6    7.62    4.08
  14   8  -9   -1.60    3.56
  14   8  -8    6.46    3.74
 -15   7   4    6.54    5.31
 -15   6   6   -1.11    5.69
 -15   6   5    7.33    5.30
 -15   6   4   14.66    5.29
 -15   5   8    4.30    5.78
 -15   5   7   56.47    6.41
 -15   5   6   76.75    6.68
 -15   5   5   15.87    5.27
 -15   5   4    2.40    4.83
 -15   4   9   39.97    5.87
  15  -4  -9   38.74    5.34
 -15   4   9   43.83    6.37
 -15   4   8    7.66    5.29
  15  -4  -8    6.79    4.84
 -15   4   8    2.55    5.50
 -15   4   7   50.74    6.12
 -15   4   7   47.26    6.11
 -15   4   6   44.87    5.95
  15  -4  -6   39.48    5.61
 -15   4   6   30.25    5.54
 -15   4   5   74.31    6.62
  15  -4  -5   77.41    6.20
 -15   4   5   66.31    5.93
  15  -4  -4  107.43    6.71
 -15   4   4   72.22    5.93
 -15   4   3   16.19    5.39
  15  -4  -3   12.62    5.20
 -15   4   2    0.42    5.16
  15  -4  -2   -2.14    5.16
 -15   3  11   -5.17    5.38
  15  -3 -11    2.40    4.47
 -15   3  10   14.54    5.33
  15  -3 -10   13.34    4.65
 -15   3   9   85.77    6.94
  15  -3  -9   86.37    6.04
 -15   3   8   57.19    6.32
  15  -3  -8   47.59    5.46
 -15   3   7   13.21    5.56
  15  -3  -6   10.38    4.93
  15  -3  -5    7.74    4.93
 -15   3   4   -4.56    5.44
  15  -3  -4    4.67    4.92
 -15   3   4    7.06    4.52
 -15   3   3   28.29    5.69
  15  -3  -3   30.89    5.36
 -15   3   2   64.84    6.30
  15  -3  -2   60.95    5.80
 -15   3   1   16.32    5.33
  15  -3  -1   26.22    5.15
 -15   2  12   59.19    6.19
  15  -2 -12   45.68    4.97
 -15   2  11   38.66    5.92
  15  -2 -11   38.86    4.89
 -15   2  10    8.33    5.50
  15  -2 -10   14.89    4.48
 -15   2   9   20.21    5.67
  15  -2  -9   21.91    4.84
 -15   2   8   18.20    5.57
 -15   2   7   22.05    5.61
  15  -2  -6   44.31    5.32
  15  -2  -5   63.49    5.74
 -15   2   4   39.93    5.88
  15  -2  -4   46.12    5.45
 -15   2   3   16.53    5.41
  15  -2  -3   19.01    4.93
 -15   2   2    2.45    5.19
  15  -2  -2   -1.23    4.74
 -15   2   1    9.88    5.20
  15  -2  -1    9.17    4.79
 -15   1  13   17.38    5.44
  15  -1 -13   18.41    4.37
 -15   1  12   13.74    5.27
  15  -1 -12    4.99    4.14
 -15   1  11   17.14    5.43
  15  -1 -11   15.70    4.38
 -15   1  10   61.83    6.32
  15  -1 -10   64.24    5.31
 -15   1   9   25.25    5.65
  15  -1  -9   28.47    4.82
 -15   1   8    8.93    5.27
  15  -1  -7    5.98    4.56
  15  -1  -6    6.81    4.53
 -15   1   5   99.33    7.10
  15  -1  -5  101.73    6.38
 -15   1   4   59.53    6.17
  15  -1  -4   51.71    5.38
 -15   1   3   21.81    5.57
  15  -1  -3   22.94    4.83
 -15   1   2   19.32    5.33
  15  -1  -2   22.18    4.87
 -15   1   1   17.18    5.20
  15  -1  -1   15.75    4.76
 -15   0  13    9.30    5.15
  15   0 -13    5.40    4.16
 -15   0  12   17.42    5.41
  15   0 -12   18.10    4.35
 -15   0  11   -7.89    5.34
  15   0 -11   -0.49    4.21
 -15   0  10    0.48    5.20
  15   0 -10   -0.20    4.28
 -15   0   9    2.90    5.26
 -15   0   8   27.13    5.77
  15   0  -7   57.83    5.37
  15   0  -6    9.43    4.60
 -15   0   5    5.79    5.36
  15   0  -5    5.78    4.61
 -15   0   4   -1.82    5.24
  15   0  -4   -4.35    4.60
  15   0  -3    6.61    4.53
  15   0  -3    5.74    4.66
 -15   0   2   12.61    5.20
  15   0  -2   20.75    4.74
 -15   0   1    6.87    5.04
  15   0  -1    5.42    4.50
 -15  -1  14   -1.43    5.11
  15   1 -14    5.26    4.15
 -15  -1  13   15.68    5.43
  15   1 -13   14.21    4.21
 -15  -1  12   35.09    5.88
  15   1 -12   34.70    4.60
 -15  -1  11   14.69    5.50
  15   1 -11   17.88    4.54
 -15  -1  10   17.21    5.55
  15   1 -10   15.80    4.42
 -15  -1   9    6.73    5.46
  15   1  -8   26.19    4.84
  15   1  -7   24.44    4.80
  15   1  -6   23.57    4.80
 -15  -1   5   66.29    6.54
  15   1  -5   71.06    5.54
  15   1  -5   72.62    5.41
 -15  -1   4   83.05    6.79
  15   1  -4   89.63    5.93
  15   1  -4   88.35    5.84
  15   1  -3   38.13    5.07
 -15  -1   3   25.88    5.63
  15   1  -3   33.78    5.06
 -15  -1   2    7.80    5.23
  15   1  -2   11.56    4.52
 -15  -2  14    7.90    5.33
  15   2 -14    7.89    4.21
 -15  -2  13   -0.93    5.43
  15   2 -13    5.79    4.26
 -15  -2  12    1.93    5.36
  15   2 -12   -3.41    4.22
 -15  -2  11   -1.31    5.32
  15   2 -11    5.16    4.30
 -15  -2  10   19.15    5.68
  15   2 -10   11.78    4.51
 -15  -2   9   23.99    5.73
  15   2  -8   43.58    5.04
  15   2  -7   13.12    4.30
  15   2  -7   15.41    4.63
  15   2  -6    0.56    4.18
 -15  -2   6    3.57    5.31
  15   2  -6    0.41    4.46
  15   2  -5    1.44    4.30
 -15  -2   5   14.49    5.50
  15   2  -5    9.06    4.57
  15   2  -4   -0.49    4.42
 -15  -2   4   10.65    5.33
  15   2  -4    1.91    4.59
 -15  -2   3   20.05    5.55
  15   2  -3   19.50    4.68
 -15  -3  13    6.12    5.41
  15   3 -13    5.28    4.27
  15   3 -12   25.72    3.66
 -15  -3  12   17.75    5.78
  15   3 -12   24.45    4.51
  15   3 -11   15.50    3.66
 -15  -3  11   15.83    5.72
  15   3 -11   16.60    4.53
  15   3 -10   10.38    3.71
 -15  -3  10    8.02    5.65
  15   3  -9    1.35    3.77
 -15  -3   9   -5.98    5.60
  15   3  -9   -3.62    4.67
  15   3  -8   16.73    4.20
 -15  -3   8   18.54    5.98
  15   3  -8   22.40    4.78
  15   3  -7    0.26    4.02
  15   3  -7    2.74    4.46
  15   3  -6    5.35    4.27
 -15  -3   6   10.10    5.40
  15   3  -6    4.06    4.56
  15   3  -5    5.67    4.42
 -15  -3   5    6.48    5.39
  15   3  -5    6.84    4.58
  15   3  -4   15.22    4.68
 -15  -3   4    3.18    5.28
  15   3  -4    5.33    4.65
 -15  -4  12   15.31    5.60
  15   4 -12   -0.38    4.30
  15   4 -11   16.20    3.69
 -15  -4  11   11.60    5.79
  15   4 -11   17.43    4.61
  15   4 -10   18.09    3.85
 -15  -4  10    8.37    5.74
  15   4  -9   20.76    4.07
  15   4  -9   25.75    4.87
  15   4  -8   57.73    5.41
  15   4  -8   53.76    4.64
  15   4  -7   24.24    4.34
 -15  -4   7   12.49    5.67
  15   4  -7   14.10    4.73
  15   4  -6    5.09    4.21
 -15  -4   6   -0.65    5.56
  15   4  -6    0.10    4.58
  15   4  -5    5.65    4.22
  15   5 -11   -0.19    3.36
  15   5 -10    9.68    3.56
  15   5  -9   14.81    3.84
  15   5  -8   39.98    4.41
  15   5  -7   10.65    4.16
  15   6 -10    2.04    3.50
  15   6  -9    0.92    3.66
  15   6  -8    2.33    3.83
 -16   4   6    8.36    5.34
 -16   3   6   11.84    5.17
  16   2 -10    7.00    4.12
  16   2  -9   38.87    4.74
  16   2  -8   50.69    5.04
  16   3 -11    5.74    3.81
  16   3 -10    1.11    3.95
  16   3  -9    0.58    4.15
  16   4 -11   16.45    3.91
   0   0   0    0.00    0.00


TITL jmw_EL1_Mo2 in P-1
REM P-1 (#2 in standard setting)
CELL 0.71073   9.743227   9.752485  12.226141 110.3271 112.6602  90.2188
ZERR    4.00   0.000372   0.000375   0.000385   0.0032   0.0033   0.0031
LATT  1
SFAC C H N O Se
UNIT 92.00 80.00 16.00 4.00 4.00
TREF
HKLF 4
END
_computing_structure_solution     'SHELXT 2018/2 (Sheldrick, 2018)'
;
_shelx_hkl_checksum                79226
_olex2_submission_special_instructions  'No special instructions were received'
