data_tf-12-smart-abs
_audit_creation_date               2021-03-17
_audit_creation_method
;
Olex2 1.3
(compiled 2020.11.12 svn.r5f609507 for OlexSys, GUI svn.r6272)
;
_shelx_SHELXL_version_number       '2018/3'
_audit_contact_author_address      ?
_audit_contact_author_email        ?
_audit_contact_author_name         ''
_audit_contact_author_phone        ?
_publ_contact_author_id_orcid      ?
_publ_section_references
;
Dolomanov, O.V., Bourhis, L.J., Gildea, R.J, Howard, J.A.K. & Puschmann, H.
 (2009), J. Appl. Cryst. 42, 339-341.

Sheldrick, G.M. (2015). Acta Cryst. A71, 3-8.

Sheldrick, G.M. (2015). Acta Cryst. C71, 3-8.
;
_chemical_name_common              ?
_chemical_name_systematic          ?
_chemical_formula_moiety           'C14 H8 N2 O Se'
_chemical_formula_sum              'C14 H8 N2 O Se'
_chemical_formula_weight           299.18
_chemical_melting_point            ?
_chemical_oxdiff_formula           'C14 H8 O N2 Se'
_chemical_oxdiff_usercomment       ebs-cl
loop_
  _atom_type_symbol
  _atom_type_description
  _atom_type_scat_dispersion_real
  _atom_type_scat_dispersion_imag
  _atom_type_scat_source
 'C' 'C' 0.0181 0.0091 'International Tables Vol C Tables 4.2.6.8 and 6.1.1.4'
 'H' 'H' 0.0000 0.0000 'International Tables Vol C Tables 4.2.6.8 and 6.1.1.4'
 'N' 'N' 0.0311 0.0180 'International Tables Vol C Tables 4.2.6.8 and 6.1.1.4'
 'O' 'O' 0.0492 0.0322 'International Tables Vol C Tables 4.2.6.8 and 6.1.1.4'
 'Se' 'Se' -0.7943 1.1372
 'International Tables Vol C Tables 4.2.6.8 and 6.1.1.4'

_shelx_space_group_comment
;
The symmetry employed for this shelxl refinement is uniquely defined
by the following loop, which should always be used as a source of
symmetry information in preference to the above space-group names.
They are only intended as comments.
;
_space_group_crystal_system        'monoclinic'
_space_group_IT_number             15
_space_group_name_H-M_alt          'C 1 2/c 1'
_space_group_name_Hall             '-C 2yc'
loop_
  _space_group_symop_operation_xyz
 'x, y, z'
 '-x, y, -z+1/2'
 'x+1/2, y+1/2, z'
 '-x+1/2, y+1/2, -z+1/2'
 '-x, -y, -z'
 'x, -y, z-1/2'
 '-x+1/2, -y+1/2, -z'
 'x+1/2, -y+1/2, z-1/2'

_cell_length_a                     28.4741(7)
_cell_length_b                     11.5814(3)
_cell_length_c                     7.4663(2)
_cell_angle_alpha                  90
_cell_angle_beta                   91.134(2)
_cell_angle_gamma                  90
_cell_volume                       2461.68(11)
_cell_formula_units_Z              8
_cell_measurement_reflns_used      6397
_cell_measurement_temperature      123(30)
_cell_measurement_theta_max        76.3600
_cell_measurement_theta_min        3.0830
_shelx_estimated_absorpt_T_max     ?
_shelx_estimated_absorpt_T_min     ?
_exptl_absorpt_coefficient_mu      4.034
_exptl_absorpt_correction_T_max    0.842
_exptl_absorpt_correction_T_min    0.634
_exptl_absorpt_correction_type     analytical
_exptl_absorpt_process_details
;
CrysAlisPro 1.171.40.67a (Rigaku Oxford Diffraction, 2019)
Analytical numeric absorption correction using a multifaceted crystal
			model based on expressions derived by R.C. Clark & J.S. Reid.
(Clark, R. C. & Reid, J. S. (1995). Acta Cryst. A51, 887-897)
Empirical absorption correction using spherical harmonics,
 implemented in SCALE3 ABSPACK scaling algorithm.
;
_exptl_absorpt_special_details     ?
_exptl_crystal_colour              'light yellow'
_exptl_crystal_colour_modifier     light
_exptl_crystal_colour_primary      yellow
_exptl_crystal_density_diffrn      1.615
_exptl_crystal_density_meas        ?
_exptl_crystal_density_method      ?
_exptl_crystal_description         needle
_exptl_crystal_F_000               1184
loop_
  _exptl_crystal_face_index_h
  _exptl_crystal_face_index_k
  _exptl_crystal_face_index_l
  _exptl_crystal_face_perp_dist
 -2 1 2 0.0293
 2 -1 -2 0.0364
 -1 0 0 0.0072
 18 -1 -1 0.0421
 15 2 2 0.0628
 -16 3 -2 0.0275
 15 4 -1 0.0624
 16 -3 2 0.0719
 -7 -7 0 0.0781
 0 -5 -3 0.0487
 -8 5 3 0.0438

_exptl_crystal_size_max            0.198
_exptl_crystal_size_mid            0.093
_exptl_crystal_size_min            0.057
loop_
  _exptl_oxdiff_crystal_face_indexfrac_h
  _exptl_oxdiff_crystal_face_indexfrac_k
  _exptl_oxdiff_crystal_face_indexfrac_l
  _exptl_oxdiff_crystal_face_x
  _exptl_oxdiff_crystal_face_y
  _exptl_oxdiff_crystal_face_z
 -2.0028 0.9966 2.0013 -0.0313 -0.4392 0.0654
 2.0028 -0.9966 -2.0013 0.0313 0.4392 -0.0654
 -1.0004 0.0002 -0.0000 0.0022 -0.0045 0.0539
 17.9694 -0.6418 -1.1584 -0.0261 0.3322 -0.9428
 15.3730 2.0300 2.2716 0.0369 -0.4652 -0.8844
 -15.6986 2.9187 -1.6506 0.5228 0.0971 0.8469
 15.3393 3.8394 -1.1749 0.5314 0.0985 -0.8414
 15.6829 -2.9279 1.6540 -0.5241 -0.0974 -0.8460
 -7.1470 -6.9324 0.0942 -0.8437 0.2986 0.4460
 0.4170 -5.3056 -3.4330 -0.3816 0.9206 0.0828
 -7.7281 4.8399 3.1460 0.3628 -0.8752 0.3200

_exptl_transmission_factor_max     ?
_exptl_transmission_factor_min     ?
_diffrn_reflns_av_R_equivalents    0.0304
_diffrn_reflns_av_unetI/netI       0.0285
_diffrn_reflns_Laue_measured_fraction_full  0.991
_diffrn_reflns_Laue_measured_fraction_max  0.970
_diffrn_reflns_limit_h_max         20
_diffrn_reflns_limit_h_min         -35
_diffrn_reflns_limit_k_max         14
_diffrn_reflns_limit_k_min         -14
_diffrn_reflns_limit_l_max         9
_diffrn_reflns_limit_l_min         -9
_diffrn_reflns_number              8242
_diffrn_reflns_point_group_measured_fraction_full  0.991
_diffrn_reflns_point_group_measured_fraction_max  0.970
_diffrn_reflns_theta_full          67.684
_diffrn_reflns_theta_max           77.258
_diffrn_reflns_theta_min           3.105
_diffrn_ambient_environment        N~2~
_diffrn_ambient_temperature        123(30)
_diffrn_detector                   'Hybrid Pixel Array Detector'
_diffrn_detector_area_resol_mean   10.0000
_diffrn_detector_type              HyPix
_diffrn_measured_fraction_theta_full  0.991
_diffrn_measured_fraction_theta_max  0.970
_diffrn_measurement_details
;
List of Runs (angles in degrees, time in seconds):

  # Type    Start    End  Width  t~exp~   \w     \q     \k     \f   Frames
--------------------------------------------------------------------------
  1  \w    -92.00 -28.00   0.50    0.17    --  -48.20 126.00  15.00  128
  2  \w    -82.00 -42.00   0.50    0.67    --  -86.25 145.00-177.00   80
  3  \w   -120.00 -82.00   0.50    0.17    --  -48.20 -57.00 -60.00   76
  4  \w   -119.00 -82.00   0.50    0.17    --  -48.20 -57.00   0.00   74
  5  \w   -106.00 -71.00   0.50    0.17    --  -48.20-126.00 -62.00   70
  6  \w   -115.00 -83.00   0.50    0.17    --  -48.20 -57.00 150.00   64
  7  \w   -114.00 -57.00   0.50    0.17    --  -48.20-145.00 130.00  114
  8  \w     56.00  81.00   0.50    0.17    --   48.20-126.00 -62.00   50
  9  \w     70.00 115.00   0.50    0.67    --  107.75-126.00 -62.00   90
 10  \w     80.00 131.00   0.50    0.67    --  107.75 -77.00 -60.00  102
 11  \w     67.00 112.00   0.50    0.67    --  107.75-113.00 -23.35   90
 12  \w     82.00 131.00   0.50    0.67    --  107.75-145.00 130.00   98
 13  \w     37.00  63.00   0.50    0.67    --  107.75 -61.00 120.00   52
 14  \w     35.00 110.00   0.50    0.67    --  107.75 -77.00  90.00  150
 15  \w     43.00  69.00   0.50    0.67    --  107.75 -61.00 150.00   52
 16  \w     35.00  62.00   0.50    0.67    --  107.75-113.00 -23.35   54
 17  \w     35.00  75.00   0.50    0.67    --  107.75 -77.00 -60.00   80
 18  \w     97.00 177.00   0.50    0.67    --  107.75  45.00-180.00  160
 19  \w     95.00 165.00   0.50    0.67    --  107.75 125.00   0.00  140
 20  \w    102.00 174.00   0.50    0.67    --  107.75  77.00 150.00  144
 21  \w     80.00 134.00   0.50    0.67    --  107.75 145.00-177.00  108
;
_diffrn_measurement_device         'four-circle diffractometer'
_diffrn_measurement_device_type    'XtaLAB Synergy, Dualflex, HyPix'
_diffrn_measurement_method         '\w scans'
_diffrn_orient_matrix_type        
 'CrysAlisPro convention (1999,Acta A55,543-557)'
_diffrn_orient_matrix_UB_11        -0.0021554000
_diffrn_orient_matrix_UB_12        0.1228590000
_diffrn_orient_matrix_UB_13        -0.0789770000
_diffrn_orient_matrix_UB_21        0.0044472000
_diffrn_orient_matrix_UB_22        -0.0502376000
_diffrn_orient_matrix_UB_23        -0.1899801000
_diffrn_orient_matrix_UB_31        -0.0538695000
_diffrn_orient_matrix_UB_32        -0.0090307000
_diffrn_orient_matrix_UB_33        -0.0167190000
_diffrn_radiation_monochromator    mirror
_diffrn_radiation_probe            x-ray
_diffrn_radiation_type             'Cu K\a'
_diffrn_radiation_wavelength       1.54184
_diffrn_source                     'micro-focus sealed X-ray tube'
_diffrn_source_type                'PhotonJet (Cu) X-ray Source'
_reflns_Friedel_coverage           0.000
_reflns_Friedel_fraction_full      .
_reflns_Friedel_fraction_max       .
_reflns_number_gt                  2412
_reflns_number_total               2539
_reflns_odcompleteness_completeness  98.21
_reflns_odcompleteness_iscentric   1
_reflns_odcompleteness_theta       75.12
_reflns_special_details
;
 Reflections were merged by SHELXL according to the crystal
 class for the calculation of statistics and refinement.
 
 Structure factors included contributions from the .fab file.
 
 _reflns_Friedel_fraction is defined as the number of unique
 Friedel pairs measured divided by the number that would be
 possible theoretically, ignoring centric projections and
 systematic absences.
;
_reflns_threshold_expression       'I > 2\s(I)'
_computing_cell_refinement         'CrysAlisPro 1.171.40.67a (Rigaku OD, 2019)'
_computing_data_collection         'CrysAlisPro 1.171.40.67a (Rigaku OD, 2019)'
_computing_data_reduction          'CrysAlisPro 1.171.40.67a (Rigaku OD, 2019)'
_computing_molecular_graphics      'Olex2 1.3 (Dolomanov et al., 2009)'
_computing_publication_material    'Olex2 1.3 (Dolomanov et al., 2009)'
_computing_structure_refinement    'SHELXL 2018/3 (Sheldrick, 2015)'
_computing_structure_solution      'SHELXT 2018/2 (Sheldrick, 2018)'
_refine_diff_density_max           0.566
_refine_diff_density_min           -0.527
_refine_diff_density_rms           0.091
_refine_ls_extinction_coef         .
_refine_ls_extinction_method       none
_refine_ls_goodness_of_fit_ref     1.117
_refine_ls_hydrogen_treatment      constr
_refine_ls_matrix_type             full
_refine_ls_number_parameters       163
_refine_ls_number_reflns           2539
_refine_ls_number_restraints       0
_refine_ls_R_factor_all            0.0324
_refine_ls_R_factor_gt             0.0314
_refine_ls_restrained_S_all        1.117
_refine_ls_shift/su_max            0.001
_refine_ls_shift/su_mean           0.000
_refine_ls_structure_factor_coef   Fsqd
_refine_ls_weighting_details      
 'w=1/[\s^2^(Fo^2^)+(0.0565P)^2^+2.9869P] where P=(Fo^2^+2Fc^2^)/3'
_refine_ls_weighting_scheme        calc
_refine_ls_wR_factor_gt            0.0908
_refine_ls_wR_factor_ref           0.0915
_refine_special_details            ?
_olex2_refinement_description
;
1.a Aromatic/amide H refined with riding coordinates:
 C3(H3), C4(H4), C5(H5), C6(H6), C9(H9), C10(H10), C12(H12), C13(H13)
;
_atom_sites_solution_hydrogens     geom
_atom_sites_solution_primary       dual
_atom_sites_solution_secondary     ?
loop_
  _atom_site_label
  _atom_site_type_symbol
  _atom_site_fract_x
  _atom_site_fract_y
  _atom_site_fract_z
  _atom_site_U_iso_or_equiv
  _atom_site_adp_type
  _atom_site_occupancy
  _atom_site_site_symmetry_order
  _atom_site_calc_flag
  _atom_site_refinement_flags_posn
  _atom_site_refinement_flags_adp
  _atom_site_refinement_flags_occupancy
  _atom_site_disorder_assembly
  _atom_site_disorder_group
 Se1 Se 0.73349(2) 0.22681(2) 0.76431(3) 0.01755(12) Uani 1 1 d . . . . .
 O1 O 0.72865(5) 0.54541(13) 0.5680(2) 0.0233(3) Uani 1 1 d . . . . .
 N1 N 0.70807(6) 0.36134(15) 0.6545(2) 0.0179(3) Uani 1 1 d . . . . .
 N2 N 0.47464(7) 0.3409(2) 0.4563(3) 0.0357(5) Uani 1 1 d . . . . .
 C1 C 0.79183(7) 0.3030(2) 0.7530(3) 0.0186(4) Uani 1 1 d . . . . .
 C2 C 0.78770(7) 0.41105(18) 0.6738(3) 0.0190(4) Uani 1 1 d . . . . .
 C3 C 0.82767(7) 0.47693(19) 0.6418(3) 0.0214(4) Uani 1 1 d . . . . .
 H3 H 0.825249 0.547988 0.584310 0.026 Uiso 1 1 calc R U . . .
 C4 C 0.87108(8) 0.4344(2) 0.6973(3) 0.0247(5) Uani 1 1 d . . . . .
 H4 H 0.898053 0.477376 0.677235 0.030 Uiso 1 1 calc R U . . .
 C5 C 0.87464(8) 0.3276(2) 0.7831(3) 0.0241(5) Uani 1 1 d . . . . .
 H5 H 0.903974 0.301185 0.821699 0.029 Uiso 1 1 calc R U . . .
 C6 C 0.83525(9) 0.2602(2) 0.8117(3) 0.0211(4) Uani 1 1 d . . . . .
 H6 H 0.837703 0.188772 0.868214 0.025 Uiso 1 1 calc R U . . .
 C7 C 0.73954(7) 0.44866(18) 0.6247(3) 0.0195(4) Uani 1 1 d . . . . .
 C8 C 0.65939(7) 0.36384(18) 0.6141(3) 0.0189(4) Uani 1 1 d . . . . .
 C9 C 0.62995(9) 0.2854(2) 0.7007(3) 0.0234(5) Uani 1 1 d . . . . .
 H9 H 0.642479 0.235609 0.786859 0.028 Uiso 1 1 calc R U . . .
 C10 C 0.58251(9) 0.2816(2) 0.6591(3) 0.0253(5) Uani 1 1 d . . . . .
 H10 H 0.563233 0.229118 0.716729 0.030 Uiso 1 1 calc R U . . .
 C11 C 0.56358(7) 0.3564(2) 0.5308(3) 0.0231(4) Uani 1 1 d . . . . .
 C12 C 0.59266(8) 0.4355(2) 0.4442(3) 0.0240(4) Uani 1 1 d . . . . .
 H12 H 0.579977 0.485523 0.358715 0.029 Uiso 1 1 calc R U . . .
 C13 C 0.64022(8) 0.4392(2) 0.4858(3) 0.0227(4) Uani 1 1 d . . . . .
 H13 H 0.659445 0.491883 0.428323 0.027 Uiso 1 1 calc R U . . .
 C14 C 0.51417(8) 0.3496(2) 0.4879(3) 0.0274(5) Uani 1 1 d . . . . .

loop_
  _atom_site_aniso_label
  _atom_site_aniso_U_11
  _atom_site_aniso_U_22
  _atom_site_aniso_U_33
  _atom_site_aniso_U_23
  _atom_site_aniso_U_13
  _atom_site_aniso_U_12
 Se1 0.01844(16) 0.01416(17) 0.01995(17) 0.00010(7) -0.00229(10) -0.00005(7)
 O1 0.0227(7) 0.0158(7) 0.0312(9) 0.0033(6) -0.0052(6) 0.0003(6)
 N1 0.0191(8) 0.0142(8) 0.0202(8) 0.0014(6) -0.0023(6) 0.0004(6)
 N2 0.0234(10) 0.0452(13) 0.0385(12) -0.0012(10) -0.0038(8) -0.0014(9)
 C1 0.0184(9) 0.0200(10) 0.0175(10) -0.0039(8) 0.0012(7) -0.0011(8)
 C2 0.0206(10) 0.0184(10) 0.0178(9) -0.0043(8) -0.0003(7) 0.0009(8)
 C3 0.0227(10) 0.0188(10) 0.0228(11) -0.0010(8) 0.0004(8) -0.0005(8)
 C4 0.0194(10) 0.0241(11) 0.0305(12) -0.0034(9) 0.0012(8) -0.0018(8)
 C5 0.0205(10) 0.0247(11) 0.0272(11) -0.0038(9) -0.0016(8) 0.0038(8)
 C6 0.0246(11) 0.0181(10) 0.0205(11) -0.0021(8) -0.0024(8) 0.0032(8)
 C7 0.0215(10) 0.0172(10) 0.0199(10) -0.0009(8) -0.0005(8) -0.0017(8)
 C8 0.0194(9) 0.0174(10) 0.0197(10) -0.0040(8) -0.0027(7) -0.0004(8)
 C9 0.0228(11) 0.0232(11) 0.0241(12) 0.0033(9) -0.0020(9) 0.0005(8)
 C10 0.0230(11) 0.0254(12) 0.0275(12) 0.0022(9) 0.0017(9) -0.0025(8)
 C11 0.0191(10) 0.0254(11) 0.0249(11) -0.0038(9) -0.0005(8) 0.0028(8)
 C12 0.0234(10) 0.0233(11) 0.0251(11) 0.0003(9) -0.0034(8) 0.0039(8)
 C13 0.0232(10) 0.0217(10) 0.0232(11) 0.0002(8) -0.0016(8) 0.0009(8)
 C14 0.0246(12) 0.0277(11) 0.0299(12) -0.0020(10) 0.0009(9) 0.0004(9)

_geom_special_details
;
 All esds (except the esd in the dihedral angle between two l.s. planes)
 are estimated using the full covariance matrix.  The cell esds are taken
 into account individually in the estimation of esds in distances, angles
 and torsion angles; correlations between esds in cell parameters are only
 used when they are defined by crystal symmetry.  An approximate (isotropic)
 treatment of cell esds is used for estimating esds involving l.s. planes.
;
loop_
  _geom_bond_atom_site_label_1
  _geom_bond_atom_site_label_2
  _geom_bond_distance
  _geom_bond_site_symmetry_2
  _geom_bond_publ_flag
 Se1 N1 1.8973(18) . ?
 Se1 C1 1.885(2) . ?
 O1 C7 1.235(3) . ?
 N1 C7 1.372(3) . ?
 N1 C8 1.413(3) . ?
 N2 C14 1.150(3) . ?
 C1 C2 1.388(3) . ?
 C1 C6 1.395(3) . ?
 C2 C3 1.395(3) . ?
 C2 C7 1.478(3) . ?
 C3 H3 0.9300 . ?
 C3 C4 1.387(3) . ?
 C4 H4 0.9300 . ?
 C4 C5 1.395(3) . ?
 C5 H5 0.9300 . ?
 C5 C6 1.387(3) . ?
 C6 H6 0.9300 . ?
 C8 C9 1.403(3) . ?
 C8 C13 1.399(3) . ?
 C9 H9 0.9300 . ?
 C9 C10 1.381(4) . ?
 C10 H10 0.9300 . ?
 C10 C11 1.393(3) . ?
 C11 C12 1.401(3) . ?
 C11 C14 1.439(3) . ?
 C12 H12 0.9300 . ?
 C12 C13 1.384(3) . ?
 C13 H13 0.9300 . ?

loop_
  _geom_angle_atom_site_label_1
  _geom_angle_atom_site_label_2
  _geom_angle_atom_site_label_3
  _geom_angle
  _geom_angle_site_symmetry_1
  _geom_angle_site_symmetry_3
  _geom_angle_publ_flag
 C1 Se1 N1 85.71(9) . . ?
 C7 N1 Se1 115.49(14) . . ?
 C7 N1 C8 126.23(18) . . ?
 C8 N1 Se1 118.26(14) . . ?
 C2 C1 Se1 111.95(15) . . ?
 C2 C1 C6 121.5(2) . . ?
 C6 C1 Se1 126.56(18) . . ?
 C1 C2 C3 120.2(2) . . ?
 C1 C2 C7 116.22(19) . . ?
 C3 C2 C7 123.5(2) . . ?
 C2 C3 H3 120.7 . . ?
 C4 C3 C2 118.7(2) . . ?
 C4 C3 H3 120.7 . . ?
 C3 C4 H4 119.7 . . ?
 C3 C4 C5 120.6(2) . . ?
 C5 C4 H4 119.7 . . ?
 C4 C5 H5 119.4 . . ?
 C6 C5 C4 121.2(2) . . ?
 C6 C5 H5 119.4 . . ?
 C1 C6 H6 121.1 . . ?
 C5 C6 C1 117.7(2) . . ?
 C5 C6 H6 121.1 . . ?
 O1 C7 N1 124.32(19) . . ?
 O1 C7 C2 125.29(19) . . ?
 N1 C7 C2 110.38(18) . . ?
 C9 C8 N1 118.7(2) . . ?
 C13 C8 N1 121.81(19) . . ?
 C13 C8 C9 119.4(2) . . ?
 C8 C9 H9 119.7 . . ?
 C10 C9 C8 120.5(2) . . ?
 C10 C9 H9 119.7 . . ?
 C9 C10 H10 120.1 . . ?
 C9 C10 C11 119.9(2) . . ?
 C11 C10 H10 120.1 . . ?
 C10 C11 C12 120.0(2) . . ?
 C10 C11 C14 118.9(2) . . ?
 C12 C11 C14 121.1(2) . . ?
 C11 C12 H12 119.9 . . ?
 C13 C12 C11 120.1(2) . . ?
 C13 C12 H12 119.9 . . ?
 C8 C13 H13 120.0 . . ?
 C12 C13 C8 120.0(2) . . ?
 C12 C13 H13 120.0 . . ?
 N2 C14 C11 177.8(3) . . ?

loop_
  _geom_torsion_atom_site_label_1
  _geom_torsion_atom_site_label_2
  _geom_torsion_atom_site_label_3
  _geom_torsion_atom_site_label_4
  _geom_torsion
  _geom_torsion_site_symmetry_1
  _geom_torsion_site_symmetry_2
  _geom_torsion_site_symmetry_3
  _geom_torsion_site_symmetry_4
  _geom_torsion_publ_flag
 Se1 N1 C7 O1 -173.96(18) . . . . ?
 Se1 N1 C7 C2 4.8(2) . . . . ?
 Se1 N1 C8 C9 18.6(3) . . . . ?
 Se1 N1 C8 C13 -159.05(17) . . . . ?
 Se1 C1 C2 C3 -175.33(16) . . . . ?
 Se1 C1 C2 C7 3.6(2) . . . . ?
 Se1 C1 C6 C5 176.75(17) . . . . ?
 N1 Se1 C1 C2 -0.75(16) . . . . ?
 N1 Se1 C1 C6 -179.7(2) . . . . ?
 N1 C8 C9 C10 -177.1(2) . . . . ?
 N1 C8 C13 C12 177.1(2) . . . . ?
 C1 Se1 N1 C7 -2.45(16) . . . . ?
 C1 Se1 N1 C8 178.54(16) . . . . ?
 C1 C2 C3 C4 -2.6(3) . . . . ?
 C1 C2 C7 O1 173.2(2) . . . . ?
 C1 C2 C7 N1 -5.5(3) . . . . ?
 C2 C1 C6 C5 -2.1(3) . . . . ?
 C2 C3 C4 C5 0.2(3) . . . . ?
 C3 C2 C7 O1 -7.8(3) . . . . ?
 C3 C2 C7 N1 173.4(2) . . . . ?
 C3 C4 C5 C6 1.4(4) . . . . ?
 C4 C5 C6 C1 -0.4(3) . . . . ?
 C6 C1 C2 C3 3.7(3) . . . . ?
 C6 C1 C2 C7 -177.4(2) . . . . ?
 C7 N1 C8 C9 -160.3(2) . . . . ?
 C7 N1 C8 C13 22.1(3) . . . . ?
 C7 C2 C3 C4 178.5(2) . . . . ?
 C8 N1 C7 O1 5.0(3) . . . . ?
 C8 N1 C7 C2 -176.31(19) . . . . ?
 C8 C9 C10 C11 -0.3(4) . . . . ?
 C9 C8 C13 C12 -0.5(3) . . . . ?
 C9 C10 C11 C12 0.0(4) . . . . ?
 C9 C10 C11 C14 179.1(2) . . . . ?
 C10 C11 C12 C13 0.1(3) . . . . ?
 C11 C12 C13 C8 0.1(3) . . . . ?
 C13 C8 C9 C10 0.6(4) . . . . ?
 C14 C11 C12 C13 -179.0(2) . . . . ?

_smtbx_masks_void_probe_radius     1.2
_smtbx_masks_void_truncation_radius  1.2
_shelx_res_file
;
TITL tf-12-smart-abs_a.res in C2/c
    tf-12-smart-abs.res
    created by SHELXL-2018/3 at 11:05:46 on 21-Dec-2020
REM Old TITL tf-12-smart-abs in C2/c
REM SHELXT solution in C2/c: R1 0.074, Rweak 0.006, Alpha 0.056
REM <I/s> 0.612 for 130 systematic absences, Orientation as input
REM Formula found by SHELXT: C28 N5 O2 Se2
CELL 1.54184 28.4741 11.5814 7.4663 90 91.134 90
ZERR 8 0.0007 0.0003 0.0002 0 0.002 0
LATT 7
SYMM -X,+Y,0.5-Z
SFAC C H N O Se
UNIT 112 64 16 8 8

L.S. 4 0 0
PLAN  5
CONF
BOND
list 4
fmap 2 53
MORE -1
BOND $H
ACTA
ABIN
REM <olex2.extras>
REM <HklSrc "%.\\tf-12-smart-abs_sq.hkl">
REM </olex2.extras>

WGHT    0.056500    2.986900
FVAR       0.23706
SE1   5    0.733493    0.226809    0.764312    11.00000    0.01844    0.01416 =
         0.01995    0.00010   -0.00229   -0.00005
O1    4    0.728647    0.545406    0.568027    11.00000    0.02274    0.01581 =
         0.03124    0.00327   -0.00522    0.00030
N1    3    0.708065    0.361336    0.654542    11.00000    0.01911    0.01423 =
         0.02023    0.00144   -0.00230    0.00039
N2    3    0.474642    0.340885    0.456286    11.00000    0.02339    0.04517 =
         0.03851   -0.00123   -0.00376   -0.00136
C1    1    0.791835    0.303030    0.753008    11.00000    0.01835    0.01997 =
         0.01748   -0.00385    0.00120   -0.00113
C2    1    0.787696    0.411054    0.673763    11.00000    0.02063    0.01841 =
         0.01782   -0.00431   -0.00032    0.00091
C3    1    0.827667    0.476927    0.641766    11.00000    0.02268    0.01876 =
         0.02279   -0.00100    0.00043   -0.00050
AFIX  43
H3    2    0.825249    0.547988    0.584310    11.00000   -1.20000
AFIX   0
C4    1    0.871080    0.434378    0.697310    11.00000    0.01942    0.02412 =
         0.03047   -0.00340    0.00124   -0.00181
AFIX  43
H4    2    0.898053    0.477376    0.677235    11.00000   -1.20000
AFIX   0
C5    1    0.874643    0.327612    0.783059    11.00000    0.02052    0.02467 =
         0.02717   -0.00383   -0.00156    0.00378
AFIX  43
H5    2    0.903974    0.301185    0.821699    11.00000   -1.20000
AFIX   0
C6    1    0.835252    0.260154    0.811745    11.00000    0.02455    0.01806 =
         0.02049   -0.00210   -0.00238    0.00320
AFIX  43
H6    2    0.837703    0.188772    0.868214    11.00000   -1.20000
AFIX   0
C7    1    0.739539    0.448655    0.624705    11.00000    0.02150    0.01717 =
         0.01987   -0.00091   -0.00049   -0.00172
C8    1    0.659394    0.363842    0.614085    11.00000    0.01939    0.01736 =
         0.01970   -0.00404   -0.00271   -0.00039
C9    1    0.629946    0.285428    0.700709    11.00000    0.02284    0.02319 =
         0.02406    0.00326   -0.00201    0.00046
AFIX  43
H9    2    0.642479    0.235609    0.786859    11.00000   -1.20000
AFIX   0
C10   1    0.582511    0.281593    0.659138    11.00000    0.02296    0.02542 =
         0.02747    0.00223    0.00172   -0.00247
AFIX  43
H10   2    0.563233    0.229118    0.716729    11.00000   -1.20000
AFIX   0
C11   1    0.563581    0.356436    0.530820    11.00000    0.01907    0.02543 =
         0.02487   -0.00385   -0.00048    0.00276
C12   1    0.592656    0.435479    0.444241    11.00000    0.02343    0.02330 =
         0.02512    0.00030   -0.00338    0.00387
AFIX  43
H12   2    0.579977    0.485523    0.358715    11.00000   -1.20000
AFIX   0
C13   1    0.640217    0.439223    0.485761    11.00000    0.02321    0.02169 =
         0.02322    0.00017   -0.00163    0.00087
AFIX  43
H13   2    0.659445    0.491883    0.428323    11.00000   -1.20000
AFIX   0
C14   1    0.514167    0.349648    0.487926    11.00000    0.02463    0.02770 =
         0.02992   -0.00202    0.00087    0.00037
HKLF 4




REM  tf-12-smart-abs_a.res in C2/c
REM wR2 = 0.0915, GooF = S = 1.117, Restrained GooF = 1.117 for all data
REM R1 = 0.0314 for 2412 Fo > 4sig(Fo) and 0.0324 for all 2539 data
REM 163 parameters refined using 0 restraints

END

WGHT      0.0565      2.9869

REM Highest difference peak  0.566,  deepest hole -0.527,  1-sigma level  0.091
Q1    1   0.7284  0.3206  0.7558  11.00000  0.05    0.57
Q2    1   0.7584  0.2866  0.7429  11.00000  0.05    0.45
Q3    1   0.7359  0.1240  0.7785  11.00000  0.05    0.42
Q4    1   0.7692  0.2758  0.5126  11.00000  0.05    0.42
Q5    1   0.7581  0.2555  0.6350  11.00000  0.05    0.41
;
_shelx_res_checksum                81533
_shelx_hkl_file
;
   0   0  -1    0.06    0.57
   0   0  -2 3588.53  108.24
   0   0  -3    0.20    1.21
   0   0  -5    0.78    1.46
   0   0  -5    0.19    0.65
   0   0  -6  240.61    9.42
   0   0  -6  244.13   14.66
   0   0   6  247.99   14.49
   0   0  -7    0.55    1.50
   0   0   7   -0.56    2.25
   0   0   8  186.09    7.55
   0   0  -8  226.73    8.26
   0   0   9    0.31    0.32
   0   0  -9    0.11    0.51
   0  -2   0 2235.77   67.26
   0   2   1 1180.43   38.08
   0  -2  -1 1269.86   37.97
   0   2   2 5986.51  179.39
   0  -2  -2 6019.72  179.66
   0  -2  -3   26.68    3.35
   0  -2  -4 2290.45   74.20
   0  -2  -5  608.97   24.51
   0   2  -5  565.92   18.44
   0   2  -5  564.05   24.13
   0   2  -5  556.90   18.77
   0   2  -6  420.60   21.32
   0  -2  -6  452.75   21.71
   0  -2   6  462.46   21.58
   0   2  -6  430.84   15.51
   0   2   6  477.74   21.93
   0   2  -7    9.98    1.65
   0  -2   7   14.74    3.45
   0  -2  -7    6.95    2.77
   0   2  -7    9.16    2.91
   0   2   7   14.67    3.51
   0  -2  -8  182.64    7.34
   0   2  -8  188.27    7.43
   0  -2   9    3.62    0.62
   0  -2  -9    4.17    0.66
   0   2  -9    3.92    0.71
   0  -4   0 1395.67   44.28
   0  -4  -1  100.19    3.89
   0   4  -1  111.34    4.09
   0  -4   1   99.82    4.04
   0   4   1  106.97    3.88
   0   4   2 2517.53   79.39
   0  -4  -2 2568.08   77.41
   0   4  -2 2532.73   77.48
   0   4  -3  452.79   17.63
   0   4   3  478.71   18.92
   0  -4  -3  461.91   17.65
   0   4  -4  471.67   20.15
   0  -4  -4  509.14   20.39
   0   4  -5    9.66    2.67
   0  -4  -5   15.30    3.18
   0  -4  -5   10.51    3.21
   0  -4   5   10.71    2.62
   0   4   5   10.64    2.64
   0   4  -6  411.49   20.85
   0  -4  -6  439.94   21.10
   0  -4   6  391.11   20.19
   0   4  -6  442.43   15.47
   0   4   6  461.88   21.26
   0  -4  -7  108.11    5.19
   0   4  -7  116.49    5.49
   0   4  -7  105.74    5.14
   0  -4  -8   77.51    3.58
   0   4  -8   78.82    3.69
   0   4  -8   72.50    3.68
   0  -4   8   79.79    3.83
   0  -4   9   15.80    1.08
   0  -6   0  756.21   27.43
   0  -6  -1  480.27   19.20
   0   6   2  982.79   35.86
   0   6  -3  104.13    4.46
   0   6  -3  102.74    4.66
   0  -6  -3  110.32    8.09
   0   6  -4  243.23    9.35
   0  -6  -4  266.91   14.76
   0   6  -4  245.80    8.96
   0  -6  -5  615.42   28.24
   0   6  -5  658.67   21.03
   0   6  -5  634.56   21.57
   0   6  -6  115.49    5.69
   0   6  -7  126.36    5.68
   0  -6   8    5.21    0.81
   0   6  -8    5.80    0.85
   0  -8   0    3.71    2.17
   0  -8  -1  682.42   27.68
   0  -8  -2  181.58   11.17
   0  -8   2  186.47   11.72
   0   8   2  194.48   12.66
   0  -8  -3  572.66   25.53
   0   8   3  579.18   26.44
   0   8  -3  562.66   18.80
   0  -8   3  582.08   25.02
   0   8  -4   17.18    1.80
   0   8  -4   19.51    2.13
   0  -8   4   26.33    4.24
   0  -8  -4   18.36    3.98
   0  -8  -5  215.98   14.11
   0   8  -5  230.72    9.33
   0   8  -5  232.22    8.80
   0   8  -6    5.31    1.24
   0   8  -6    4.26    0.87
   0  -8   6    2.91    0.79
   0   8  -7  382.89   12.88
   0 -10   0  463.18   22.51
   0  10   0  448.13   22.67
   0 -10   1  538.60   24.70
   0  10  -1  495.86   24.35
   0  10   1  489.25   24.51
   0  10  -2  112.11    5.17
   0  10  -2  106.89    5.27
   0 -10  -2   82.50    7.86
   0  10  -2   93.89    8.65
   0 -10   2   82.02    8.41
   0  10   3 1018.98   40.82
   0 -10   3  954.04   38.62
   0  10  -3 1036.90   31.83
   0  10  -4    0.21    0.89
   0  10  -5  493.85   16.70
   0  10  -5  527.82   17.28
   0  10  -6    0.77    0.45
   0  10  -6    1.12    0.76
   0  12   0  106.35    5.04
   0  12   0  108.98    5.00
   0  12  -1  450.62   15.21
   0  12  -1  445.29   15.24
   0  12   1  432.92   14.87
   0  12  -2    9.98    1.49
   0  12  -3  422.64   14.51
   0  12  -3  424.72   14.34
   0  12  -4    0.77    0.70
   0  12  -5  365.89   11.53
   0  14   0  287.58    9.39
   0  14  -1  208.61    7.49
   0  14  -1  245.46    7.73
   0  14  -2   24.80    1.41
  -1  -1   9  167.90    6.16
   1  -1  -9  199.74    6.55
   1  -1  -8    1.24    1.06
  -1  -1   8    0.26    0.72
  -1   1   8    0.15    0.59
  -1  -1   7  531.30   25.33
   1  -1  -7  485.96   24.86
   1   1  -7  519.87   25.34
  -1   1   7  603.27   26.58
   1   1  -7  570.00   18.76
   1  -1  -6    0.51    1.61
   1   1  -6    2.04    1.80
  -1   1   6    3.43    2.20
   1  -1  -6    0.96    0.84
  -1  -1   6    2.40    1.79
   1   1  -6    1.63    0.87
   1   1  -5   73.27    3.77
   1  -1  -4    3.63    1.80
   1  -1  -3   16.37    2.57
   1  -1  -2 6083.06  181.77
  -1   1   1  124.21    5.05
  -1   1   0  158.42    4.82
  -1  -1   0  147.48    5.20
  -1   1   0  156.89    4.89
  -1  -1   0  147.35    4.87
   1   1   1  225.15    7.91
  -1  -1  -2   90.32    5.03
  -1  -1  -3    0.22    1.35
  -1  -1  -4  174.16   10.01
  -1   1  -5  398.24   13.86
  -1   1  -5  411.02   13.71
  -1   1  -5  436.33   19.28
  -1  -1  -5  384.45   13.77
  -1   1  -6   34.44    5.09
  -1  -1  -6   29.84    4.83
  -1  -1  -6   29.24    2.43
  -1   1  -6   31.13    2.61
  -1   1  -7  262.28   16.51
  -1  -1  -7  306.21   17.39
   1  -1   7  314.61   17.65
  -1  -1  -7  313.49   11.77
   1   1   7  309.24   17.70
  -1   1  -7  311.93   11.59
  -1  -1  -8    0.20    0.79
   1   1   8    0.52    0.58
  -1  -1  -9  118.82    4.23
   1  -1   9   94.39    3.84
   1   3  -9   93.83    3.60
   1  -3  -9   83.35    3.46
   1   3  -8    3.33    0.88
   1   3  -8    3.32    0.92
   1  -3  -8    1.89    0.85
  -1  -3   8    3.90    0.98
   1  -3  -7   27.85    2.48
   1   3  -7   25.19    2.52
   1   3  -7   27.05    2.44
  -1   3   6  154.23   11.07
   1   3  -6  132.80   10.61
   1  -3  -6  139.32   10.71
   1   3  -6  146.05    6.54
  -1  -3   6  130.88   10.18
   1   3  -5  606.96   25.05
   1  -3  -5  569.06   25.30
   1   3  -5  584.01   19.47
  -1   3   5  591.31   24.51
   1  -3  -5  617.90   25.15
  -1  -3   5  561.19   24.14
   1  -3  -4  105.08    7.92
   1  -3  -3  874.90   30.97
  -1   3   2  542.66   19.51
   1  -3  -1 1598.29   48.92
  -1  -3   1 1546.80   47.58
  -1   3   1 1492.73   47.46
  -1  -3   0  695.35   22.68
  -1   3  -1   19.59    1.48
  -1  -3  -1   22.47    1.49
  -1  -3  -1   23.61    2.39
  -1  -3  -2  220.99    8.73
  -1   3  -2  214.43    8.70
   1   3   2  203.96    9.28
  -1   3  -3  490.71   19.00
   1   3   3  531.62   19.60
  -1  -3  -3  517.04   19.20
  -1  -3  -4    8.58    2.26
  -1  -3  -4    6.94    2.24
  -1   3  -4    5.52    1.77
  -1   3  -5  207.71    8.12
  -1  -3  -5  194.18   12.40
  -1   3  -5  192.93   12.02
  -1  -3  -5  198.37   12.27
  -1   3  -6    6.56    2.72
   1  -3   6    8.42    2.58
  -1  -3  -6    5.02    2.19
  -1   3  -6    7.18    1.48
   1   3   6    8.20    2.71
  -1  -3  -7   92.21    4.88
  -1   3  -7  101.23    5.13
  -1   3  -7   93.27    4.97
  -1  -3  -8    7.21    1.16
  -1   3  -8    5.71    1.11
  -1   3  -8    6.54    1.15
   1  -3   9   91.01    3.25
  -1   3  -9   82.01    3.12
   1   5  -8   98.29    4.16
   1   5  -7  196.24    7.28
   1   5  -7  212.03    7.83
   1   5  -6  113.02    5.39
   1   5  -6  132.97    5.93
   1  -5  -6  124.64    9.27
   1  -5  -6  101.42    5.13
  -1  -5   5   61.46    6.07
   1   5  -5   54.50    5.88
   1  -5  -5   59.85    5.89
   1   5  -5   68.25    3.87
  -1   5   5   54.24    5.75
   1  -5  -5   65.39    7.09
   1  -5  -4   41.08    4.28
  -1   5   4   37.43    4.00
   1   5  -4   38.06    2.58
   1   5  -4   40.25    4.28
   1   5  -4   36.42    2.23
  -1  -5   4   33.14    3.95
   1  -5  -3  178.75    8.71
   1   5  -3  178.48    8.86
  -1   5   3  177.74   10.33
  -1   5   3  182.52    8.67
  -1  -5   3  184.06    8.84
   1  -5  -3  185.51   10.46
  -1   5   2    1.09    1.22
   1  -5  -2    2.69    0.79
  -1   5   2    1.54    0.70
   1   5  -2    2.14    0.77
  -1  -5   2    2.01    0.79
  -1  -5   1   24.17    3.02
   1  -5  -1   15.66    2.45
   1  -5   0    3.25    1.52
  -1  -5   0    4.74    1.60
  -1  -5  -1   39.68    3.64
   1  -5   2    3.95    0.97
   1   5   2    6.90    1.10
  -1  -5  -2    6.35    1.89
  -1  -5  -2    4.85    0.96
  -1   5  -2    5.98    1.09
   1   5   2    7.58    2.17
  -1  -5  -3    5.79    1.44
   1   5   3    3.65    1.18
  -1  -5  -3    4.57    1.98
   1   5   3    4.94    1.96
  -1   5  -3    4.61    1.32
  -1   5  -4    0.62    0.59
  -1   5  -4    1.86    1.43
  -1  -5  -4    0.30    1.11
  -1  -5  -4    0.41    1.53
   1  -5   4    1.42    1.10
   1   5   4    2.20    1.11
  -1   5  -4    0.68    0.67
   1   5   5    4.90    1.99
  -1   5  -5    5.29    0.99
  -1   5  -5    3.56    1.14
  -1   5  -5    3.06    0.92
   1  -5   5    6.88    2.10
  -1   5  -5    4.45    1.88
  -1  -5  -5    4.29    1.86
  -1   5  -6   17.57    2.08
  -1  -5  -6   14.35    1.65
  -1   5  -6   17.48    1.81
  -1  -5  -6   13.61    3.26
  -1   5  -7   77.12    4.17
  -1   5  -7   78.85    3.78
  -1   5  -8   15.76    1.50
   1   7  -8  184.15    5.88
  -1  -7   8  160.76    5.70
   1   7  -7    4.68    1.06
  -1  -7   7    3.17    0.85
   1   7  -6  174.85    7.49
  -1  -7   5   85.16    7.53
   1   7  -5  104.34    5.26
   1   7  -5  100.60    4.72
   1  -7  -5  108.09    9.43
  -1  -7   4  305.53   16.26
   1   7  -4  332.96   11.83
   1   7  -4  315.52   11.29
   1  -7  -4  302.90   17.26
   1  -7  -3   36.22    4.91
   1   7  -3   29.24    2.30
  -1   7   3   28.82    4.64
   1   7  -3   32.50    2.25
  -1  -7   3   35.34    4.53
  -1   7   2   14.34    3.35
  -1  -7   2   18.15    3.27
  -1  -7   1   60.26    5.65
   1  -7  -1   64.64    5.80
   1  -7   0  146.92    9.24
  -1  -7   0  152.12    9.38
  -1  -7  -1   65.33    5.78
   1   7   2   36.54    5.05
  -1  -7  -2   33.01    4.06
   1  -7   2   33.94    4.45
  -1   7  -3   72.49    3.64
   1   7   3   77.52    7.47
  -1  -7  -3   73.46    6.89
  -1   7  -4   64.06    3.52
  -1   7  -4   69.06    3.91
  -1  -7  -4   68.77    7.02
  -1   7  -5   11.67    1.68
  -1   7  -5    9.90    1.38
   1  -7   5    8.27    2.54
  -1   7  -6  115.14    5.21
  -1   7  -6  139.87    6.10
  -1   7  -7    2.96    0.99
   1  -7   7    1.48    0.71
  -1   7  -8   74.23    2.80
   1  -7   8   55.93    2.45
   1   9  -7   72.91    3.19
   1   9  -6  159.58    6.22
   1   9  -6  199.86    7.23
   1   9  -5   93.17    4.51
   1   9  -5   97.67    5.00
  -1  -9   4  315.54   17.26
   1   9  -4  365.49   12.73
   1  -9  -4  320.69   18.35
   1   9  -4  365.05   13.16
   1  -9  -3    1.06    1.57
  -1   9   3    1.76    1.97
   1   9  -3    0.22    0.85
  -1  -9   3    0.48    1.53
  -1  -9   2   22.33    4.23
   1  -9  -2   22.43    4.01
  -1   9   1    4.71    2.49
  -1  -9   1    2.94    2.06
   1  -9   0   35.44    5.09
  -1   9   0   31.56    4.96
  -1  -9  -1    6.06    2.05
  -1   9  -2   96.59    4.78
   1   9   2   92.04    8.98
   1  -9   2   81.59    8.14
  -1   9  -2   92.31    4.59
  -1  -9  -2   88.42    7.62
  -1   9  -3    0.66    0.89
   1   9   3    0.59    2.00
   1  -9   3    4.01    2.11
  -1  -9  -3    0.97    1.72
   1  -9   4   21.16    3.93
  -1  -9  -4   15.55    3.73
  -1   9  -4   21.28    2.05
  -1   9  -5   27.07    2.18
  -1   9  -5   22.55    2.24
  -1   9  -6  100.17    4.61
  -1   9  -6   88.22    3.95
  -1   9  -7   49.63    2.49
   1  11  -6   85.14    3.42
   1  11  -5    8.04    1.21
   1  11  -5    6.52    0.96
   1  11  -4   37.95    2.78
   1  11  -4   37.66    2.53
   1  11  -3   17.89    1.89
   1  11  -2  303.32   11.67
   1  11  -2  323.83   11.61
   1  11  -1   42.52    5.81
  -1 -11   1   36.13    5.40
  -1  11   1   31.34    5.30
   1  11  -1   33.67    2.71
  -1  11   0   30.27    5.19
   1  11   0   40.41    5.96
  -1  11  -1    4.61    1.16
  -1  11  -1    2.07    1.92
   1  11   1    3.57    2.32
  -1  11  -1    4.72    1.27
  -1  11  -2   78.65    4.31
  -1  11  -3   11.24    1.63
  -1  11  -3   10.86    1.54
  -1  11  -4   25.68    2.08
  -1  11  -5    6.31    0.98
  -1  11  -6    6.95    0.85
   1  13  -4   60.62    2.54
   1  13  -3   -0.06    0.59
   1  13  -3   -0.27    0.68
   1  13  -2   66.59    3.35
   1  13  -1    4.63    1.08
   1  13  -1    5.36    1.06
  -1  13   1    4.77    0.90
   1  13   0   11.20    1.32
   1  13   0   10.67    1.31
  -1  13   0   11.16    1.25
  -1  13   0   10.24    1.24
  -1  13  -1  107.39    4.66
   1  13   1  110.96    4.64
  -1  13  -1  106.96    4.66
   1  13   1  108.85    4.49
  -1  13  -2   10.26    1.26
  -1  13  -3    6.51    0.91
  -1  13  -3    6.22    0.94
  -1  13  -4   70.38    2.91
  -1  13  -4   71.39    2.87
  -2   0   9    0.14    0.32
   2   0  -9    0.34    0.57
  -2   0   8  238.68    8.93
   2   0  -8  258.70    9.60
   2   0  -7    1.11    1.52
  -2   0   7    0.55    1.50
   2   0  -6  548.84   25.18
  -2   0   6  569.24   25.31
   2   0  -6  548.18   18.50
  -2   0   5   -0.74    1.54
   2   0  -3    0.40    1.24
   2   0  -2 9999.00  296.53
   2   0  -1    0.93    0.55
  -2   0   0 6260.38  184.70
  -2   0  -1    0.27    0.56
  -2   0  -4  147.43    8.76
  -2   0  -5   -0.86    0.75
  -2   0  -5    0.50    0.75
  -2   0  -5    0.40    1.50
  -2   0  -6  762.40   31.79
  -2   0  -6  764.67   25.08
   2   0   7    1.09    1.06
  -2   0  -7   -0.38    1.00
  -2   0  -7   -1.08    1.82
  -2   0  -8  256.27    9.63
   2   0   9    0.03    0.31
  -2   0  -9   -0.16    0.53
   2  -2  -9   11.71    1.01
   2   2  -9    9.91    0.99
   2  -2  -8   84.14    4.48
   2   2  -8   94.08    4.61
  -2   2   7   46.92    6.34
   2  -2  -7   47.54    6.24
  -2  -2   7   57.66    6.60
  -2   2   7   41.11    2.69
   2   2  -7   43.80    6.04
   2   2  -7   53.00    3.28
   2   2  -6  840.18   35.78
   2  -2  -6  902.44   36.18
   2   2  -6  889.42   28.95
  -2  -2   6  906.99   35.97
  -2  -2   5  128.97    8.87
   2  -2  -5  135.25    9.69
   2   2  -5  116.65    5.40
  -2   2   5  140.40    9.26
   2  -2  -4 2941.70   93.46
   2  -2  -3  263.95   12.22
  -2   2   2 8998.27  267.81
  -2   2   1 1006.32   31.22
  -2  -2   1 1061.18   31.32
  -2   2   1 1064.87   32.20
   2  -2  -1  948.77   31.49
  -2  -2   0 1110.11   34.79
  -2  -2   0 1171.66   34.68
  -2   2   0 1169.52   34.81
  -2   2   0 1182.12   34.66
  -2  -2  -1  291.97   10.31
  -2  -2  -1  273.76    9.65
  -2   2  -1  290.98    9.84
   2   2   2  832.72   27.34
  -2   2  -2  860.69   27.38
  -2  -2  -2  815.50   27.28
  -2  -2  -3  196.21    9.31
  -2   2  -3  189.33    9.26
  -2  -2  -3  201.99    9.81
  -2  -2  -4  839.47   30.39
  -2  -2  -4  803.53   29.73
  -2   2  -4  791.21   29.70
  -2  -2  -5  332.55   16.84
  -2   2  -5  315.53   11.88
  -2   2  -5  316.32   16.58
  -2   2  -5  350.32   11.75
  -2   2  -6  427.22   15.38
  -2   2  -6  447.63   21.63
  -2  -2  -6  444.20   21.56
  -2   2  -7   29.74    4.92
  -2  -2  -7   37.47    5.40
   2  -2   7   29.44    4.98
  -2   2  -7   36.87    2.98
  -2   2  -7   42.37    3.05
  -2  -2  -7   35.10    2.84
   2   2   7   33.33    5.31
  -2  -2  -8  406.86   13.67
  -2   2  -8  384.95   13.62
  -2   2  -9    9.29    0.95
   2  -2   9    8.72    0.90
  -2  -4   9   10.69    0.86
  -2  -4   8  121.88    5.05
   2  -4  -8  117.65    4.89
   2   4  -8  116.42    4.86
   2   4  -8  118.39    5.03
   2  -4  -7   14.17    1.76
   2   4  -7   13.66    1.81
   2   4  -7   15.88    1.82
   2  -4  -6  566.40   24.82
  -2  -4   6  494.35   23.46
  -2   4   6  525.91   24.16
   2   4  -6  536.33   18.26
   2   4  -6  527.62   24.48
   2  -4  -5   43.34    5.31
  -2   4   5   40.17    4.98
   2   4  -5   51.21    3.17
   2   4  -5   45.12    5.33
  -2  -4   5   42.67    5.12
   2  -4  -5   40.72    5.55
  -2   4   4 1915.67   62.37
  -2  -4   4 1902.12   62.52
   2  -4  -4 1940.13   64.87
   2  -4  -3   26.37    3.59
  -2  -4   3   34.13    3.30
  -2   4   3   29.11    2.98
  -2   4   3   26.26    3.45
  -2  -4   2  197.48    8.38
  -2   4   2  222.78   10.14
  -2   4   2  204.74    8.35
  -2  -4   1  485.74   13.31
   2  -4  -1  433.15   12.80
   2  -4   0 3194.21   97.43
  -2  -4  -1  605.97   18.90
  -2   4  -1  568.46   18.89
  -2  -4  -2  767.52   25.84
   2   4   2  805.01   27.88
  -2   4  -2  767.63   25.96
  -2  -4  -3 2237.30   70.17
  -2   4  -3 2182.89   70.16
   2   4   3 2269.23   71.45
  -2  -4  -3 2256.00   71.94
  -2   4  -4 1128.86   39.18
  -2   4  -4 1096.68   34.61
  -2  -4  -4 1149.20   39.26
  -2   4  -5  121.32    5.32
  -2  -4  -5  145.68    9.70
  -2   4  -5  128.58    9.27
  -2   4  -5  129.68    5.83
   2  -4   6  291.91   16.95
  -2   4  -6  369.77   12.73
  -2   4  -6  334.22   17.89
  -2  -4  -6  358.09   12.60
  -2  -4  -6  349.16   18.20
  -2   4  -6  336.45   12.83
   2   4   6  334.82   17.84
  -2  -4  -7  158.37    6.82
  -2   4  -7  178.60    7.38
  -2   4  -7  166.63    6.95
  -2   4  -8  176.28    6.57
  -2  -4  -8  170.07    6.48
  -2   4  -8  174.83    6.78
   2  -4   9   29.69    1.50
  -2  -6   8   12.81    1.14
   2   6  -8   11.66    1.07
  -2  -6   7   17.65    1.69
   2   6  -7   15.89    1.74
   2   6  -6    4.03    1.28
   2  -6  -6    7.13    2.75
   2   6  -5   93.23    4.38
   2   6  -5   97.27    4.97
  -2  -6   5   91.55    7.31
   2   6  -4  549.00   17.96
   2   6  -4  521.10   17.40
  -2   6   3  256.85   13.60
   2  -6  -3  262.11   13.49
   2   6  -3  235.14    8.86
  -2   6   2   95.08    7.24
  -2  -6   2   92.87    6.74
   2  -6  -1  859.27   31.45
  -2  -6   1  905.48   31.38
   2  -6   0 1239.85   42.00
  -2  -6  -1  949.87   33.32
   2   6   2  526.89   21.59
  -2  -6  -2  481.82   19.70
  -2   6  -3  274.59    9.75
   2   6   3  291.73   15.06
  -2  -6  -3  302.45   14.73
  -2  -6  -4  450.29   20.89
  -2   6  -4  435.81   14.81
  -2   6  -4  445.64   15.27
  -2   6  -5  687.00   22.31
  -2   6  -5  700.50   22.90
  -2  -6  -5  641.93   29.05
  -2   6  -6  265.47    9.97
  -2   6  -6  236.76    9.11
  -2   6  -7  185.33    7.54
   2  -6   8   41.57    2.36
  -2   6  -8   52.90    2.57
   2   8  -7  126.52    5.14
  -2  -8   6   25.35    1.90
   2   8  -6   33.28    2.57
   2   8  -5  158.30    6.88
   2  -8  -5  141.25   11.21
  -2  -8   5  138.74    5.85
   2   8  -5  149.07    6.19
   2   8  -4   17.86    2.05
   2  -8  -4   15.08    3.79
   2   8  -4   13.76    1.63
  -2  -8   4   21.15    3.64
   2  -8  -3  346.52   17.85
  -2   8   3  330.18   18.08
   2   8  -3  318.44   11.83
  -2  -8   3  345.30   16.87
   2   8  -3  314.45   11.51
  -2  -8   2  404.74   19.09
  -2  -8   1  901.72   34.27
  -2   8   1  881.42   34.73
   2  -8  -1  890.98   34.21
  -2   8   0   84.68    7.44
   2  -8   0   83.64    7.36
  -2  -8  -1  978.27   34.82
  -2   8  -2   61.99    3.55
   2   8   2   69.11    7.40
  -2  -8  -2   66.51    6.19
   2  -8   2   75.46    7.13
  -2   8  -2   69.46    3.58
  -2   8  -3  888.94   28.35
  -2   8  -3  869.21   28.53
   2  -8   3  990.99   36.47
   2   8   3  937.87   36.97
  -2  -8  -3  874.75   34.71
  -2   8  -4   54.40    3.31
   2  -8   4   62.53    6.79
  -2  -8  -4   51.88    6.30
  -2   8  -5  349.02   12.66
  -2   8  -5  345.00   12.19
  -2   8  -6    7.04    1.09
  -2   8  -6    7.16    1.48
   2  -8   6    5.67    0.99
  -2   8  -7  296.57   10.34
   2  10  -6    0.15    0.66
   2  10  -5  335.25   11.82
   2  10  -5  317.69   11.23
   2  10  -4   38.99    2.78
   2  10  -4   45.51    3.20
   2  10  -3  228.98    9.22
  -2 -10   3  208.30   13.47
   2 -10  -3  208.96   13.89
   2  10  -3  227.12    8.88
  -2 -10   2   48.11    6.04
  -2  10   2   54.16    6.86
   2 -10  -2   50.53    6.10
  -2 -10   1  703.06   30.20
  -2  10   1  699.65   30.84
   2  10   0   19.20    4.40
  -2  10   0   20.11    4.28
   2 -10   0   21.78    4.40
  -2  10  -1  908.82   28.64
  -2  10  -1  906.95   28.68
  -2  10  -2    1.81    1.61
   2 -10   2    1.63    1.61
   2  10   2    2.45    2.38
  -2  10  -2    2.16    1.08
   2  10   3  947.90   39.98
  -2  10  -3  980.52   31.62
  -2  10  -3 1025.35   31.50
  -2  10  -4   26.27    2.26
  -2  10  -5  669.61   21.54
  -2  10  -6   18.99    1.41
  -2  10  -6   29.68    1.96
   2  12  -5  209.18    7.23
   2  12  -4   11.22    1.36
   2  12  -4   12.14    1.23
   2  12  -3  423.20   14.30
   2  12  -2   17.44    1.86
   2  12  -2   16.89    1.77
   2  12  -1  176.25    7.37
  -2  12   1  177.16    6.79
  -2  12   1  169.91    6.85
  -2  12   0  109.87    5.03
  -2  12   0  113.95    5.06
  -2  12  -1  957.37   29.52
  -2  12  -1  903.31   29.41
  -2  12  -2    9.95    1.42
  -2  12  -3  570.71   18.44
  -2  12  -3  554.03   18.44
  -2  12  -4    9.29    1.20
  -2  12  -4   11.56    1.24
  -2  12  -5  313.52    9.76
  -2  12  -5  280.33    9.43
   2  14  -2  135.93    4.90
   2  14  -1  347.13   11.53
   2  14  -1  366.69   11.59
   2  14   0   27.62    1.59
   2  14   0   26.24    1.61
  -2  14  -1  180.39    6.26
  -2  14  -2   85.86    3.36
  -3  -1   9  206.42    7.14
   3  -1  -9  223.16    7.48
  -3  -1   8    1.10    0.78
   3  -1  -8    1.38    1.04
  -3   1   8    1.93    0.69
   3   1  -7  448.45   22.14
   3   1  -7  442.99   14.90
  -3   1   7  381.73   21.11
   3  -1  -7  407.74   21.40
  -3  -1   7  425.86   21.73
   3   1  -6    4.57    2.42
  -3   1   6   11.09    3.15
   3   1  -6    5.32    1.16
  -3  -1   6    9.43    2.95
   3  -1  -6    8.10    2.61
  -3  -1   5  617.60   25.35
   3  -1  -4    8.84    2.43
   3  -1  -3   16.60    2.62
   3  -1  -2 1562.69   48.19
   3   1  -2 1525.34   47.54
   3  -1  -1  562.67   18.10
   3   1  -1  592.13   18.08
  -3  -1   1  619.90   18.83
  -3   1   0    8.45    0.92
  -3   1   0    8.47    0.82
  -3   1   0    8.17    0.81
  -3   1  -1   74.10    3.56
  -3   1  -2  107.80    5.46
   3   1   2  108.58    4.93
  -3   1  -3   28.96    3.11
  -3  -1  -3   27.20    3.17
  -3   1  -4  131.63    8.24
  -3   1  -5   84.61    7.34
  -3   1  -5   82.06    4.21
  -3  -1  -5   82.40    4.22
  -3   1  -5   85.75    4.15
  -3  -1  -5   81.19    4.12
  -3   1  -6   17.09    2.04
  -3   1  -6   17.74    3.81
  -3  -1  -6   21.17    2.11
  -3  -1  -6   14.18    3.50
  -3  -1  -7   61.37    3.82
  -3  -1  -7   53.47    6.52
  -3   1  -7   60.60    6.89
   3  -1   7   58.12    6.82
  -3   1  -7   59.32    3.80
   3   1   7   49.11    6.64
  -3  -1  -8    4.79    1.14
  -3  -1  -9   33.15    1.78
   3  -1   9   23.73    1.46
  -3  -3   9  124.47    4.31
   3   3  -9  109.25    4.13
  -3  -3   8   76.84    3.71
   3   3  -8   80.08    3.89
   3   3  -7   38.87    2.83
  -3   3   6   78.23    7.76
  -3  -3   6   90.47    8.13
   3   3  -6   88.06    4.56
   3  -3  -6   81.64    8.02
   3   3  -6   84.89    8.14
   3  -3  -5  452.24   21.05
  -3   3   5  455.69   19.84
  -3  -3   5  430.15   19.59
   3   3  -5  411.57   14.60
   3  -3  -4 1766.20   59.38
  -3  -3   4 1690.23   57.60
  -3   3   4 1797.90   57.61
   3  -3  -3 1660.70   55.00
  -3  -3   3 1684.32   53.90
  -3   3   3 1700.45   53.74
  -3   3   2  378.50   13.94
  -3  -3   2  412.09   14.24
  -3   3   2  372.19   14.88
  -3   3   1   74.86    3.46
   3  -3  -1   76.22    4.16
  -3  -3   1   83.95    4.24
  -3  -3   1   68.72    3.41
  -3   3   0  422.55   13.70
  -3  -3   0  446.19   13.75
  -3  -3  -1  388.46   12.74
  -3  -3  -1  381.63   11.98
  -3  -3  -2    5.30    1.19
   3   3   2    5.80    1.56
  -3   3  -2    5.05    1.23
  -3  -3  -2    7.98    1.88
   3   3   3  470.92   18.27
  -3  -3  -3  467.40   18.05
  -3   3  -3  481.11   18.22
  -3   3  -4   46.51    4.76
  -3  -3  -4   41.44    4.43
  -3   3  -5   15.73    1.78
  -3   3  -5   14.99    1.47
  -3   3  -5   15.08    3.19
  -3   3  -5   17.75    1.64
  -3  -3  -5   12.54    2.81
  -3  -3  -6   10.05    1.61
  -3   3  -6   10.58    2.89
  -3   3  -6    8.97    1.51
  -3  -3  -6    3.51    2.12
  -3   3  -6    8.11    1.55
  -3   3  -7   28.27    2.57
  -3  -3  -7   26.62    2.36
  -3   3  -7   26.23    2.39
  -3  -3  -8   32.88    2.26
  -3   3  -8   36.27    2.36
  -3   3  -8   32.01    2.35
  -3   3  -9   38.32    1.83
   3  -3   9   43.66    1.98
   3   5  -8  303.62   10.12
  -3  -5   7  556.43   17.93
   3   5  -7  582.23   18.21
   3   5  -7  562.62   17.84
   3   5  -6  208.09    8.41
   3  -5  -6  181.50   13.25
   3  -5  -6  202.00   12.56
  -3   5   5  429.06   19.59
   3   5  -5  445.72   15.36
  -3  -5   5  430.91   20.13
   3  -5  -5  446.69   20.14
   3  -5  -5  474.93   22.45
   3   5  -5  410.43   19.87
   3   5  -4  106.13    7.57
   3   5  -4  122.92    5.29
   3  -5  -4  123.88    7.88
  -3   5   4  103.47    7.41
   3  -5  -4  127.82    9.51
  -3  -5   4  121.92    8.00
  -3   5   3  763.45   29.62
  -3   5   3  760.81   27.20
  -3   5   2   36.75    2.64
  -3  -5   2   38.01    2.82
  -3   5   2   37.78    4.18
   3  -5  -1   52.48    4.25
  -3  -5   1   46.62    2.08
   3  -5   0  492.91   18.80
  -3  -5  -1  223.82    7.51
  -3  -5  -1  548.79   14.29
  -3   5  -2  155.28    6.98
  -3  -5  -2  149.17    6.82
  -3  -5  -2  165.33    8.66
   3   5   3   71.57    6.08
  -3   5  -3   66.34    4.91
  -3  -5  -3   77.72    5.06
  -3  -5  -3   75.21    6.15
  -3  -5  -4   22.52    3.79
  -3   5  -4   20.92    3.14
  -3   5  -4   19.17    1.62
  -3  -5  -4   21.44    3.10
  -3   5  -4   17.00    1.71
  -3  -5  -5   12.11    2.86
  -3   5  -5    7.78    1.36
  -3  -5  -5    8.14    2.81
  -3   5  -5   11.15    1.64
  -3   5  -5   14.59    1.54
   3   5   5   11.02    2.56
   3  -5   5   11.52    2.59
  -3   5  -5   12.57    2.82
  -3   5  -6    2.14    0.87
  -3  -5  -6    0.58    0.73
  -3   5  -6    0.96    0.84
  -3   5  -6    1.44    1.20
  -3  -5  -7   37.64    2.36
  -3   5  -7   36.23    2.73
  -3   5  -7   32.11    2.31
  -3   5  -8    9.36    1.22
  -3  -7   8   62.91    2.49
   3   7  -7   93.23    4.28
  -3  -7   7   91.07    4.02
   3   7  -6  327.68   12.00
  -3  -7   6  324.80   11.47
   3   7  -5  105.38    4.80
   3   7  -5  106.00    5.33
  -3  -7   4   14.65    3.08
   3  -7  -4   18.48    3.98
   3   7  -4   17.97    1.71
   3   7  -4   17.97    1.97
  -3   7   3  168.40   11.45
   3   7  -3  162.78    6.81
   3  -7  -3  145.95   10.63
  -3  -7   2  859.92   32.01
  -3  -7   1   79.27    6.51
  -3   7   1   81.69    6.98
   3  -7  -1   80.90    6.68
  -3   7   0   40.78    4.74
   3  -7   0   46.54    4.87
   3  -7   1  228.48   12.53
  -3  -7  -1  224.37   10.85
   3   7   2  277.15   15.15
  -3   7  -2  269.30    9.54
  -3  -7  -2  280.67   13.50
  -3   7  -2  265.57    9.60
   3   7   3    3.80    2.13
  -3   7  -3    2.84    0.81
  -3  -7  -3    7.21    2.34
  -3   7  -3    3.46    0.96
  -3   7  -4   11.41    1.45
  -3  -7  -4   13.02    3.19
   3   7   4    9.72    3.31
  -3  -7  -5    0.50    1.37
  -3   7  -5   -0.11    0.74
  -3   7  -5    0.38    1.00
  -3   7  -6   23.46    2.28
  -3   7  -6   20.59    1.84
  -3   7  -7    6.62    1.24
  -3   7  -8   24.67    1.49
   3   9  -7   27.47    1.66
   3   9  -6  168.56    6.78
   3   9  -5   25.14    2.03
   3   9  -5   27.06    2.48
   3   9  -4  197.94    8.25
   3   9  -4  196.11    7.79
   3   9  -3    1.30    0.97
  -3   9   3   -0.58    1.58
   3   9  -3    0.79    0.83
   3  -9  -3   -0.55    2.37
  -3  -9   3    0.93    1.64
   3  -9  -2    6.74    2.75
  -3  -9   2    5.26    2.46
  -3   9   2    0.55    2.13
  -3  -9   1  110.05    8.98
   3  -9  -1   98.80    8.71
  -3   9   1  105.93    9.06
   3  -9   0   67.31    7.36
  -3   9   0   57.23    6.44
  -3   9  -1   21.41    3.89
   3  -9   1   19.06    3.78
  -3  -9  -2   70.70    6.76
   3  -9   2   86.20    8.37
  -3   9  -2   89.72    4.47
  -3   9  -2   77.37    7.12
   3   9   2   94.12    9.06
   3  -9   3    8.39    2.83
  -3  -9  -3   10.57    2.93
  -3   9  -3    8.02    1.39
  -3   9  -3    7.39    1.32
   3   9   3    5.97    2.93
   3  -9   4   39.36    5.46
  -3   9  -4   41.76    2.87
  -3   9  -5    1.20    0.91
  -3   9  -6   15.63    1.45
  -3   9  -6   19.01    1.84
  -3   9  -7    0.44    0.53
   3  11  -6   69.66    2.87
   3  11  -5    0.23    0.52
   3  11  -5    0.32    0.76
   3  11  -4  146.30    6.27
   3  11  -4  139.52    5.92
   3  11  -3   70.65    4.13
   3  11  -3   68.41    3.82
   3  11  -2  128.82    5.78
  -3  11   2  118.63    4.95
  -3  11   1    2.20    1.85
   3  11  -1   -1.83    2.26
  -3  11   1    1.29    0.79
  -3 -11   0   -0.10    0.79
   3  11   0   -0.62    1.97
  -3  11   0    0.10    0.76
  -3  11   0    0.53    0.78
   3 -11   0    0.56    1.66
  -3  11   0    2.61    2.03
   3 -11   1   11.10    3.38
  -3  11  -1   16.03    1.74
  -3  11  -1   15.74    1.78
   3  11   1   10.37    3.24
  -3  11  -2    0.45    0.96
  -3  11  -3    3.42    1.10
  -3  11  -3    2.30    1.00
  -3  11  -4   60.20    3.35
  -3  11  -4   60.80    3.45
  -3  11  -5    0.73    0.60
   3  13  -4  151.22    4.80
   3  13  -4  113.43    4.38
   3  13  -3    4.63    0.81
   3  13  -2   16.37    1.58
   3  13  -2   17.37    1.58
   3  13  -1  212.16    7.99
   3  13   0  100.09    4.32
   3  13   0   92.51    4.34
  -3  13   0   89.57    4.00
  -3  13  -1    8.66    1.18
  -3  13  -1    9.45    1.25
   3  13   1   12.18    1.36
   3  13   1    8.75    1.30
  -3  13  -2    7.98    1.04
  -3  13  -2    9.80    1.19
  -3  13  -3    0.36    0.58
  -3  13  -3    1.28    0.59
  -3  13  -4    1.25    0.44
  -3  13  -4    1.06    0.40
  -4   0   9    0.06    0.34
   4   0  -9    0.06    0.50
   4   0  -8  364.49   12.54
  -4   0   8  329.98   11.72
  -4   0   7   -0.54    1.36
   4   0  -7    0.56    1.55
  -4   0   6  390.57   19.82
  -4   0   5   -0.39    1.40
  -4   0   4  496.17   19.89
   4   0  -4  475.08   19.68
   4   0  -3    0.20    1.10
  -4   0   3    0.77    1.15
  -4   0   2  447.09   16.06
   4   0  -2  471.32   16.05
  -4   0   1   -0.24    0.67
  -4   0   0 2746.49   82.24
  -4   0  -1    0.86    0.75
   4   0   1   -0.04    0.28
  -4   0  -2  400.69   14.62
  -4   0  -3   -0.22    1.31
  -4   0  -4 1337.32   45.66
  -4   0  -5   -0.21    0.73
  -4   0  -5    0.70    0.76
  -4   0  -5    1.24    1.39
  -4   0  -6 1249.65   47.51
  -4   0  -6 1301.99   40.49
  -4   0  -6 1272.01   40.33
  -4   0  -7    1.07    1.59
  -4   0  -7    1.85    1.05
   4   0   7    1.07    1.47
  -4   0  -8  303.65   10.97
  -4   0  -9   -0.05    0.49
  -4  -2   9   14.26    1.12
   4   2  -9   17.93    1.29
   4  -2  -9   16.00    1.22
   4  -2  -8  126.52    5.67
   4   2  -8  132.62    5.80
  -4  -2   8  121.69    5.37
  -4   2   7   11.41    1.34
   4   2  -7    8.89    1.42
  -4   2   7   10.53    3.03
   4  -2  -7   14.22    3.43
  -4  -2   7   11.30    3.01
   4   2  -7   15.64    3.56
  -4  -2   6  166.89   11.60
   4  -2  -6  139.55   10.75
  -4   2   6  163.11   11.30
   4   2  -6  144.76   11.11
   4   2  -6  138.29    6.23
   4  -2  -5  243.70   14.01
  -4   2   5  271.70   13.87
   4   2  -5  221.00    8.64
  -4  -2   5  247.24   13.54
  -4  -2   4 2269.07   73.37
   4  -2  -4 2289.02   74.38
  -4   2   4 2300.68   73.49
   4  -2  -3    3.35    1.79
  -4  -2   3    8.02    1.72
  -4   2   3    4.46    1.48
  -4  -2   2  703.20   24.02
  -4   2   2  741.85   24.15
  -4  -2   1  798.78   24.93
  -4  -2   1  806.17   25.19
  -4   2   1  788.91   25.13
   4  -2  -1  795.89   25.02
  -4   2   0  948.07   29.36
  -4  -2   0 1006.18   29.53
  -4  -2   0  883.57   28.46
  -4   2   0  897.87   29.15
  -4   2   0  989.11   29.02
  -4  -2   0  948.15   28.96
  -4  -2   0 1002.24   29.32
  -4   2  -1  315.49   11.33
  -4  -2  -1  333.55   11.57
  -4  -2  -1  327.17   11.31
  -4   2  -2  985.86   31.53
  -4  -2  -2  987.91   31.90
   4   2   2  912.20   31.03
  -4  -2  -2  997.07   31.52
  -4   2  -3  307.18   13.22
   4   2   3  284.17   12.19
  -4   2  -4 1332.20   45.53
  -4  -2  -4 1312.92   45.42
  -4   2  -5  103.06    4.58
  -4   2  -5  105.23    4.85
  -4   2  -5  104.64    8.47
  -4  -2  -5  109.07    8.56
  -4   2  -5  104.43    5.03
  -4   2  -6  716.39   30.37
  -4   2  -6  693.27   23.44
  -4   2  -6  714.86   23.72
  -4  -2  -6  697.67   30.13
  -4   2  -6  720.24   23.41
  -4  -2  -6  718.76   23.54
   4   2   7   13.95    3.58
  -4   2  -7   11.56    3.09
   4  -2   7    9.34    2.94
  -4   2  -7   14.33    1.98
  -4  -2  -7   15.68    3.59
  -4  -2  -7   13.91    1.82
  -4   2  -7   16.15    1.91
  -4   2  -8  484.83   15.51
  -4  -2  -8  435.36   15.30
   4  -2   9    8.80    0.91
  -4   2  -9   11.43    1.02
  -4  -2  -9   11.13    0.94
  -4  -4   9   39.22    1.76
   4  -4  -8   75.40    3.68
  -4  -4   8   92.11    3.91
   4   4  -8   77.54    3.48
   4   4  -8   87.90    3.94
  -4   4   8   80.64    3.92
   4   4  -7    0.42    0.83
   4  -4  -6  970.18   36.69
   4   4  -6  832.19   35.68
  -4  -4   6  806.91   34.92
   4  -4  -6  933.35   37.57
  -4   4   6  971.37   35.97
   4   4  -6  915.25   29.20
  -4  -4   5  146.17    9.86
   4  -4  -5  128.47    9.53
  -4   4   5  138.02    9.67
   4   4  -5  135.14    6.02
   4  -4  -5  150.91   10.98
  -4  -4   4  235.62   11.92
   4  -4  -4  221.23   13.07
  -4   4   4  217.95   11.53
   4  -4  -3   65.70    5.58
  -4  -4   3   69.69    4.96
  -4   4   3   58.58    4.60
  -4   4   2  338.31   12.73
  -4  -4   2  346.30   12.91
  -4   4   2  352.80   14.59
  -4   4   1  399.64   14.56
   4  -4  -1  547.15   16.74
  -4  -4   1  526.41   16.37
  -4  -4   0  450.30   15.87
  -4   4   0  411.43   15.67
  -4  -4  -1 1758.54   53.19
  -4   4  -1 1631.38   53.10
   4   4   2 1631.67   51.00
  -4   4  -2 1496.44   48.91
  -4  -4  -2 1563.52   48.88
  -4  -4  -2 1583.11   50.37
  -4  -4  -3  633.81   22.34
  -4  -4  -3  591.91   23.16
  -4   4  -3  578.42   22.02
   4   4   3  609.05   23.05
  -4   4  -4  830.90   27.01
  -4  -4  -4  876.16   31.52
  -4  -4  -4  887.04   32.58
  -4   4  -4  882.86   31.58
  -4  -4  -5  236.08   13.58
  -4   4  -5  253.79    9.23
  -4   4  -5  252.32   14.04
  -4   4  -5  245.30    8.94
  -4   4  -5  244.55    9.35
  -4  -4  -5  213.73    8.84
  -4  -4  -6  459.37   21.47
  -4   4  -6  409.27   20.70
   4  -4   6  345.25   19.15
   4   4   6  407.60   20.21
  -4  -4  -6  396.50   14.63
  -4   4  -6  474.14   15.51
  -4   4  -6  450.29   14.94
  -4   4  -6  422.50   14.48
  -4  -4  -7  133.93    6.08
  -4   4  -7  145.57    6.24
  -4   4  -7  156.28    6.71
  -4   4  -8  254.92    9.19
  -4   4  -8  265.50    8.94
  -4  -4  -8  243.00    8.76
  -4  -6   8   39.56    2.11
   4   6  -7    0.92    0.84
  -4  -6   7    0.67    0.77
  -4  -6   6  231.15    9.32
   4  -6  -6  240.80   15.37
   4   6  -6  273.69    9.91
   4  -6  -5   25.43    5.02
   4   6  -5   29.23    2.49
   4   6  -4    1.39    0.94
   4   6  -4    2.34    0.80
  -4  -6   4    1.61    1.35
  -4   6   3 1257.18   44.10
  -4  -6   3 1209.41   41.70
   4   6  -3 1198.85   37.44
  -4  -6   2  917.08   32.44
   4  -6  -1 1975.52   62.13
  -4  -6   1 1923.11   61.74
  -4   6   1 1838.67   62.21
  -4  -6   0  281.37   13.05
  -4   6   0  304.33   13.46
   4  -6   0  284.03   13.39
  -4  -6  -1  923.52   31.24
   4   6   2 1087.02   39.25
  -4  -6  -2 1074.16   37.34
   4   6   3  487.43   20.95
  -4  -6  -3  474.29   19.84
  -4   6  -3  430.74   14.83
  -4   6  -3  458.43   15.10
   4   6   4  331.89   17.21
  -4  -6  -4  355.87   17.20
  -4   6  -4  320.69   11.47
  -4   6  -5  585.04   19.64
  -4   6  -5  604.73   20.11
  -4   6  -6  224.51    8.56
  -4   6  -6  222.49    9.10
  -4   6  -7  144.15    6.25
  -4   6  -8  155.55    4.88
   4  -6   8  138.18    4.59
   4   8  -7   40.09    2.27
  -4  -8   6    1.26    0.62
   4   8  -6    1.16    0.91
   4   8  -5   58.81    3.68
  -4  -8   5   56.03    3.00
   4   8  -5   51.04    3.06
  -4  -8   4  426.06   20.26
   4   8  -4  463.00   16.50
   4   8  -4  488.12   16.05
   4  -8  -4  492.06   24.14
  -4   8   3  932.01   37.04
  -4  -8   3  846.08   34.37
   4   8  -3  930.87   29.44
   4  -8  -3  913.82   36.47
  -4  -8   2  174.32   11.04
  -4  -8   1  686.46   27.15
  -4   8   1  653.65   27.32
   4  -8  -1  668.44   27.34
  -4  -8   1  645.82   21.21
  -4  -8   0  191.72   11.48
   4  -8   0  179.90   11.50
  -4   8   0  174.22   11.07
  -4  -8  -1  767.93   28.58
   4  -8   1  792.89   31.68
  -4   8  -1  816.35   30.67
  -4   8  -2   99.77    4.66
  -4  -8  -2   90.58    7.24
  -4   8  -2   98.08    7.43
  -4   8  -3  616.38   20.64
   4   8   3  659.46   28.76
   4  -8   3  693.27   28.88
  -4   8  -3  626.75   20.82
  -4  -8  -3  640.55   26.27
  -4  -8  -4  149.06   10.78
   4   8   4  178.10   12.47
   4  -8   4  188.08   12.66
  -4   8  -4  152.37    6.67
  -4   8  -4  158.56    6.95
  -4   8  -5  302.26   11.06
  -4   8  -6   35.57    2.43
  -4   8  -6   39.98    2.82
  -4   8  -7  345.06   11.73
   4  10  -6   -0.20    0.72
   4  10  -5  132.49    5.43
   4  10  -5  141.85    6.04
   4  10  -4    1.92    0.89
   4  10  -4    1.88    1.12
   4  10  -3  166.27    6.89
   4 -10  -3  149.53   11.58
   4  10  -3  160.83    7.18
  -4  10   2   27.97    5.01
   4  10  -2   22.60    2.42
  -4 -10   2   28.61    4.55
   4 -10  -2   23.44    4.41
  -4  10   1  641.62   28.75
  -4 -10   1  663.40   28.66
  -4 -10   1  649.71   21.29
  -4  10   0   49.21    3.04
   4 -10   0   54.06    6.66
  -4  10   0   51.44    6.16
   4  10   0   55.73    7.22
  -4  10  -1  779.68   25.61
  -4  10  -1  735.29   31.36
   4 -10   1  798.83   33.66
  -4  10  -1  825.58   25.72
   4  10   2   75.65    8.46
  -4  10  -2   88.12    4.50
   4 -10   3  517.50   25.62
  -4  10  -3  572.42   19.30
   4  10   3  536.93   26.77
  -4  10  -3  594.98   19.27
  -4  10  -4   21.41    2.13
  -4  10  -4   26.69    2.22
  -4  10  -5  367.11   13.35
  -4  10  -5  405.74   13.27
  -4  10  -6   18.41    1.31
   4  12  -5  135.76    4.96
   4  12  -4    0.63    0.61
   4  12  -4    0.79    0.74
   4  12  -3  161.00    6.61
   4  12  -3  154.66    6.29
   4  12  -2   52.49    3.18
   4  12  -1  511.68   17.20
  -4  12   1  493.43   16.22
  -4  12   0   40.73    2.54
  -4  12   0   37.31    2.45
  -4 -12  -1  601.43   20.67
  -4  12  -1  644.20   20.68
  -4  12  -1  668.71   20.84
  -4  12  -2    3.54    1.00
  -4  12  -2    3.55    1.02
  -4  12  -3  907.43   28.10
  -4  12  -3  878.64   28.00
  -4  12  -4   15.74    1.41
  -4  12  -4   15.17    1.40
  -4  12  -5  252.66    7.72
  -4  12  -5  212.98    7.52
   4  14  -2   67.23    2.82
   4  14  -2   66.03    2.80
   4  14  -1  330.93   11.20
   4  14  -1  359.01   11.24
   4  14   0   16.32    1.29
   4  14   0   18.55    1.30
  -4  14  -1  234.22    7.76
   4  14   1  244.21    7.90
   4  14   1  232.87    7.71
  -4  14  -2   39.34    1.85
   5  -1  -9  266.18    8.22
  -5  -1   9  221.25    7.78
  -5  -1   8    0.74    0.73
  -5   1   8    0.56    0.60
   5  -1  -7  623.25   28.37
   5   1  -7  611.89   28.48
  -5  -1   7  643.77   28.21
  -5  -1   7  604.87   20.84
  -5   1   7  674.12   28.76
  -5   1   7  648.43   20.66
  -5   1   6   48.41    6.08
  -5  -1   6   47.33    5.95
   5  -1  -5  263.29   14.27
  -5  -1   5  264.92   14.28
  -5  -1   4   36.95    4.08
   5  -1  -4   26.86    3.72
  -5  -1   3  434.58   16.41
   5   1  -3  381.93   15.24
   5  -1  -3  427.83   16.52
  -5  -1   2  213.94    9.05
   5   1  -2  219.76    8.37
   5  -1  -1  167.23    5.88
  -5  -1   1  165.27    5.81
  -5   1   0  100.72    4.64
  -5   1   0  106.39    4.43
  -5   1  -1   75.37    3.93
   5   1   2    3.91    0.90
  -5   1  -2    4.73    1.33
  -5   1  -3  179.66    9.13
  -5   1  -4  115.26    7.79
  -5  -1  -5    4.86    1.04
  -5   1  -5    7.99    2.45
  -5   1  -5    4.94    1.09
  -5  -1  -5    8.29    1.39
  -5   1  -5    4.63    1.04
  -5   1  -5    3.58    0.85
  -5  -1  -6   19.99    2.17
  -5   1  -6   22.83    2.31
  -5   1  -6   19.41    2.06
  -5  -1  -6   22.25    2.21
  -5  -1  -6   17.87    3.84
  -5   1  -6   14.83    3.44
  -5   1  -7    5.12    1.41
   5  -1   7    1.57    1.76
  -5  -1  -7    4.79    2.31
  -5  -1  -7    3.58    1.14
   5   1   7   -0.53    1.34
  -5   1  -7    4.80    2.24
  -5  -1  -8    6.57    1.18
  -5  -1  -9   49.92    2.09
   5  -1   9   28.97    1.72
  -5  -3   9  162.73    5.56
  -5  -3   8    6.79    1.11
   5   3  -8    5.29    1.16
   5  -3  -8    4.43    1.13
   5   3  -7  329.80   11.80
  -5  -3   7  328.48   11.88
   5   3  -6  372.53   12.93
   5   3  -6  326.24   18.48
   5  -3  -6  364.80   19.07
  -5  -3   6  349.09   18.60
  -5   3   6  347.24   18.67
  -5  -3   5  482.69   21.19
   5  -3  -5  446.92   21.74
   5   3  -5  452.75   15.59
  -5   3   5  488.64   21.17
   5  -3  -4  439.48   19.75
  -5   3   4  417.10   18.11
  -5  -3   4  428.36   18.28
   5  -3  -3  454.86   19.44
  -5   3   3  500.32   18.81
  -5  -3   3  514.60   19.06
  -5   3   2  607.99   21.38
  -5  -3   2  656.44   21.79
  -5  -3   1    6.04    1.26
  -5  -3   1    4.51    1.04
   5  -3  -1    4.19    1.06
  -5   3   1    3.33    1.02
  -5   3   0   20.43    1.61
  -5  -3   0   26.54    1.79
  -5   3   0   22.97    1.84
  -5  -3   0   27.55    1.98
  -5   3   0   22.03    2.12
  -5  -3   0   26.82    2.25
  -5  -3   0   23.68    1.54
  -5  -3  -1  232.76    9.12
  -5   3  -1  238.81    9.23
  -5  -3  -1  253.07    9.46
  -5   3  -2  295.27   11.75
  -5  -3  -2  278.20   11.47
  -5   3  -3   73.92    5.37
   5   3   3   73.79    5.21
  -5  -3  -3   77.36    5.71
  -5  -3  -3   83.61    5.55
  -5  -3  -4    2.92    1.79
  -5   3  -4    7.13    2.03
  -5   3  -5   34.47    2.37
  -5  -3  -5   36.66    4.79
  -5  -3  -5   29.89    2.45
  -5   3  -5   35.16    2.44
  -5   3  -5   37.98    4.94
  -5   3  -5   37.32    2.72
  -5   3  -5   35.17    2.55
  -5   3  -6    1.01    1.70
  -5   3  -6    0.44    0.73
  -5   3  -6    0.26    1.06
  -5  -3  -6    0.50    1.78
  -5   3  -6    0.47    0.69
  -5   3  -6   -0.35    0.83
  -5  -3  -6    0.58    0.93
  -5   3  -7   -0.65    1.16
  -5  -3  -7    0.88    0.90
  -5   3  -7    0.11    0.83
  -5   3  -8    0.72    0.75
  -5  -3  -8   -0.08    0.70
   5  -3   9   10.89    0.92
   5   5  -7  182.89    7.71
   5  -5  -7  185.09    7.61
   5  -5  -6  206.95   14.46
   5   5  -6  237.05    9.21
   5   5  -5 1009.38   41.46
   5   5  -5 1172.13   36.55
   5  -5  -5 1320.38   46.01
  -5  -5   5 1192.69   41.99
  -5   5   5 1137.90   41.54
   5  -5  -5 1164.84   42.26
  -5  -5   4  138.58    8.69
   5  -5  -4  152.03   10.61
   5   5  -4  144.46    6.04
  -5  -5   4  143.30    8.26
  -5   5   4  137.38    8.56
  -5   5   3   61.32    4.59
  -5  -5   3   65.08    4.95
  -5  -5   3   57.62    4.53
  -5  -5   2  500.63   19.21
  -5  -5   2  658.93   21.29
   5  -5  -2  656.93   21.62
  -5   5   2  529.97   19.23
  -5   5   1  214.47   10.38
  -5  -5   1  214.54    9.84
  -5  -5   1  214.14    7.79
   5  -5  -1  219.01   10.08
  -5  -5   0  302.26   11.37
  -5  -5   0  338.67   13.46
  -5   5   0  337.03   13.46
  -5  -5  -1   39.29    2.48
  -5  -5  -1   46.87    3.52
  -5   5  -2  300.64   12.11
  -5  -5  -2  301.16   12.02
  -5  -5  -3  182.15    9.96
   5   5   3  167.58   10.19
  -5   5  -3  158.21    8.59
  -5  -5  -3  171.85    8.78
  -5   5  -4   11.71    1.39
  -5  -5  -4   16.93    2.78
  -5   5  -4   15.69    2.85
   5   5   4   17.96    3.40
  -5  -5  -4   16.55    3.15
  -5   5  -5    9.55    1.37
  -5   5  -5   12.55    2.95
  -5   5  -5   12.01    1.72
  -5   5  -5   17.06    1.70
  -5  -5  -5   15.01    3.17
  -5  -5  -6    1.84    0.85
  -5   5  -6    2.98    1.24
  -5   5  -6    1.61    0.88
  -5   5  -6    1.43    0.83
  -5   5  -7   20.87    2.09
  -5   5  -7   17.14    1.63
  -5  -5  -7   17.03    1.55
  -5   5  -8    1.92    0.77
   5   7  -7  118.96    4.95
  -5  -7   7  119.78    4.84
  -5  -7   6   26.76    2.07
   5   7  -6   25.09    2.26
  -5  -7   5  120.79    5.44
   5   7  -5  135.16    6.10
  -5  -7   4  365.20   12.28
   5   7  -4  371.32   12.43
   5   7  -4  357.70   12.92
  -5  -7   4  345.98   12.62
   5  -7  -3   44.67    5.54
   5   7  -3   42.16    2.82
  -5  -7   3   44.00    4.84
  -5  -7   2  639.56   25.14
  -5   7   1    3.23    2.35
   5  -7  -1    1.39    1.88
  -5  -7   1    4.26    1.84
  -5   7   0 1527.41   49.26
  -5  -7   0 1501.92   49.03
   5  -7   0 1539.05   49.76
   5  -7   1  173.13   10.67
  -5  -7  -1  156.05    8.36
  -5   7  -1  151.97    9.06
  -5   7  -2   33.29    2.26
   5   7   2   41.32    5.73
  -5   7  -2   35.15    3.83
  -5  -7  -2   30.59    3.81
  -5  -7  -3    1.50    1.40
  -5   7  -3    1.73    0.73
  -5  -7  -3    1.18    0.73
   5   7   3   -0.96    1.86
  -5   7  -3    1.96    0.82
  -5  -7  -4   42.45    5.32
  -5   7  -4   40.49    2.71
   5   7   4   33.00    5.09
  -5   7  -4   35.82    2.75
  -5   7  -5   52.25    3.21
  -5  -7  -6   10.19    1.35
  -5   7  -6   13.76    1.54
  -5   7  -6   13.16    1.79
  -5  -7  -7    3.08    0.66
  -5   7  -7    3.72    1.01
  -5   7  -8    3.19    0.59
   5   9  -7   20.40    1.27
   5   9  -6  188.23    7.24
   5   9  -5   33.24    2.67
   5   9  -5   34.56    2.27
   5   9  -4  616.10   20.18
   5   9  -4  580.95   19.55
  -5  -9   3  141.02   10.27
   5   9  -3  157.61    6.76
   5   9  -3  163.44    7.14
   5  -9  -3  154.92   11.72
  -5  -9   2  340.84   17.07
  -5   9   2  314.36   17.71
  -5  -9   2  307.17   11.20
  -5   9   1   97.32    8.58
   5  -9  -1  105.12    8.80
  -5  -9   1   85.30    7.81
  -5  -9   1   81.38    4.29
  -5   9   0  693.02   28.74
   5  -9   0  706.73   29.90
  -5   9  -1   42.39    2.80
   5  -9   1   45.48    6.06
   5   9   1   48.90    6.74
  -5   9  -1   37.72    4.85
  -5   9  -1   45.78    2.83
   5   9   2  368.46   20.50
  -5   9  -2  380.57   13.31
   5  -9   3   17.23    3.77
   5   9   3   19.77    4.43
  -5   9  -3   15.00    1.80
  -5   9  -3   16.13    1.76
  -5   9  -4    0.48    0.95
  -5   9  -4    0.45    0.97
   5  -9   4    1.65    1.95
  -5   9  -5    5.80    1.30
  -5   9  -5    7.26    1.27
  -5   9  -6    2.25    0.78
  -5   9  -7    3.83    0.71
   5  11  -5    0.53    0.69
   5  11  -5   -0.24    0.49
   5  11  -4  236.68    8.76
   5  11  -4  244.93    9.19
   5  11  -3    7.51    1.33
   5  11  -3    5.12    1.41
   5  11  -2  332.35   12.13
   5  11  -2  329.59   12.33
  -5  11   1   33.95    2.29
  -5  11   1   33.61    2.24
  -5 -11   0   64.78    3.66
  -5  11   0   66.99    3.54
   5  11   0   64.40    7.97
  -5  11   0   64.28    3.51
   5 -11   0   53.74    6.81
  -5  11  -1   66.15    3.62
  -5  11  -1   61.60    3.50
  -5  11  -2   35.02    2.59
  -5  11  -2   31.36    2.41
  -5  11  -3   34.03    2.53
  -5  11  -3   33.01    2.56
  -5  11  -4   81.60    4.01
  -5  11  -4   83.34    4.04
  -5  11  -5   -0.28    0.65
  -5  11  -5    0.32    0.63
  -5  11  -6    0.11    0.34
   5  13  -4   80.45    3.18
   5  13  -3    7.32    1.01
   5  13  -3    4.99    0.82
  -5 -13   2   87.35    3.88
   5  13  -2  112.67    4.39
   5  13  -1   60.89    3.30
   5  13   0  107.27    4.72
   5  13   0  112.74    4.63
   5  13   1   16.33    1.54
  -5  13  -1   18.32    1.50
  -5  13  -2   24.18    1.70
   5  13   2   21.29    1.49
  -5 -13  -2   18.38    1.45
  -5  13  -3    7.94    0.84
  -5 -13  -3    6.37    0.76
  -5  13  -4    2.86    0.51
   6   0  -9    0.63    0.50
  -6   0   8   25.66    1.91
   6   0  -7    0.57    1.56
  -6   0   7    0.10    0.78
  -6   0   6  283.35   16.19
  -6   0   5    1.24    1.47
   6   0  -4    6.78    2.11
  -6   0   4    4.01    1.77
  -6   0   3   -0.22    1.16
   6   0  -3   -0.20    1.01
   6   0  -2 2015.68   60.73
  -6   0   2 1929.97   61.27
  -6   0   1    0.42    0.88
  -6   0   0  822.39   26.44
  -6   0  -1   -0.35    0.86
  -6   0  -2  831.91   27.77
  -6   0  -3   -0.93    1.33
  -6   0  -4 2486.34   80.06
  -6   0  -5   -0.43    1.78
  -6   0  -5    0.54    0.64
  -6   0  -5   -0.22    0.86
  -6   0  -5    0.52    0.80
  -6   0  -5    0.32    0.77
  -6   0  -6  931.09   30.71
  -6   0  -6  901.84   30.59
  -6   0  -6  881.21   37.10
  -6   0  -7   -0.54    1.47
  -6   0  -7    0.59    0.94
  -6   0  -8  477.63   15.98
  -6   0  -9   -0.36    0.48
  -6  -2   9    5.48    0.68
   6  -2  -9    5.21    0.71
   6   2  -9    6.36    0.80
  -6  -2   8   23.80    1.88
  -6  -2   7  154.76    6.48
  -6   2   7  139.21    5.84
  -6   2   6    1.38    0.68
  -6   2   6    2.52    1.87
  -6  -2   6   -0.50    1.59
   6  -2  -5   38.02    5.02
  -6   2   5   38.96    4.83
  -6  -2   5   43.90    5.16
   6  -2  -4  288.88   14.56
  -6   2   4  272.67   13.41
  -6  -2   4  275.19   13.57
   6  -2  -3   24.61    3.29
  -6  -2   3   25.11    3.06
  -6   2   3   25.27    3.04
  -6  -2   2  586.07   19.59
  -6  -2   2  611.79   21.37
  -6  -2   1  442.69   14.77
   6  -2  -1  422.77   14.06
  -6  -2   1  401.64   13.85
  -6   2   1  450.78   14.88
  -6  -2   0 1223.98   37.85
  -6   2   0 1128.81   37.29
  -6  -2   0 1194.46   37.35
  -6   2   0 1250.34   37.82
  -6   2   0 1252.57   37.41
  -6  -2  -1   95.18    4.66
  -6  -2  -1   91.04    4.26
  -6   2  -1   93.14    4.71
  -6  -2  -2 3161.28   91.07
  -6   2  -2 3081.73   91.04
  -6  -2  -2 3057.68   90.82
  -6   2  -3  202.94    9.91
  -6  -2  -3  197.36    9.74
   6   2   3  192.56    8.76
  -6   2  -4 1109.20   39.08
  -6  -2  -4 1099.46   39.05
  -6   2  -5   66.42    3.48
  -6   2  -5   68.00    3.73
  -6   2  -5   63.67    6.55
  -6   2  -5   66.79    3.71
  -6   2  -5   67.10    3.81
  -6  -2  -5   65.80    6.62
  -6  -2  -5   68.32    3.75
  -6   2  -6  836.84   26.69
  -6   2  -6  812.22   33.57
  -6  -2  -6  777.39   26.53
  -6  -2  -6  808.66   33.50
  -6   2  -6  854.19   26.72
  -6   2  -6  809.43   26.06
  -6   2  -6  834.51   26.97
  -6  -2  -7   33.70    2.64
  -6   2  -7   34.99    2.67
  -6   2  -7   33.88    2.86
  -6  -2  -8  791.76   24.36
  -6   2  -8  740.45   24.27
  -6   2  -9    1.33    0.46
   6  -2   9    1.01    0.43
  -6  -2  -9    0.94    0.41
  -6   4   8   85.66    3.91
  -6  -4   8   69.76    3.65
  -6  -4   8   96.63    3.92
   6   4  -8   75.03    3.77
   6  -4  -8   83.43    3.76
   6   4  -7  165.78    6.72
   6  -4  -6  114.38    9.98
   6   4  -6  106.25    5.13
   6  -4  -6  112.34    9.37
   6   4  -6   96.82    9.06
  -6  -4   6  111.48    8.90
  -6   4   6   94.19    8.35
   6  -4  -5   26.38    4.71
   6   4  -5   22.23    2.01
  -6  -4   5   26.07    3.94
  -6   4   5   20.77    3.62
  -6   4   4  178.73    9.95
  -6  -4   4  163.70    8.20
  -6  -4   4  174.30   10.05
   6  -4  -4  182.71   11.47
  -6  -4   3  918.03   32.05
  -6  -4   3 1006.39   33.53
  -6   4   3 1018.66   33.43
  -6   4   2  232.30    9.36
   6  -4  -2  210.65    9.34
  -6  -4   2  229.32    9.27
  -6  -4   1   14.83    1.89
   6  -4  -1   16.61    2.28
  -6  -4   1   13.30    1.91
  -6   4   0 1458.10   43.25
  -6  -4   0 1326.43   41.18
  -6  -4   0 1303.53   41.76
  -6  -4   0 1452.02   43.34
  -6   4   0 1316.63   41.69
  -6  -4  -1  662.36   21.14
  -6  -4  -1  639.79   20.84
  -6   4  -1  610.45   20.86
  -6   4  -2  975.65   32.52
  -6  -4  -2  958.80   33.08
  -6  -4  -2 1007.34   32.49
  -6   4  -3  291.93   13.31
   6   4   3  304.39   13.76
  -6  -4  -3  302.95   13.32
  -6  -4  -3  313.94   14.02
  -6   4  -4  740.75   28.20
  -6   4  -4  723.24   23.48
  -6  -4  -4  798.88   28.76
  -6  -4  -5   38.82    2.69
  -6   4  -5   45.66    3.10
  -6   4  -5   50.35    5.66
  -6  -4  -5   57.22    6.15
  -6   4  -5   46.83    2.90
  -6   4  -5   47.33    2.91
  -6   4  -5   43.96    2.86
  -6   4  -6  568.87   26.23
  -6   4  -6  635.61   20.11
  -6  -4  -6  550.41   19.75
  -6   4  -6  615.66   19.82
  -6   4  -6  612.55   20.48
  -6  -4  -6  598.75   26.62
  -6   4  -6  602.66   19.84
  -6   4  -7  146.47    6.57
  -6   4  -7  151.99    6.21
  -6  -4  -7  136.97    6.02
  -6   4  -8  232.10    7.94
  -6   4  -8  249.41    8.42
  -6  -6   8   68.04    2.92
  -6  -6   7   -0.16    0.69
   6   6  -7   -0.24    0.72
   6   6  -6   58.90    3.60
  -6  -6   6   60.69    3.53
   6   6  -5  443.81   15.22
  -6  -6   5  414.12   14.78
   6   6  -4   52.99    2.81
   6  -6  -4   48.41    6.25
   6   6  -4   52.03    3.14
  -6  -6   4   42.76    4.30
  -6  -6   4   50.22    3.12
  -6  -6   4   45.70    2.82
   6   6  -3  146.96    6.12
  -6  -6   3  149.77    8.54
  -6  -6   2   51.77    4.62
   6  -6  -2   55.80    4.90
  -6   6   1 1089.65   38.51
   6  -6  -1 1110.40   38.21
  -6  -6   1 1114.70   37.90
  -6   6   0  827.89   28.84
   6  -6   0  893.83   30.11
  -6  -6   0  858.53   28.99
  -6   6  -1  167.38    8.85
  -6  -6  -1  165.58    8.13
  -6   6  -2  298.73   12.67
  -6  -6  -2  312.36   13.73
  -6   6  -3  584.06   19.36
   6   6   3  662.55   25.73
  -6   6  -3  582.38   19.27
  -6  -6  -3  653.76   24.47
   6   6   4  190.92   12.13
  -6   6  -4  193.90    7.68
  -6   6  -4  196.43    7.89
  -6   6  -5  570.73   19.03
  -6   6  -6  206.55    8.53
  -6   6  -6  215.10    8.13
  -6   6  -6  201.92    7.72
  -6   6  -7   91.34    4.04
  -6   6  -7  118.09    5.04
   6  -6   8   55.22    2.46
  -6  -6  -8   41.15    2.16
   6   8  -7    0.62    0.49
   6   8  -6    0.67    0.90
  -6  -8   6    0.28    0.52
  -6  -8   5  388.68   13.03
   6   8  -5  365.80   13.00
  -6  -8   4  259.73    9.77
   6   8  -4  247.74    9.41
   6   8  -4  248.72    9.90
   6   8  -3  655.88   21.40
   6  -8  -3  642.57   28.53
  -6  -8   3  589.74   25.65
  -6   8   2   53.60    6.18
  -6  -8   2   58.20    5.84
  -6  -8   2   48.04    3.02
  -6   8   1  469.46   21.08
   6  -8  -1  442.37   20.66
  -6  -8   1  442.53   20.01
  -6  -8   1  442.70   15.19
  -6   8   0   -0.38    1.60
   6  -8   0   -1.30    1.46
  -6   8  -1  435.48   15.49
  -6   8  -1  448.27   19.84
  -6   8  -1  510.67   15.83
   6  -8   1  532.07   22.67
  -6   8  -2  129.03    5.57
  -6  -8  -2  124.35    8.26
   6  -8   2  155.86   11.17
  -6   8  -2  129.33    5.57
   6   8   2  134.34   10.74
   6   8   3  514.82   24.40
  -6   8  -3  528.35   16.88
  -6  -8  -3  477.24   21.31
  -6   8  -3  469.60   16.76
  -6   8  -4  108.85    5.36
  -6  -8  -4  109.77    5.12
   6   8   4  124.10   10.26
  -6   8  -4  113.70    5.31
  -6   8  -5  542.73   18.06
  -6   8  -5  515.68   17.67
  -6  -8  -5  521.58   17.37
  -6   8  -6   62.99    3.20
  -6  -8  -6   49.85    2.73
  -6   8  -7  341.71   11.55
   6  10  -6   66.20    3.01
   6  10  -5   39.08    2.57
   6  10  -5   30.92    1.98
   6  10  -4    0.86    0.74
   6  10  -4    0.36    0.96
   6  10  -3  248.71    9.51
   6  10  -3  243.84    9.84
   6 -10  -2   90.75    8.67
  -6 -10   2   86.39    4.41
   6  10  -2  101.41    5.16
  -6  10   1  440.94   14.70
  -6  10   1  441.62   21.76
  -6 -10   1  437.59   15.20
  -6 -10   0    3.08    0.99
   6 -10   0    3.33    1.87
  -6  10   0    3.76    0.99
  -6  10   0    5.69    2.20
  -6  10   0    3.19    0.95
  -6  10  -1  879.88   29.05
   6 -10   1  912.35   37.43
   6  10   1  984.33   39.61
  -6  10  -1  952.64   29.32
  -6  10  -2   62.62    3.58
   6  10   2   51.13    6.97
   6 -10   2   53.84    6.99
  -6  10  -2   64.22    3.62
  -6  10  -3  418.38   14.84
  -6  10  -3  436.22   14.90
  -6  10  -4    1.37    0.98
  -6  10  -4    1.55    0.97
  -6  10  -5  383.54   13.08
  -6  10  -5  387.04   13.23
  -6  10  -6    7.33    1.00
  -6  10  -6    6.60    0.81
   6  12  -5   49.41    2.20
   6  12  -4   10.67    1.24
   6  12  -4    8.75    0.99
  -6  12   3   71.58    3.21
   6  12  -3   73.95    3.66
   6  12  -3   80.64    3.97
   6  12  -2   30.47    2.32
   6  12  -2   30.48    2.42
  -6 -12   0   61.49    3.34
  -6  12   0   65.62    3.28
  -6  12  -1  368.70   12.40
  -6  12  -1  366.29   12.60
  -6 -12  -1  361.17   12.75
  -6 -12  -2    1.82    0.86
  -6  12  -2    1.52    0.93
  -6  12  -2    1.28    0.75
  -6  12  -3  592.97   18.98
  -6  12  -4    5.40    0.90
  -6  12  -4    4.74    0.83
  -6  12  -5  253.46    7.97
  -6 -12  -5  239.03    7.95
   6  14  -2   63.67    2.61
   6  14  -1  182.65    6.42
   6  14   0   57.02    2.63
   6  14   0   58.36    2.59
   6  14   1  195.63    6.78
   6  14   1  220.57    7.03
  -7  -1   9  314.04   10.70
   7  -1  -9  389.01   11.18
  -7   1   8   63.63    3.26
  -7  -1   8   81.13    3.63
  -7   1   7  176.77    6.91
   7   1  -7  170.28   12.46
   7  -1  -7  145.17   11.67
  -7  -1   7  182.48    7.20
  -7  -1   7  155.56   11.68
  -7   1   7  153.50   11.77
  -7   1   6    0.19    0.59
  -7  -1   6    2.02    1.79
  -7   1   6    1.53    1.51
  -7  -1   5  520.52   22.83
   7  -1  -5  520.05   22.74
   7  -1  -4  227.32   11.99
  -7  -1   4  225.82   11.92
   7  -1  -3  631.87   22.66
  -7  -1   3  636.90   22.82
   7   1  -3  585.84   21.39
   7   1  -2    7.47    1.18
  -7  -1   2    5.67    1.42
   7  -1  -1 1228.52   38.04
  -7  -1   1 1407.79   40.12
  -7   1   0  300.85   10.94
  -7   1   0  275.75   10.40
  -7   1  -1 1928.87   59.63
  -7   1  -2   36.23    3.16
   7   1   2   22.62    1.81
  -7   1  -3  339.11   14.46
  -7   1  -4   62.24    5.70
  -7   1  -5   76.59    6.97
  -7  -1  -5   75.11    3.91
  -7   1  -5   67.01    3.85
  -7  -1  -5   68.24    3.86
  -7   1  -5   68.37    3.82
  -7  -1  -5   60.02    3.59
  -7   1  -5   69.31    3.51
  -7  -1  -6   11.09    1.71
  -7   1  -6    8.84    2.82
  -7   1  -6   13.06    1.73
  -7   1  -6   14.20    1.87
  -7  -1  -6   10.67    1.56
  -7  -1  -6   17.75    3.72
  -7  -1  -7    9.10    1.54
  -7   1  -7    8.72    1.63
  -7  -1  -8    0.09    0.82
  -7  -1  -9    2.67    0.53
  -7  -3   9  103.66    3.71
   7  -3  -8   45.18    2.90
  -7  -3   8   57.01    2.94
  -7  -3   8   46.96    2.90
  -7   3   8   55.06    3.12
   7   3  -8   57.28    3.17
  -7  -3   7  307.31   11.33
  -7   3   6  206.59   13.36
  -7  -3   6  232.47   13.92
   7  -3  -6  220.53   14.50
   7   3  -5  344.91   12.45
  -7  -3   5  398.36   18.34
  -7   3   5  357.79   17.43
   7  -3  -5  403.75   19.55
  -7   3   4  360.02   16.09
  -7  -3   4  342.37   16.22
   7  -3  -4  354.38   17.38
  -7   3   3  218.70    9.99
  -7  -3   3  203.09    9.92
  -7   3   2    6.45    1.51
  -7  -3   2    9.02    1.72
  -7  -3   2    6.01    1.10
  -7  -3   1  728.13   25.72
   7  -3  -1  787.46   25.62
  -7  -3   1  764.46   25.37
  -7   3   1  804.98   26.59
  -7   3   0  841.90   26.47
  -7   3   0  855.16   26.50
  -7  -3   0  764.05   26.32
  -7   3   0  784.01   25.97
  -7  -3  -1  795.95   23.66
  -7   3  -1  623.51   21.91
  -7   3  -1  686.73   23.37
  -7  -3  -1  726.95   22.76
  -7  -3  -2  231.79    8.42
  -7  -3  -2  234.51    8.42
  -7   3  -3  144.46    8.26
   7   3   3  144.82    7.81
  -7  -3  -3  162.38    8.57
  -7   3  -4    2.39    1.71
  -7   3  -4    0.09    0.70
  -7  -3  -4    0.68    1.38
  -7  -3  -5   42.31    2.91
  -7   3  -5   51.82    5.90
  -7   3  -5   48.34    3.00
  -7   3  -5   51.95    3.12
  -7   3  -5   46.40    2.93
  -7  -3  -6  119.47    5.46
  -7  -3  -6  114.07    9.57
  -7   3  -6  113.52    5.43
  -7   3  -6  114.43    5.43
  -7   3  -6  105.01    9.12
  -7   3  -6  110.83    5.10
  -7   3  -6  112.83    5.71
  -7   3  -7   -0.22    0.85
  -7   3  -7    1.01    1.10
  -7  -3  -7    0.53    0.90
  -7  -3  -8    7.36    1.08
  -7   3  -8    6.73    1.06
  -7   5   7  394.79   13.40
  -7  -5   7  449.92   13.53
  -7  -5   7  341.61   13.14
   7   5  -7  403.23   13.18
   7  -5  -7  363.63   13.13
   7   5  -6  460.31   16.06
  -7  -5   6  480.33   16.10
   7  -5  -6  462.37   23.39
  -7  -5   5   48.83    3.15
  -7  -5   5   57.41    3.41
  -7   5   5   58.18    5.86
   7   5  -5   62.44    3.54
  -7  -5   5   54.00    5.82
   7  -5  -5   67.83    7.61
   7   5  -4  614.12   20.04
  -7  -5   4  551.46   23.76
  -7  -5   4  619.90   20.21
   7  -5  -4  635.29   27.05
  -7   5   4  641.88   24.35
  -7   5   3  413.98   13.19
  -7  -5   3  356.85   15.29
  -7  -5   3  402.83   16.31
  -7   5   3  401.09   16.16
  -7  -5   2  557.39   21.10
  -7   5   2  541.47   20.85
   7  -5  -2  656.05   22.45
  -7   5   2  622.25   23.65
  -7  -5   2  692.03   22.19
  -7  -5   1   87.68    5.55
  -7   5   1   86.29    4.37
  -7  -5   1   94.41    4.57
  -7   5   1   83.89    5.92
   7  -5  -1   87.26    5.72
  -7   5   0  424.70   14.45
  -7  -5   0  308.35   11.21
  -7   5  -1  480.41   17.37
  -7  -5  -1  487.99   17.52
  -7   5  -1  521.83   18.44
  -7   5  -2  221.53    9.72
  -7  -5  -2  239.87   10.41
  -7  -5  -2  224.65    9.63
  -7   5  -3  664.45   21.10
  -7  -5  -3  689.07   24.69
   7   5   3  679.74   26.24
  -7  -5  -3  727.22   25.90
  -7   5  -4  213.05   12.11
  -7   5  -4  230.18    8.71
  -7   5  -4  224.74    8.38
  -7   5  -4  229.97    8.54
  -7  -5  -4  234.69   12.33
  -7   5  -4  221.62    8.23
   7   5   4  228.57   12.57
  -7   5  -5   13.36    1.48
  -7   5  -5   10.95    1.56
  -7   5  -5   12.63    2.87
  -7  -5  -5   16.29    3.25
  -7   5  -5   12.38    1.44
  -7   5  -6   43.81    2.78
  -7   5  -6   41.51    3.11
  -7  -5  -6   40.20    2.68
  -7   5  -6   43.40    2.83
  -7   5  -7   26.60    2.34
  -7   5  -7   27.52    1.95
  -7   5  -7   25.05    1.81
  -7  -5  -7   26.70    1.90
  -7   5  -8    1.65    0.76
  -7  -5  -8    1.98    0.63
  -7  -7   7   84.37    3.62
   7   7  -7   74.85    3.45
  -7  -7   6  183.81    7.14
   7   7  -6  186.14    7.46
  -7  -7   5  157.79    6.55
   7   7  -5  175.76    7.14
   7  -7  -5  144.21   12.19
   7   7  -4  945.15   30.85
   7  -7  -4 1006.62   40.05
  -7  -7   4 1007.74   30.89
   7   7  -4  998.92   31.55
  -7  -7   4 1002.58   31.55
   7   7  -3  119.74    5.37
  -7  -7   3   98.60    7.48
  -7   7   2 1468.01   50.98
  -7  -7   2 1421.22   48.90
  -7  -7   2 1444.20   44.39
  -7  -7   2 1438.76   44.01
   7  -7  -2 1427.57   49.44
  -7   7   1  181.40   10.59
   7  -7  -1  160.47    9.95
  -7  -7   1  164.67    9.70
  -7  -7   1  163.80    6.62
  -7   7   0  461.39   20.08
   7  -7   0  537.13   22.04
   7  -7   1  146.54   10.17
  -7   7  -1  134.11    7.99
  -7  -7  -1  123.17    6.76
  -7   7  -1  123.24    5.10
  -7   7  -2   61.16    4.84
   7   7   2   79.49    7.76
  -7   7  -2   68.68    3.52
  -7  -7  -2   80.91    5.90
  -7  -7  -2   70.79    3.64
  -7   7  -2   73.27    3.63
  -7  -7  -3  114.47    8.13
  -7   7  -3  110.73    5.12
  -7   7  -3  110.71    5.18
  -7  -7  -3  122.24    5.26
   7   7   4   78.40    7.70
  -7   7  -4   73.99    4.07
  -7  -7  -4   72.00    3.95
  -7   7  -4   74.16    3.97
  -7   7  -5  101.13    5.22
  -7  -7  -5  102.29    4.95
  -7   7  -5  111.37    5.16
  -7   7  -6    1.69    0.86
  -7  -7  -6    1.78    0.79
  -7   7  -7   10.70    1.05
  -7  -7  -7    9.62    1.06
   7   9  -6  744.07   23.47
   7   9  -5   10.51    1.50
   7   9  -4  410.07   14.30
  -7  -9   4  384.69   13.84
   7   9  -4  397.47   13.70
   7   9  -3   73.81    4.24
  -7  -9   3   66.01    6.32
   7  -9  -3   75.16    8.09
  -7  -9   2  671.90   27.82
  -7  -9   2  677.39   22.16
  -7  -9   1  374.08   13.05
  -7   9   1  352.77   12.28
  -7   9   1  355.69   18.40
   7  -9  -1  405.70   19.44
  -7   9   0  617.55   20.36
   7  -9   0  670.80   28.17
  -7   9   0  630.79   20.31
  -7   9   0  659.56   26.76
  -7   9  -1   35.27    2.57
  -7   9  -1   30.55    2.26
   7  -9   1   26.12    4.92
  -7   9  -1   32.86    4.48
  -7   9  -2  324.41   11.73
   7   9   2  367.94   19.94
  -7   9  -2  319.83   11.61
   7  -9   2  328.68   18.28
  -7   9  -3   20.42    2.02
   7   9   3   28.87    5.03
  -7   9  -4   25.74    2.24
  -7   9  -4   26.75    2.32
  -7   9  -5    5.54    1.23
  -7   9  -5    6.12    1.16
  -7   9  -6    7.19    1.02
  -7   9  -6    9.32    1.28
   7  11  -5   17.11    1.44
   7  11  -4  598.69   19.06
   7  11  -4  559.51   18.50
   7  11  -3    0.90    0.85
   7  11  -3    0.47    1.02
  -7 -11   3   -0.20    0.77
   7  11  -2  453.05   15.98
  -7  11   1    2.00    0.71
  -7 -11   1    0.72    0.92
  -7  11   0   59.51    3.19
  -7  11   0   62.42    3.35
  -7 -11   0   63.81    3.64
  -7  11  -1   81.83    4.11
  -7  11  -1   79.01    3.92
  -7  11  -2   66.59    3.69
  -7  11  -2   65.13    3.53
  -7  11  -3   24.17    1.98
  -7  11  -4   78.74    3.80
  -7  11  -4   81.34    3.93
  -7  11  -5    4.24    0.85
  -7  11  -5    5.55    0.88
   7  13  -3    1.04    0.53
   7  13  -3    1.12    0.62
   7  13  -2   89.48    3.91
   7  13  -2   93.53    3.82
   7  13  -1   11.28    1.32
   7  13   0  176.32    6.82
  -7  13  -1   21.67    1.53
  -7 -13  -1   20.76    1.53
  -7  13  -2   44.00    2.27
  -7 -13  -2   37.73    2.12
  -7  13  -3   22.01    1.39
  -7 -13  -3   15.60    1.17
   8   0  -9   -0.24    0.48
  -8   0   8    8.31    1.13
  -8   0   7    1.38    0.86
  -8   0   6    8.90    1.35
  -8   0   6   11.27    3.26
  -8   0   5    0.43    1.44
   8   0  -4  573.00   21.96
  -8   0   4  533.96   22.34
   8   0  -3    0.84    1.23
  -8   0   3    0.24    1.11
  -8   0   2  780.90   26.50
  -8   0   1    0.14    0.82
  -8   0   0 3840.31  115.90
  -8   0  -1   -0.31    0.96
  -8   0  -2 1056.34   35.13
  -8   0  -3    0.25    1.21
  -8   0  -4 1865.94   61.99
  -8   0  -5    0.62    0.73
  -8   0  -5    0.44    1.49
  -8   0  -5    0.58    0.82
  -8   0  -5    0.79    0.81
  -8   0  -5    0.52    0.67
  -8   0  -6 1367.79   40.95
  -8   0  -6 1269.29   41.08
  -8   0  -6 1289.00   41.08
  -8   0  -6 1207.82   47.91
  -8   0  -7    0.58    0.98
  -8   0  -8  506.97   16.71
  -8   0  -9    0.19    0.37
   8  -2  -9   39.32    1.96
   8   2  -9   39.03    2.01
  -8   2   8    6.49    1.31
  -8  -2   8    5.92    1.04
  -8  -2   8    4.54    1.09
  -8   2   7   14.65    1.49
  -8  -2   7   13.56    1.64
  -8   2   6   11.28    1.35
  -8  -2   6    8.95    1.49
  -8  -2   6   15.08    3.53
  -8   2   6   12.62    3.27
   8  -2  -5   22.64    4.09
  -8   2   5   18.31    1.67
  -8  -2   5   26.99    4.17
  -8   2   5   18.64    3.60
   8  -2  -4  356.82   17.11
  -8  -2   4  343.06   16.13
  -8   2   4  361.06   16.35
  -8  -2   3  109.88    6.79
  -8   2   3  107.42    6.77
  -8   2   2  312.16   11.46
  -8  -2   2  304.12   11.40
  -8   2   1   33.54    2.86
  -8  -2   1   32.35    2.79
  -8   2   0  332.28   11.55
  -8  -2   0  331.17   11.96
  -8   2   0  335.34   11.97
  -8   2  -1   37.07    3.19
  -8  -2  -1   39.21    3.13
  -8   2  -2 2542.26   78.58
  -8  -2  -2 2515.67   78.39
  -8  -2  -3   -0.26    1.14
  -8   2  -3    0.79    1.47
   8   2   3    0.61    0.71
  -8   2  -4  798.45   30.62
  -8  -2  -4  827.46   30.92
  -8   2  -5   91.28    4.54
  -8   2  -5   86.21    4.32
  -8   2  -5   90.49    7.96
  -8   2  -5   89.18    4.25
  -8  -2  -5   85.14    7.85
  -8  -2  -5   80.60    4.29
  -8   2  -6  667.84   22.43
  -8   2  -6  652.10   29.11
  -8  -2  -6  651.92   29.02
  -8   2  -6  636.45   21.56
  -8   2  -6  666.54   22.19
  -8   2  -6  683.93   22.13
  -8  -2  -6  684.19   22.07
  -8   2  -7    5.32    1.41
  -8  -2  -7    6.10    1.28
  -8   2  -7    4.49    1.25
  -8  -2  -8  364.03   12.41
  -8   2  -8  369.89   12.45
  -8   2  -9   16.45    1.02
   8  -4  -8    0.96    0.64
  -8  -4   8    1.67    0.67
   8   4  -8    0.48    0.64
  -8  -4   8    0.63    0.63
  -8   4   8    0.21    0.58
  -8   4   7    9.29    1.44
  -8  -4   6    2.38    1.69
   8  -4  -6    5.06    2.20
   8  -4  -6    5.69    2.47
   8   4  -6    0.52    1.76
  -8   4   6    2.32    1.57
   8   4  -6    3.02    0.94
   8  -4  -5    1.64    1.73
  -8  -4   5    0.40    0.71
  -8   4   5    2.09    1.55
   8   4  -5    1.09    0.79
  -8  -4   5    2.59    1.81
  -8  -4   4    1.74    1.51
  -8   4   4    4.02    1.72
   8  -4  -4    5.76    2.44
  -8  -4   4    2.48    0.93
  -8   4   3   52.93    4.56
  -8  -4   3   48.11    3.39
  -8  -4   3   53.14    4.63
  -8  -4   2  502.78   18.10
   8  -4  -2  454.36   17.30
  -8  -4   2  458.51   17.04
  -8   4   1   60.54    4.56
  -8   4   1   60.54    3.85
   8  -4  -1   60.26    4.29
  -8  -4   1   52.46    3.72
  -8   4   0  685.73   23.43
  -8  -4   0  714.43   23.16
  -8  -4   0  679.21   22.49
  -8   4   0  652.83   22.79
  -8  -4  -1  877.04   29.42
  -8   4  -1  879.69   29.37
  -8  -4  -1  967.41   30.40
  -8   4  -1  970.36   30.46
  -8  -4  -2  204.95    9.52
  -8   4  -2  198.03    9.63
  -8  -4  -2  220.02    9.83
  -8  -4  -3  237.54   11.40
   8   4   3  212.29   10.97
  -8   4  -3  225.56   11.24
  -8   4  -4  843.79   25.86
  -8  -4  -4  882.41   31.44
  -8   4  -4  809.11   25.79
  -8   4  -4  811.92   25.94
  -8   4  -4  811.69   25.63
  -8   4  -4  790.71   30.75
  -8  -4  -4  774.43   25.51
  -8   4  -5  239.27    8.90
  -8  -4  -5  246.83   14.08
  -8  -4  -5  222.34    8.65
  -8   4  -5  225.80    8.80
  -8   4  -5  232.17    8.79
  -8   4  -6  519.29   17.78
  -8  -4  -6  495.66   24.03
  -8   4  -6  522.49   17.63
  -8   4  -6  568.10   17.96
  -8  -4  -6  530.26   17.74
  -8   4  -6  452.47   23.50
  -8   4  -7  168.22    7.23
  -8  -4  -7  169.13    6.74
  -8   4  -7  168.30    6.78
  -8  -4  -8  160.44    5.80
  -8   4  -8  162.58    5.89
  -8  -6   8   12.33    1.02
  -8  -6   7   43.84    2.58
  -8  -6   6    1.26    0.82
   8   6  -6    1.63    0.86
  -8  -6   5   98.38    4.80
  -8  -6   5  110.25    5.17
   8   6  -5  100.10    5.01
  -8  -6   4    4.57    1.00
   8   6  -4    4.94    1.11
  -8  -6   4    5.77    1.21
   8   6  -3   46.04    2.87
  -8  -6   3   53.41    4.54
  -8  -6   3   49.18    2.61
  -8  -6   3   45.06    2.79
  -8  -6   2   50.52    4.44
   8  -6  -2   50.39    4.67
  -8   6   1  159.34    9.36
  -8  -6   1  157.37    8.66
   8  -6  -1  156.68    9.07
   8  -6   0  575.48   22.76
  -8   6   0  548.90   21.41
  -8   6  -1  226.33   10.37
  -8  -6  -1  218.58    9.41
  -8  -6  -2  429.15   16.71
  -8   6  -2  398.89   13.44
  -8   6  -3  669.07   21.95
  -8   6  -3  674.31   21.99
  -8  -6  -3  718.15   26.59
  -8   6  -4  402.17   13.86
  -8   6  -4  405.46   13.97
  -8   6  -5  347.79   12.48
  -8   6  -5  349.46   12.74
  -8   6  -6  242.04    9.11
  -8   6  -7  197.79    7.45
  -8  -6  -7  191.93    7.08
  -8   6  -7  174.91    6.66
   8  -6   8   65.57    2.79
  -8  -6  -8   65.06    2.63
   8   8  -6   30.44    2.16
   8   8  -5   42.84    2.94
  -8  -8   5   37.58    2.40
   8   8  -4   30.95    2.29
  -8  -8   4   30.67    2.54
   8   8  -4   34.18    2.69
   8   8  -3  432.63   14.92
  -8  -8   3  387.37   18.26
  -8  -8   2   11.91    1.42
  -8  -8   2   12.62    2.72
  -8  -8   2   14.43    1.69
  -8  -8   1  257.62    9.52
  -8   8   1  255.78   14.18
  -8   8   1  239.06    8.70
   8  -8  -1  264.23   14.46
  -8  -8   1  254.36    9.08
  -8   8   0   64.63    3.27
   8  -8   0   66.43    6.62
  -8  -8   0   66.38    3.36
  -8   8   0   61.14    5.96
  -8   8  -1  414.55   13.89
  -8   8  -1  407.70   17.81
  -8   8  -1  395.49   13.72
   8  -8   1  415.53   20.42
  -8  -8  -1  426.56   14.05
  -8   8  -2  135.37    5.88
   8   8   2  142.63   11.36
  -8   8  -2  144.12    6.03
  -8  -8  -2  146.33    6.08
   8   8   3  440.12   21.61
  -8  -8  -3  415.84   14.33
  -8   8  -3  404.28   14.26
  -8   8  -4  116.21    5.47
   8   8   4  120.43    9.94
  -8   8  -4  115.05    5.48
  -8  -8  -4  119.54    5.41
  -8   8  -5  208.91    8.53
  -8  -8  -5  220.79    8.25
  -8   8  -5  218.35    8.48
  -8   8  -6  114.11    4.93
  -8  -8  -6   98.14    4.32
  -8   8  -6  105.08    4.61
  -8   8  -7  263.97    8.48
   8  10  -6   -0.09    0.46
   8  10  -5    3.19    0.93
   8  10  -4    0.17    0.64
  -8 -10   4    1.09    0.71
   8  10  -4    1.12    0.95
   8  10  -3   42.36    2.96
   8  10  -3   45.40    3.26
   8  10  -2    3.50    1.27
  -8 -10   2    3.52    1.07
  -8  10   1  465.83   15.75
   8 -10  -1  525.65   23.68
  -8 -10   1  499.14   16.63
  -8 -10   0   70.02    3.98
  -8  10   0   63.39    3.29
  -8  10   0   54.53    6.09
   8 -10   0   63.55    7.15
  -8  10   0   63.55    3.40
  -8  10  -1  591.30   19.04
  -8  10  -1  559.15   18.74
   8 -10   1  579.55   26.69
   8  10   1  554.22   27.73
  -8  10  -2    2.49    0.92
   8  10   2    3.05    2.56
  -8  10  -2    1.60    0.81
   8 -10   2    1.14    1.70
  -8  10  -3  586.60   19.39
  -8  10  -4    3.79    1.06
  -8  10  -4    4.05    1.09
  -8  10  -5  323.78   11.39
  -8  10  -5  338.97   11.46
  -8  10  -6    8.72    0.93
  -8  10  -6    8.05    0.85
   8  12  -4   -0.13    0.42
   8  12  -4    0.69    0.61
  -8  12   4    0.39    0.37
  -8  12   3   27.54    1.66
   8  12  -3   28.11    2.13
  -8 -12   3   25.26    1.79
   8  12  -3   26.39    1.90
   8  12  -2   50.68    3.19
   8  12  -2   57.77    3.20
   8  12  -1  179.53    7.46
  -8  12   0   12.01    1.22
  -8 -12   0    9.11    1.28
  -8  12  -1  202.70    7.51
  -8 -12  -1  196.15    7.69
  -8 -12  -2   19.22    1.81
  -8  12  -2   18.89    1.71
  -8  12  -3  275.99    9.64
  -8  12  -4    0.75    0.60
   8  14  -1   97.32    3.69
   8  14   0   20.98    1.29
   8  14   0   18.97    1.33
   8  14   1  144.11    5.12
   8  14   1  163.72    5.37
   9  -1  -9   27.10    1.58
  -9   1   8   44.21    2.38
  -9  -1   8   41.78    2.83
  -9   1   8   38.90    2.78
  -9   1   7  384.71   13.45
  -9  -1   7  405.77   13.75
  -9   1   6   19.47    1.77
  -9  -1   6   18.15    1.86
  -9  -1   6   12.87    3.26
  -9   1   6   20.68    3.93
  -9  -1   5  334.21   11.65
  -9   1   5  314.26   11.51
   9  -1  -5  339.97   16.77
  -9  -1   5  361.37   17.30
  -9   1   5  358.30   17.25
   9  -1  -4   19.80    3.21
  -9  -1   4   16.24    3.01
   9  -1  -3 1913.66   58.01
  -9  -1   3 1831.43   58.21
   9   1  -2  578.48   19.51
  -9  -1   2  619.39   21.39
  -9  -1   1 1954.88   60.82
  -9   1   0   12.86    1.77
  -9   1   0   14.40    1.98
  -9   1  -1  435.87   16.30
   9   1   2   73.98    3.74
  -9   1  -2  118.20    6.27
  -9   1  -3  564.10   21.91
  -9   1  -4  244.41   13.00
  -9  -1  -5   22.98    2.20
  -9  -1  -5   24.14    2.20
  -9   1  -5   23.12    4.03
  -9   1  -5   18.14    1.78
  -9   1  -5   22.46    2.09
  -9  -1  -5   22.35    2.03
  -9   1  -6   -0.54    1.49
  -9   1  -6    0.27    1.13
  -9  -1  -6    0.54    1.72
  -9  -1  -6    0.41    0.96
  -9   1  -6   -0.53    0.98
  -9  -1  -6    0.72    0.91
  -9  -1  -7   23.05    2.19
  -9  -1  -8    6.71    1.06
  -9  -1  -9   10.95    0.84
  -9   3   8  122.52    5.32
  -9  -3   8  112.21    5.15
  -9  -3   7   88.16    4.38
   9  -3  -6  245.41   15.84
  -9  -3   6  259.04   15.76
  -9   3   6  276.30   16.05
  -9   3   5  987.55   38.17
  -9  -3   5 1046.82   38.77
   9  -3  -5 1017.36   39.76
  -9  -3   4   60.57    3.15
  -9  -3   4   61.14    3.43
  -9  -3   4   64.05    5.95
  -9   3   4   55.57    5.49
   9  -3  -4   63.34    6.38
  -9  -3   3  757.17   28.17
  -9   3   3  803.21   28.36
  -9  -3   2   80.11    5.26
  -9   3   2   84.46    5.39
   9  -3  -1 2434.74   75.22
  -9  -3   1 2499.27   76.05
  -9  -3   0 1207.50   37.99
  -9   3   0 1177.64   37.80
  -9   3   0 1158.61   37.32
  -9  -3   0 1138.98   37.23
  -9   3  -1 1961.50   63.06
  -9  -3  -1 2063.31   63.07
  -9   3  -2  366.77   15.20
  -9  -3  -2  386.32   15.31
  -9   3  -3  285.59   13.15
   9   3   3  254.93   11.65
  -9  -3  -3  281.34   13.07
  -9   3  -4  115.17    8.33
  -9  -3  -4  112.98    8.38
  -9  -3  -4  118.86    5.14
  -9  -3  -4  102.91    4.79
  -9   3  -4  113.92    5.15
  -9   3  -4  117.51    5.15
  -9   3  -4  123.01    5.10
  -9   3  -4  112.18    4.94
  -9   3  -5  222.97   13.53
  -9  -3  -5  232.45   14.02
  -9   3  -5  224.74    8.73
  -9  -3  -5  235.88    9.06
  -9   3  -5  219.75    8.82
  -9   3  -5  230.38    9.08
  -9  -3  -5  221.17    8.69
  -9   3  -5  229.37    8.78
  -9  -3  -6   88.24    8.51
  -9  -3  -6   95.23    4.70
  -9   3  -6   89.69    4.68
  -9   3  -6   86.19    8.38
  -9   3  -6   86.96    4.60
  -9   3  -6   88.27    4.42
  -9  -3  -7   19.93    1.96
  -9   3  -7   20.15    1.97
  -9   3  -7   19.94    2.16
  -9  -3  -8    6.15    0.95
  -9   3  -8    6.80    0.98
  -9  -5   8  158.24    5.77
  -9  -5   7  208.96    8.71
  -9   5   7  246.55    8.95
  -9  -5   6  432.49   15.84
   9  -5  -6  439.58   22.82
   9   5  -6  461.99   15.69
  -9   5   6  466.72   15.99
  -9  -5   5  141.63    6.38
  -9  -5   5  156.60    6.58
  -9   5   5  153.89    6.52
   9   5  -5  155.42    6.45
   9  -5  -5  167.50   12.37
  -9  -5   5  144.25    6.57
  -9  -5   5  156.72   10.30
  -9   5   5  160.85   10.41
  -9  -5   4  488.70   17.29
  -9  -5   4  447.91   17.17
  -9   5   4  553.36   17.51
   9   5  -4  578.92   17.60
  -9  -5   4  569.90   17.94
   9  -5  -4  571.48   24.75
  -9  -5   4  518.26   21.85
  -9   5   4  572.26   22.29
  -9   5   3  550.99   18.23
  -9   5   3  579.92   22.09
  -9  -5   3  609.22   18.68
  -9  -5   3  613.43   22.38
  -9  -5   2  317.59   14.18
   9  -5  -2  353.50   14.49
   9  -5  -1  626.36   22.83
  -9   5   1  637.15   23.45
  -9   5   1  612.82   21.18
  -9  -5   1  617.62   21.27
  -9   5   0  188.30    9.10
  -9   5  -1  943.41   31.92
  -9  -5  -1 1005.04   32.29
  -9   5  -1  964.58   31.88
  -9   5  -2  334.89   13.99
  -9  -5  -2  329.83   13.77
  -9   5  -3  412.30   13.55
  -9   5  -3  382.37   13.44
   9   5   3  415.65   18.18
  -9   5  -3  419.02   17.40
  -9  -5  -3  399.59   17.09
  -9   5  -4  205.03    7.87
  -9   5  -4  201.97    7.93
  -9   5  -4  194.91   11.56
  -9  -5  -4  205.08   11.67
  -9   5  -4  193.32    7.74
  -9   5  -4  203.72    7.57
  -9   5  -5  146.49    6.45
  -9   5  -5  137.23   10.26
  -9   5  -5  148.36    6.61
  -9   5  -5  155.61    6.41
  -9  -5  -5  156.98   10.68
  -9   5  -5  144.88    6.20
  -9  -5  -6   70.33    3.68
  -9   5  -6   76.55    3.86
  -9   5  -6   71.64    3.79
  -9   5  -6   70.78    3.80
  -9  -5  -7   23.81    1.68
  -9   5  -7   21.16    1.65
  -9   5  -7   21.15    1.73
  -9  -5  -8   18.34    1.36
  -9  -7   7   14.16    1.25
  -9  -7   6  251.03    9.15
   9   7  -6  253.33    9.23
   9   7  -5  433.05   15.19
  -9  -7   5  450.74   14.97
  -9  -7   5  438.30   15.27
   9  -7  -5  428.98   22.81
  -9  -7   4  654.15   20.60
  -9  -7   4  615.12   21.19
   9   7  -4  628.98   21.02
   9  -7  -4  625.58   28.88
   9   7  -3  310.05   11.27
  -9  -7   3  307.28   11.09
  -9  -7   2 1205.31   41.98
   9  -7  -2 1200.20   42.65
  -9  -7   2 1217.88   37.79
  -9  -7   2 1234.59   38.10
  -9  -7   1  308.63   10.88
  -9   7   1  314.21   15.36
   9  -7  -1  333.11   15.65
  -9  -7   1  313.81   11.19
   9  -7   0  543.12   22.00
  -9  -7   0  481.11   16.17
  -9   7   0  507.33   20.47
  -9   7  -1  285.75   10.27
  -9   7  -1  281.28   13.03
  -9   7  -1  287.21   10.13
  -9  -7  -1  306.53   10.41
  -9   7  -2  346.89   12.09
  -9   7  -2  336.08   11.90
  -9  -7  -2  366.10   12.23
   9   7   3   70.50    7.26
  -9   7  -3   68.35    3.65
  -9  -7  -3   66.43    3.64
  -9  -7  -4  110.71    5.17
  -9   7  -4  106.46    5.17
  -9   7  -4  108.87    5.21
  -9  -7  -5  124.62    5.68
  -9   7  -5  122.80    5.84
  -9   7  -5  135.75    5.88
  -9   7  -6    0.90    0.78
  -9   7  -6    0.31    0.94
  -9  -7  -6   -0.09    0.71
  -9  -7  -7   16.92    1.35
  -9   7  -7   17.31    1.30
  -9   9   7    5.39    0.56
   9   9  -6  467.90   15.00
   9   9  -5    2.57    0.94
   9   9  -4  505.75   16.87
   9   9  -4  523.36   17.46
  -9  -9   4  498.94   17.26
   9   9  -3  202.16    8.28
   9  -9  -3  184.53   13.56
  -9  -9   2  102.09    4.76
  -9  -9   2  107.47    5.16
  -9   9   1  213.17    8.07
  -9   9   1  232.98    8.73
  -9  -9   1  227.45    8.49
   9  -9  -1  243.74   14.19
  -9  -9   1  235.55    9.01
  -9   9   0  561.77   18.62
   9  -9   0  586.56   25.89
  -9  -9   0  577.44   18.76
  -9   9   0  581.84   24.28
  -9   9  -1  130.26    5.64
  -9   9  -1  141.02    5.89
   9  -9   1  142.36   10.90
  -9  -9  -1  142.91    5.94
   9   9   2  364.78   19.61
  -9   9  -2  307.68   11.26
   9  -9   2  348.64   18.73
  -9   9  -2  309.84   11.45
  -9  -9  -2  325.94   11.46
   9   9   3   67.13    7.82
  -9   9  -3   83.29    4.21
   9  -9   3   88.55    8.99
  -9  -9  -3   81.24    4.16
  -9   9  -4   82.25    4.38
  -9   9  -4   90.17    4.40
  -9  -9  -4   81.79    4.04
  -9   9  -5   20.46    1.85
  -9   9  -5   19.64    1.88
  -9  -9  -5   20.05    1.58
  -9   9  -6   51.68    2.71
  -9   9  -6   60.95    2.95
   9  11  -5    2.37    0.63
   9  11  -4  377.35   11.94
  -9  11   4  337.38   11.28
   9  11  -4  353.57   11.37
   9  11  -3    1.38    0.88
   9  11  -3    0.86    0.95
  -9 -11   3    2.24    0.94
   9  11  -2  368.94   13.06
  -9  11   2  351.53   12.11
  -9 -11   1    3.75    1.00
  -9  11   0  110.66    4.77
  -9 -11   0  106.27    5.16
  -9  11  -1    1.60    0.76
  -9  11  -1    1.38    0.57
  -9 -11  -1    1.72    0.98
  -9  11  -2  100.94    4.60
  -9  11  -2   86.04    4.12
  -9  11  -3    6.80    1.07
  -9  11  -3    8.36    1.30
  -9  11  -4  113.30    4.73
  -9  11  -4  103.21    4.43
  -9  11  -5    0.49    0.55
  -9  11  -5    0.32    0.50
   9  13  -3   44.56    2.08
   9  13  -3   51.99    2.34
   9  13  -2  140.71    5.15
   9  13  -2  138.30    5.25
   9  13  -1    7.01    1.11
   9  13  -1    6.38    1.03
   9  13   0  247.32    8.93
  -9 -13  -1   33.28    1.92
  -9  13  -2  116.73    4.40
  -9 -13  -2  115.08    4.43
  -9  13  -3   60.52    2.62
  -9 -13  -3   63.41    2.56
  10   0  -9    0.24    0.42
 -10   0   8    1.86    0.71
 -10   0   8    1.22    0.90
 -10   0   7   -0.10    0.86
 -10   0   6    0.10    0.75
 -10   0   6    1.05    1.86
 -10   0   5    0.45    0.65
 -10   0   5   -0.45    1.66
  10   0  -4   29.75    3.59
 -10   0   4   30.48    4.03
 -10   0   3    0.53    1.16
  10   0  -3    0.65    1.19
 -10   0   2  214.49    9.89
 -10   0   1   -0.17    0.97
 -10   0   1    1.40    1.32
 -10   0   0  433.73   16.27
 -10   0  -1    0.58    1.13
 -10   0  -2  104.42    6.58
 -10   0  -3    2.06    1.44
 -10   0  -4 1301.92   40.55
 -10   0  -4 1270.20   40.51
 -10   0  -4 1361.22   46.63
 -10   0  -4 1345.70   40.42
 -10   0  -5    0.36    0.93
 -10   0  -5   -0.95    1.77
 -10   0  -5    0.32    0.79
 -10   0  -6  556.97   19.44
 -10   0  -6  580.43   19.25
 -10   0  -6  565.42   19.49
 -10   0  -6  544.56   26.12
 -10   0  -7   -0.11    0.95
 -10   0  -8  270.29    9.55
 -10   0  -9    0.15    0.26
 -10  -2   8   26.79    1.86
 -10   2   8   23.45    2.03
 -10  -2   8   20.08    1.84
 -10   2   7    3.70    0.85
 -10  -2   7    4.52    1.11
 -10  -2   6   35.58    2.63
 -10   2   6   29.97    2.24
 -10  -2   6   32.99    5.09
 -10   2   6   32.93    5.05
 -10  -2   5   28.01    4.49
 -10   2   5   25.81    1.96
 -10  -2   5   27.87    2.15
  10  -2  -5   29.67    4.69
 -10   2   5   30.42    4.47
 -10  -2   4  107.52    4.60
 -10  -2   4  102.27    4.89
 -10  -2   4  101.21    7.69
 -10   2   4  104.15    7.88
 -10  -2   3  106.93    6.97
 -10   2   3   95.40    6.77
 -10  -2   2    4.25    1.55
 -10   2   2    2.55    1.29
 -10  -2   2    4.88    0.83
 -10   2   2    4.75    0.80
 -10   2   1  577.82   20.86
 -10  -2   1  590.39   20.81
 -10   2   0  472.70   17.03
 -10  -2   0  475.18   17.04
 -10  -2   0  420.28   16.16
 -10   2   0  448.17   16.41
 -10   2  -1   12.42    2.05
 -10  -2  -1    9.94    1.92
 -10   2  -2 2057.49   65.04
 -10  -2  -2 2011.88   64.77
 -10  -2  -3  442.51   18.90
 -10   2  -3  482.72   19.38
 -10   2  -4  357.42   16.72
 -10  -2  -4  374.27   17.17
 -10   2  -4  328.84   11.83
 -10  -2  -4  327.36   11.82
 -10   2  -4  332.73   11.90
 -10   2  -4  360.14   11.86
 -10   2  -4  344.13   11.76
 -10  -2  -4  319.07   11.65
 -10   2  -5   39.56    5.51
 -10  -2  -5   41.23    5.62
 -10  -2  -5   51.79    3.30
 -10   2  -5   47.80    3.17
 -10   2  -5   49.57    3.02
 -10   2  -5   51.33    3.30
 -10  -2  -5   43.09    2.99
 -10   2  -5   50.88    3.14
 -10   2  -6  278.16   10.38
 -10   2  -6  293.16   10.97
 -10   2  -6  249.83   15.96
 -10  -2  -6  252.55   15.95
 -10   2  -6  293.55   10.80
 -10  -2  -6  288.13   10.69
 -10  -2  -7    1.16    0.96
 -10   2  -7   -0.36    1.08
 -10   2  -7    1.71    0.94
 -10   2  -8   72.17    3.48
 -10  -2  -8   77.42    3.52
  10  -4  -8   17.64    1.41
  10   4  -8   14.39    1.46
 -10   4   7   35.74    2.61
 -10  -4   7   33.05    2.51
 -10  -4   6   33.09    2.68
  10  -4  -6   28.13    4.92
 -10   4   6   33.97    2.68
 -10  -4   6   33.36    4.79
 -10   4   6   31.55    4.67
  10  -4  -5   24.48    4.59
 -10  -4   5   28.33    4.33
 -10  -4   5   21.59    2.02
 -10   4   5   19.94    3.76
  10  -4  -4   -1.37    1.92
 -10  -4   4    0.61    0.58
 -10  -4   4   -0.37    1.18
 -10  -4   4    1.09    0.91
 -10   4   4    1.44    1.57
 -10   4   3    3.19    1.46
 -10  -4   3    0.29    1.18
 -10  -4   3    0.63    0.66
 -10   4   3    0.86    0.67
 -10  -4   2  505.58   18.08
 -10   4   2  461.65   14.58
 -10   4   2  487.76   18.05
 -10  -4   2  444.00   14.53
  10  -4  -1  240.24   10.34
 -10   4   1  232.18   10.05
 -10  -4   1  239.97   10.11
 -10  -4   0  685.13   24.34
 -10  -4   0  718.58   23.84
 -10   4   0  689.60   24.21
 -10  -4  -1  483.29   18.08
 -10   4  -1  478.83   18.08
 -10   4  -2  501.76   19.20
 -10  -4  -2  472.51   18.79
 -10   4  -3  375.43   12.94
 -10  -4  -3  424.63   17.38
  10   4   3  369.69   16.14
 -10   4  -3  395.45   17.05
 -10   4  -4  648.16   21.30
 -10  -4  -4  658.64   21.43
 -10  -4  -4  731.17   27.51
 -10   4  -4  655.07   21.34
 -10   4  -4  640.38   21.27
 -10   4  -4  654.68   26.76
 -10   4  -4  667.68   21.09
 -10  -4  -4  631.99   20.96
 -10   4  -5  345.53   12.24
 -10   4  -5  346.26   12.09
 -10   4  -5  322.16   17.45
 -10   4  -5  316.56   12.29
 -10  -4  -5  338.36   17.86
 -10   4  -5  329.65   12.17
 -10  -4  -5  352.01   12.07
 -10   4  -6  227.79    9.01
 -10   4  -6  207.00   13.84
 -10  -4  -6  201.53   13.73
 -10  -4  -6  242.25    8.96
 -10   4  -6  227.38    8.85
 -10   4  -6  242.44    9.03
 -10  -4  -7  592.28   18.92
 -10   4  -7  572.03   18.95
 -10  -4  -8   98.18    3.84
 -10   4  -8  108.20    4.01
 -10  -6   8    0.65    0.35
 -10  -6   7    8.09    1.09
 -10  -6   6   31.71    2.35
  10   6  -5   41.18    2.79
  10  -6  -5   48.93    6.58
 -10  -6   5   37.43    2.69
 -10  -6   5   46.45    3.14
  10  -6  -4    8.78    2.97
 -10  -6   4   12.48    1.74
 -10  -6   4   10.95    1.39
  10   6  -4   10.29    1.42
 -10  -6   3   25.30    1.85
  10   6  -3   22.61    1.97
 -10  -6   3   22.74    2.00
 -10  -6   2   -0.57    1.00
  10  -6  -2   -0.82    1.67
 -10  -6   2   -0.34    0.82
  10  -6  -1  123.53    7.98
 -10   6   0  195.61   10.06
  10  -6   0  207.72   11.44
 -10   6  -1  172.81    8.49
 -10   6  -2  657.03   21.25
 -10   6  -2  648.69   21.27
 -10  -6  -2  692.37   21.44
  10   6   3  317.50   16.74
 -10   6  -3  325.81   11.73
 -10  -6  -3  354.36   11.99
 -10   6  -4  706.57   22.93
 -10   6  -4  695.90   22.73
 -10   6  -4  701.48   22.91
 -10   6  -5  480.61   16.68
 -10   6  -5  525.19   17.13
 -10   6  -5  492.32   17.12
 -10   6  -6  218.23    8.47
 -10   6  -6  207.60    8.13
 -10   6  -7  156.75    5.93
 -10  -6  -7  169.29    6.30
  10  -6   8   41.99    1.93
 -10   8   7   46.99    2.18
  10   8  -6    4.11    0.87
  10   8  -5   21.84    1.94
 -10  -8   5   22.66    1.99
 -10  -8   5   18.68    1.60
 -10  -8   4   50.62    3.30
  10   8  -4   46.08    2.79
 -10  -8   4   45.73    2.65
  10   8  -4   50.59    3.19
  10  -8  -4   50.53    6.93
  10   8  -3  222.49    8.81
 -10  -8   2    3.33    1.02
 -10  -8   2    4.21    1.19
  10  -8  -1  224.97   13.16
 -10  -8   1  219.36    8.60
 -10  -8   1  214.93    8.24
 -10   8   0   72.33    3.51
 -10   8   0   76.27    6.43
 -10   8   0   75.95    3.87
  10  -8   0   75.33    7.36
 -10  -8   0   69.78    3.68
 -10   8  -1  411.81   14.10
 -10   8  -1  398.83   13.79
 -10  -8  -1  430.50   14.31
  10  -8   1  456.08   21.27
 -10   8  -1  425.72   14.27
  10   8   2  177.89   12.66
 -10   8  -2  155.12    6.61
 -10   8  -2  156.54    6.43
 -10  -8  -2  166.90    6.72
  10   8   3   76.06    7.91
 -10   8  -3   84.41    4.20
 -10  -8  -3   82.45    4.27
 -10   8  -4   23.41    2.22
 -10   8  -4   25.75    2.23
 -10  -8  -4   26.44    2.23
 -10   8  -5  205.76    8.23
 -10   8  -5  222.57    8.37
 -10  -8  -5  205.84    7.98
 -10   8  -6  187.82    6.82
 -10   8  -6  182.04    6.94
 -10  -8  -6  168.56    6.53
 -10   8  -7  420.73   13.42
 -10  10   6    1.76    0.51
  10  10  -5    2.23    0.72
  10  10  -4    4.29    0.90
  10  10  -4    3.99    1.07
 -10 -10   4    2.65    0.93
  10  10  -3    8.62    1.36
  10  10  -3    7.29    1.47
  10  10  -2   38.86    2.95
 -10  10   2   35.02    2.55
 -10  10   1  120.89    5.08
 -10 -10   1  123.76    5.72
 -10  10   0   76.21    3.80
  10 -10   0   74.17    7.74
 -10 -10   0   82.22    4.39
  10  10   1  200.44   14.51
 -10  10  -1  214.27    7.93
  10 -10   1  197.32   13.41
 -10  10  -1  189.39    7.42
 -10  10  -2    1.96    0.82
 -10  10  -2    1.27    0.78
 -10  10  -3  348.75   12.15
 -10  10  -3  328.58   11.74
 -10  10  -4   50.48    2.88
 -10  10  -4   47.54    2.96
 -10  10  -5  264.32    9.13
 -10  10  -5  262.39    9.28
 -10  10  -6   11.71    0.98
 -10  10  -6   16.09    1.06
  10  12  -4    0.35    0.47
 -10  12   4    0.25    0.29
  10  12  -3   69.32    3.16
  10  12  -3   71.62    3.39
 -10  12   3   68.62    2.87
 -10 -12   3   60.29    3.06
  10  12  -2    5.78    1.07
  10  12  -2    4.58    1.15
  10  12  -1   77.24    4.05
 -10 -12   0   14.15    1.48
 -10 -12  -1   35.51    2.38
 -10  12  -1   31.08    2.07
 -10  12  -2   14.91    1.42
 -10 -12  -2   13.94    1.52
 -10  12  -3  115.70    4.69
 -10 -12  -3  115.78    4.79
 -10 -12  -4    0.05    0.51
  10  14  -1   24.77    1.31
 -10 -14   0    3.67    0.56
 -11   1   8    1.33    0.55
 -11  -1   8   -0.14    0.67
 -11  -1   8    0.28    0.61
 -11   1   8    0.19    0.74
 -11   1   7  388.57   13.29
 -11  -1   7  387.32   13.48
 -11  -1   6    2.22    0.94
 -11  -1   6    1.58    1.77
 -11   1   6    3.24    0.98
 -11   1   6    2.11    1.96
  11  -1  -5 1096.09   42.13
 -11   1   5 1169.30   36.58
 -11  -1   5 1196.75   36.79
 -11  -1   5 1278.89   44.43
 -11   1   5 1170.83   43.65
  11  -1  -4   12.45    2.69
 -11  -1   4   12.22    2.85
 -11  -1   4   15.40    1.46
  11  -1  -3 2124.62   67.95
 -11  -1   3 2133.35   68.71
 -11  -1   2  303.30   10.21
 -11   1   2  329.11   10.29
 -11  -1   2  316.73   13.20
 -11  -1   1 1322.42   44.32
 -11   1   1 1435.75   45.16
 -11   1   0  112.90    6.40
 -11   1   0  107.71    6.02
 -11   1  -1 2249.62   70.79
 -11   1  -2  224.41   11.03
 -11   1  -3  436.47   18.64
 -11   1  -4  247.15   13.44
 -11  -1  -4  226.05    8.58
 -11   1  -4  219.01    8.50
 -11  -1  -4  207.19    8.46
 -11   1  -4  226.78    8.59
 -11   1  -4  220.83    8.35
 -11  -1  -4  241.56    8.51
 -11   1  -5  178.37   12.12
 -11   1  -5  183.93    7.64
 -11   1  -5  181.25    7.64
 -11  -1  -5  176.10    7.36
 -11   1  -5  178.17    7.24
 -11  -1  -6   28.19    2.44
 -11   1  -6   24.60    4.51
 -11  -1  -6   26.82    4.88
 -11  -1  -6   30.90    2.74
 -11   1  -6   27.04    2.57
 -11  -1  -7  125.70    5.70
 -11  -1  -8   20.35    1.64
 -11  -3   8  129.10    5.71
 -11   3   8  145.72    5.92
 -11  -3   7  209.45    8.01
 -11  -3   7  203.62    8.27
 -11   3   7  202.56    8.28
  11  -3  -6  134.34   10.73
 -11  -3   6  160.88    6.63
 -11  -3   6  153.46   11.24
 -11   3   6  146.19   10.79
 -11  -3   5  623.13   26.38
 -11   3   5  597.87   25.95
  11  -3  -5  597.32   26.89
 -11  -3   4   92.46    4.33
 -11  -3   4   93.30    4.68
  11  -3  -4  102.78    8.17
 -11  -3   4   96.57    7.60
 -11   3   4  100.01    7.58
 -11  -3   3 1194.02   40.96
 -11  -3   3 1189.57   36.50
 -11   3   3 1177.84   36.48
 -11   3   3 1162.06   40.75
 -11  -3   2   89.39    3.93
 -11  -3   2  100.05    6.39
 -11   3   2   95.22    6.31
 -11   3   2   99.39    4.01
 -11   3   1 2134.08   65.34
  11  -3  -1 2051.69   64.31
 -11   3   0 1206.85   38.89
 -11   3   0 1128.21   38.21
 -11  -3   0 1114.23   38.04
 -11   3  -1 1289.45   42.63
 -11  -3  -1 1293.47   42.48
 -11  -3  -2  213.58   10.77
 -11   3  -2  232.92   11.28
 -11   3  -3 1062.22   38.13
 -11  -3  -3 1081.68   38.20
 -11   3  -4  110.20    8.40
 -11  -3  -4  103.83    8.26
 -11  -3  -4   87.72    4.23
 -11  -3  -4   86.69    4.42
 -11   3  -4   92.75    4.49
 -11   3  -4   90.86    4.50
 -11   3  -4   95.04    4.50
 -11   3  -4   93.67    4.37
 -11   3  -5  481.91   16.45
 -11   3  -5  477.52   22.93
 -11  -3  -5  512.37   23.38
 -11  -3  -5  482.00   16.77
 -11   3  -5  478.85   16.68
 -11   3  -5  472.84   16.62
 -11   3  -5  501.04   16.54
 -11  -3  -5  475.65   16.40
 -11  -3  -6   19.82    1.99
 -11   3  -6   19.60    2.16
 -11   3  -6   17.58    1.96
 -11   3  -6   14.68    3.55
 -11  -3  -6   15.82    3.66
 -11   3  -6   21.01    2.06
 -11   3  -6   22.18    2.08
 -11  -3  -7   34.67    2.44
 -11   3  -7   35.87    2.51
 -11  -3  -8   11.37    1.11
 -11   3  -8   13.45    1.20
 -11  -5   8  135.77    4.97
 -11  -5   7  635.13    8.40
 -11   5   7    4.44    1.38
 -11   5   6  214.07    8.59
 -11  -5   6  212.62    8.60
 -11   5   5  369.41   18.84
 -11  -5   5  413.78   14.09
 -11  -5   5  383.87   14.10
 -11   5   5  423.36   14.27
  11  -5  -5  419.25   21.66
 -11  -5   5  421.06   14.55
 -11  -5   5  354.95   18.73
 -11   5   4  755.54   29.63
 -11  -5   4  771.17   24.58
 -11  -5   4  759.18   24.64
 -11   5   4  755.80   24.62
 -11  -5   4  798.29   25.20
  11  -5  -4  799.14   32.28
 -11  -5   4  732.98   29.60
 -11  -5   3  619.82   19.82
 -11   5   3  633.74   24.31
 -11  -5   3  617.20   24.19
  11   5  -3  594.70   19.81
 -11  -5   3  605.37   19.85
 -11   5   3  627.05   19.94
 -11  -5   3  645.49   20.24
 -11   5   2  678.72   20.83
 -11   5   2  717.74   23.97
  11  -5  -1  888.85   32.50
 -11   5   1  982.95   31.96
 -11  -5   1  977.57   31.93
 -11   5  -1  504.96   19.38
 -11  -5  -1  538.33   19.73
 -11   5  -2  229.52   11.03
 -11  -5  -2  215.44   10.70
  11   5   3  587.67   23.87
 -11   5  -3  578.74   19.21
 -11   5  -3  588.87   23.67
 -11  -5  -3  653.23   24.08
 -11   5  -4  106.42    5.03
 -11   5  -4  106.39    5.05
 -11   5  -4  108.80    5.09
 -11   5  -4  109.07    8.39
 -11  -5  -4  109.60    8.34
 -11   5  -4  106.76    4.73
 -11  -5  -5   44.93    2.81
 -11   5  -5   47.50    3.16
 -11   5  -5   44.14    2.99
 -11  -5  -5   48.07    5.78
 -11   5  -5   42.74    2.81
 -11   5  -5   47.32    3.13
 -11   5  -6  112.08    5.12
 -11   5  -6  111.88    5.12
 -11   5  -6  116.25    5.45
 -11  -5  -6  108.58    4.86
 -11   5  -6  108.13    4.96
 -11  -5  -8   74.78    3.08
 -11  -7   7   61.09    2.74
 -11  -7   6  165.11    6.45
  11   7  -5  452.40   15.82
 -11  -7   5  484.97   16.31
 -11  -7   5  477.04   15.82
 -11  -7   4  317.07   11.27
  11   7  -4  312.16   11.49
 -11  -7   4  329.32   12.00
  11  -7  -4  326.71   18.72
  11   7  -3  552.58   17.92
 -11  -7   3  557.96   17.97
 -11  -7   3  502.03   17.29
 -11  -7   2  773.83   24.56
 -11  -7   2  754.08   24.74
  11  -7  -1  537.37   22.49
 -11  -7   1  533.88   17.73
 -11  -7   1  544.30   18.01
 -11   7   0  726.71   22.09
  11  -7   0  746.81   28.56
 -11   7   0  695.06   22.56
 -11   7   0  655.73   21.94
 -11  -7   0  715.46   22.46
 -11   7  -1  142.21    5.76
 -11   7  -1  140.14    5.99
 -11  -7  -1  147.59    6.03
 -11   7  -2  670.71   22.05
 -11   7  -2  718.79   22.41
 -11   7  -2  678.80   22.35
 -11  -7  -2  708.09   22.49
  11   7   3   43.90    5.65
 -11   7  -3   45.05    2.82
 -11   7  -3   46.39    2.88
 -11  -7  -3   42.72    2.94
 -11   7  -4  206.10    8.18
 -11   7  -4  198.86    8.06
 -11  -7  -4  203.13    8.15
 -11   7  -5  128.97    5.81
 -11   7  -5  130.62    5.87
 -11  -7  -5  127.58    5.78
 -11   7  -6  151.84    6.46
 -11   7  -6  161.43    6.37
 -11  -7  -6  164.15    6.39
 -11   7  -7   12.51    1.22
 -11  -7  -7   11.57    1.07
  11   9  -5   15.84    1.50
  11   9  -4  235.64    8.87
  11   9  -4  262.26    9.50
 -11  -9   4  255.36    9.58
  11   9  -3   79.98    4.31
 -11  -9   2  270.35   10.01
 -11  -9   2  270.57   10.28
 -11   9   1   85.63    4.38
 -11  -9   1   82.10    4.21
 -11  -9   1   89.57    4.59
  11  -9   0  686.64   29.86
 -11   9   0  702.58   23.15
 -11   9   0  702.77   22.76
 -11  -9   0  726.62   23.13
 -11  -9   0  734.65   23.58
  11  -9   1  201.46   13.41
 -11   9  -1  193.47    7.74
 -11  -9  -1  208.42    7.94
 -11   9  -2  274.11   10.09
  11   9   2  298.28   17.49
 -11   9  -2  252.25    9.62
  11  -9   2  298.81   17.21
 -11  -9  -2  276.46   10.07
 -11   9  -3   46.48    3.05
  11   9   3   58.07    6.81
 -11   9  -3   42.49    2.78
  11  -9   3   51.25    7.01
 -11  -9  -3   47.49    2.96
 -11   9  -4  199.50    7.91
 -11   9  -4  194.90    7.68
 -11  -9  -4  199.04    7.59
 -11   9  -5   12.48    1.41
 -11   9  -5   14.42    1.54
 -11  -9  -5   12.51    1.25
 -11   9  -6  101.83    4.06
 -11   9  -6  100.20    4.08
  11  11  -5    2.34    0.49
 -11  11   5    3.13    0.58
  11  11  -4  211.59    7.58
  11  11  -4  238.31    8.16
 -11  11   4  234.53    7.88
 -11  11   4  242.56    8.04
 -11 -11   4  209.91    7.83
  11  11  -3    1.05    0.75
  11  11  -3   -0.09    0.84
 -11  11   3   -0.07    0.57
 -11 -11   3    0.19    0.80
 -11  11   3   -0.07    0.60
 -11  11   2  604.20   19.65
  11  11  -2  637.56   20.52
 -11 -11   1   13.43    1.63
 -11  11   0  165.95    6.33
 -11 -11   0  166.55    6.93
 -11  11  -1   12.83    1.42
 -11 -11  -1   14.59    1.78
 -11  11  -2  267.32    9.71
 -11  11  -3   46.04    2.78
 -11  11  -5    0.09    0.43
  11  13  -3   25.38    1.37
  11  13  -2  141.74    4.78
  11  13  -2  130.38    4.82
  11  13  -1   17.00    1.42
  11  13  -1   15.69    1.39
  11  13   0  461.23   15.04
 -11 -13  -1   43.40    2.20
 -11  13  -2  211.60    7.17
 -11 -13  -2  226.95    7.40
 -12   0   8    8.42    1.01
 -12   0   8    7.52    1.20
 -12   0   7   -0.28    0.73
 -12   0   7    0.26    1.00
 -12   0   6   35.65    2.57
 -12   0   6   36.24    5.38
 -12   0   5    0.47    0.70
 -12   0   5   -0.47    1.68
 -12   0   4  517.36   17.03
 -12   0   4  559.25   22.92
  12   0  -3   -0.44    1.08
 -12   0   3   -0.30    1.17
 -12   0   2   14.85    1.32
 -12   0   2   15.72    2.61
 -12   0   1   -0.24    1.25
 -12   0   1    0.35    0.52
 -12   0   0  294.79   12.78
 -12   0  -1    0.23    1.21
 -12   0  -2  227.48   11.43
 -12   0  -3   -0.34    1.21
 -12   0  -4  171.15    6.78
 -12   0  -4  191.73   11.68
 -12   0  -4  173.06    6.97
 -12   0  -4  165.40    6.79
 -12   0  -5    1.28    1.08
 -12   0  -5    1.09    0.95
 -12   0  -5    0.51    1.82
 -12   0  -5    0.45    0.77
 -12   0  -6  487.08   16.77
 -12   0  -6  472.73   16.32
 -12   0  -7    0.95    0.91
 -12   0  -8  335.86   11.30
 -12  -2   8   92.01    4.44
 -12   2   8  101.51    4.61
 -12   2   7   15.75    1.48
 -12  -2   7   14.32    1.78
 -12   2   7   15.64    1.90
 -12  -2   7   18.57    1.84
 -12   2   6  109.15    4.90
 -12  -2   6  115.54    5.25
 -12  -2   6   94.71    8.91
 -12   2   6   96.92    8.84
 -12  -2   5    0.10    0.78
 -12   2   5   -0.94    1.83
 -12   2   5    0.36    0.61
  12  -2  -5    0.45    1.35
 -12  -2   5   -0.48    1.41
 -12   2   4   34.57    2.17
 -12  -2   4   33.03    2.23
 -12  -2   4   32.22    2.51
 -12  -2   4   33.03    4.45
 -12   2   4   37.20    4.60
  12  -2  -4   34.60    4.73
 -12  -2   3  177.25    6.93
 -12   2   3  181.51    6.95
 -12  -2   3  181.07   10.18
 -12   2   3  178.51   10.15
 -12  -2   2   21.41    2.91
 -12  -2   2   23.81    1.67
 -12   2   2   22.63    1.63
 -12  -2   1  159.14    5.88
 -12   2   1  159.31    5.93
 -12   2   0   16.64    2.52
 -12  -2   0   13.56    2.29
 -12   2   0   12.79    2.09
 -12  -2   0   13.61    2.07
 -12   2  -1  742.51   26.42
 -12  -2  -1  723.28   26.11
 -12   2  -2  779.90   27.72
 -12  -2  -2  709.82   27.12
 -12   2  -3  193.01   11.05
 -12  -2  -3  194.74   11.19
 -12   2  -4  169.84    6.76
 -12   2  -4  163.62   11.09
 -12   2  -4  164.66    6.81
 -12  -2  -4  168.72    6.92
 -12  -2  -4  168.85   11.04
 -12   2  -4  166.77    6.95
 -12   2  -4  160.31    6.67
 -12  -2  -4  171.05    6.76
 -12  -2  -5   52.89    3.33
 -12  -2  -5   57.06    3.63
 -12   2  -5   54.56    3.33
 -12   2  -5   65.17    7.20
 -12  -2  -5   48.36    6.12
 -12   2  -5   59.39    3.69
 -12   2  -5   55.67    3.44
 -12   2  -5   58.63    3.62
 -12   2  -6   87.56    4.58
 -12   2  -6   91.41    8.79
 -12  -2  -6   92.69    8.89
 -12   2  -6  100.44    5.13
 -12   2  -6   95.55    5.03
 -12   2  -6   94.94    4.85
 -12  -2  -6   96.71    4.81
 -12  -2  -7    4.37    1.13
 -12   2  -7    5.26    1.25
 -12   2  -7    8.14    1.28
 -12   2  -8  110.41    4.49
 -12  -2  -8  113.11    4.47
 -12  -4   8   58.21    2.45
  12  -4  -8   32.31    2.03
 -12  -4   7   13.66    1.54
 -12   4   7   13.09    1.57
 -12   4   6  111.93    5.52
 -12  -4   6  123.55    5.69
 -12  -4   6  108.08    9.20
  12  -4  -5    8.32    3.05
 -12  -4   5    8.02    1.31
 -12  -4   5    7.54    2.60
 -12   4   5    7.33    2.36
 -12  -4   5    6.64    1.37
 -12   4   5    5.55    1.18
 -12  -4   4   41.82    2.65
 -12  -4   4   36.35    2.68
 -12   4   4   40.11    2.70
 -12  -4   4   41.78    2.95
  12  -4  -4   37.37    5.22
 -12  -4   4   53.21    5.63
 -12   4   4   45.38    5.21
 -12  -4   3   47.45    4.95
 -12  -4   3   44.22    2.59
 -12  -4   3   48.81    2.85
 -12   4   3   52.83    2.88
 -12   4   3   51.10    5.12
 -12  -4   3   51.96    3.13
 -12  -4   3   47.89    2.86
 -12  -4   2  234.21    8.44
 -12   4   2  242.69    8.49
 -12  -4   2  230.45   11.55
 -12  -4   1    6.21    1.81
 -12  -4   1   10.87    1.34
 -12   4   1   11.31    1.25
  12  -4  -1    4.79    1.70
 -12   4   1    5.03    1.60
 -12   4   0  729.02   26.11
 -12  -4   0  738.00   26.32
 -12  -4  -1  500.96   19.36
 -12   4  -1  505.00   19.49
 -12   4  -2  424.01   17.70
 -12  -4  -2  405.93   17.29
 -12   4  -3  238.88    8.81
 -12   4  -3  261.70   13.29
 -12  -4  -3  241.99   12.77
 -12   4  -4   59.68    3.44
 -12  -4  -4   62.22    3.45
 -12   4  -4   57.13    3.32
 -12   4  -4   57.83    3.42
 -12   4  -4   65.61    6.55
 -12  -4  -4   71.64    6.76
 -12   4  -4   54.39    3.14
 -12  -4  -4   47.62    2.98
 -12   4  -5  126.02    5.82
 -12   4  -5  122.01    5.85
 -12   4  -5  128.75    5.96
 -12   4  -5  111.06    9.62
 -12  -4  -5  124.29    9.89
 -12  -4  -5  134.42    5.75
 -12   4  -5  132.22    5.76
 -12  -4  -6   68.84    3.60
 -12   4  -6   61.29    3.81
 -12   4  -6   57.53    3.60
 -12   4  -6   57.75    3.46
 -12   4  -6   61.93    3.51
 -12   4  -7  529.10   17.98
 -12  -4  -7  555.36   17.61
 -12   4  -7  543.86   17.66
 -12  -4  -8   40.43    1.99
 -12  -4  -8   73.43    2.70
 -12  -6   7   17.64    1.43
 -12   6   7   13.06    1.13
 -12  -6   6    1.02    0.76
  12  -6  -5   19.46    4.40
 -12  -6   5   17.92    1.80
 -12  -6   5   17.25    1.99
  12   6  -4    1.16    0.74
 -12  -6   4    1.28    0.84
  12  -6  -4    0.56    1.89
 -12  -6   3   14.31    1.42
  12   6  -3   16.01    1.58
 -12  -6   3   15.57    1.71
 -12  -6   2   46.26    2.53
 -12  -6   2   45.71    2.84
 -12  -6   2   50.54    3.05
  12  -6  -1  133.07    8.19
 -12  -6   1  124.92    5.32
 -12  -6   1  125.18    5.45
  12  -6   0  134.03    8.86
 -12   6   0  122.31    5.25
 -12  -6   0  121.81    5.16
 -12   6  -1   31.38    2.03
 -12   6  -1   30.75    2.24
 -12  -6  -1   29.08    2.16
 -12   6  -2  169.02    6.53
 -12   6  -2  159.22    6.19
 -12   6  -2  159.69    6.57
 -12  -6  -2  160.04    6.54
  12   6   3  429.88   20.75
 -12   6  -3  460.81   15.71
 -12  -6  -3  493.45   16.07
 -12   6  -4  264.49   10.31
 -12   6  -4  286.36   10.36
 -12   6  -4  279.62   10.34
 -12  -6  -4  277.04   10.42
 -12   6  -5  734.32   24.10
 -12   6  -5  725.10   24.01
 -12   6  -5  709.78   23.84
 -12  -6  -5  783.83   24.24
 -12   6  -6  191.12    7.27
 -12   6  -6  190.49    7.60
 -12   6  -6  187.83    7.41
 -12  -6  -6  193.74    7.61
 -12   6  -7   99.62    4.37
 -12  -6  -7  106.61    4.38
 -12   8   7   20.45    1.19
 -12  -8   5    9.11    1.08
  12   8  -5    7.32    1.16
 -12  -8   5    8.89    1.33
  12  -8  -4   53.19    6.97
  12   8  -4   51.99    3.18
 -12  -8   4   51.81    2.83
 -12  -8   4   56.24    3.56
  12   8  -3    0.89    0.89
 -12  -8   2   45.08    2.98
 -12  -8   2   45.60    3.13
  12  -8  -1   92.20    8.03
 -12  -8   1  108.26    4.94
 -12  -8   1  104.85    5.14
 -12   8   0  150.78    5.97
 -12   8   0  162.82    6.53
 -12   8   0  142.57    5.85
  12  -8   0  154.17   10.67
 -12  -8   0  148.45    6.26
 -12   8  -1  138.19    5.84
 -12   8  -1  140.35    6.04
 -12  -8  -1  134.64    5.97
  12   8   2  211.54   14.15
 -12   8  -2  200.70    8.05
 -12   8  -2  208.99    7.80
 -12  -8  -2  208.83    8.17
 -12   8  -2  209.41    8.10
 -12   8  -3  114.04    5.32
  12   8   3   98.63    9.09
 -12   8  -3  108.60    4.98
 -12  -8  -3  115.47    5.30
 -12   8  -4   96.61    4.65
 -12   8  -4   99.56    4.84
 -12  -8  -4   95.81    4.69
 -12   8  -5  214.34    8.39
 -12   8  -5  227.30    8.60
 -12  -8  -5  234.25    8.48
 -12   8  -6   20.43    1.60
 -12   8  -6   22.28    1.67
 -12  -8  -6   18.61    1.47
 -12  10   6    1.76    0.43
  12  10  -5    1.55    0.55
 -12  10   5    0.70    0.54
  12  10  -4   12.55    1.41
 -12 -10   4   11.61    1.40
  12  10  -3    5.34    1.14
  12  10  -3    6.22    1.26
 -12 -10   3    5.87    1.28
 -12  10   2   60.94    3.29
  12  10  -2   56.35    3.58
 -12  10   2   59.05    3.41
 -12  10   1   13.06    1.54
 -12  10   1   12.69    1.32
 -12 -10   1   13.09    1.50
 -12 -10   1   13.28    1.72
 -12  10   0   50.57    2.79
  12 -10   0   48.20    5.91
 -12 -10   0   53.64    3.06
 -12 -10   0   40.59    3.05
 -12  10  -1    6.36    1.15
 -12 -10  -1    9.50    1.61
 -12 -10  -1    6.94    1.14
 -12  10  -2    2.61    1.00
 -12 -10  -2    2.76    0.94
 -12  10  -3  255.81    9.38
 -12  10  -3  243.64    8.87
 -12 -10  -3  250.22    8.96
 -12  10  -4   32.54    2.03
 -12 -10  -4   28.31    1.81
 -12  10  -5  201.59    7.24
  12  12  -3    1.02    0.51
  12  12  -3    2.13    0.70
 -12  12   3    0.64    0.35
 -12 -12   3    0.81    0.55
  12  12  -2   19.48    1.62
 -12 -12   2   20.38    1.73
  12  12  -2   21.43    1.74
  12  12  -1    9.71    1.37
 -12 -12   0    9.53    1.25
 -12 -12  -1   80.16    3.81
 -12  12  -2   12.29    1.21
 -12 -12  -2   10.32    1.29
 -12  12  -3   57.76    2.81
 -12 -12  -3   65.42    2.99
 -12  12  -4    0.11    0.38
 -12 -12  -4    0.33    0.41
 -13   1   8    8.86    0.88
 -13  -1   8   10.37    1.09
 -13  -1   8    9.60    1.22
 -13   1   8    7.29    1.16
 -13   1   7  492.74   15.61
 -13  -1   7  443.05   16.24
 -13  -1   7  456.91   15.72
 -13  -1   6   28.15    4.84
 -13  -1   6   26.79    2.28
 -13  -1   6   28.59    2.68
 -13   1   6   30.82    4.95
 -13   1   6   32.66    2.38
 -13  -1   5 1089.05   34.38
 -13   1   5 1093.01   34.27
 -13  -1   5 1149.44   41.98
 -13   1   5 1098.22   41.69
 -13   1   4    8.73    1.17
 -13  -1   4    8.96    1.21
 -13  -1   4   10.11    2.54
  13  -1  -4    4.14    2.02
 -13  -1   3 1595.16   48.47
  13  -1  -3 1526.87   51.93
 -13  -1   3 1622.17   53.54
 -13  -1   2  133.02    5.37
 -13  -1   2  158.93    8.56
 -13  -1   1 2978.80   88.89
 -13   1   1 2978.77   88.91
 -13   1   0  253.01   11.12
 -13  -1   0  240.69    8.63
 -13   1   0  255.70    8.71
 -13   1  -1 1437.99   47.61
 -13   1  -2  217.69   11.45
 -13   1  -3  671.52   26.69
 -13   1  -4   61.52    3.39
 -13   1  -4   54.77    3.15
 -13   1  -4   63.74    3.56
 -13  -1  -4   64.83    3.63
 -13   1  -4   65.29    3.66
 -13  -1  -4   62.09    3.43
 -13  -1  -5  241.05    9.17
 -13   1  -5  238.38   14.88
 -13   1  -5  228.53    9.24
 -13   1  -5  236.24    9.04
 -13   1  -5  230.90    9.46
 -13  -1  -6   51.35    6.75
 -13   1  -6   61.91    3.97
 -13   1  -6   59.38    7.08
 -13   1  -6   64.85    3.97
 -13  -1  -6   65.28    3.84
 -13  -1  -7  251.33    9.37
 -13  -1  -8    0.61    0.55
 -13  -3   8   65.08    2.99
 -13  -3   7  303.55   11.45
 -13   3   7  301.07   11.48
 -13  -3   6  186.40    7.24
 -13  -3   6  160.92    7.33
 -13   3   6  165.83    7.39
 -13  -3   6  151.72   11.34
 -13   3   6  147.45   11.16
 -13  -3   5  493.04   17.37
 -13   3   5  522.64   17.47
 -13  -3   5  502.51   23.43
 -13   3   5  494.70   23.21
  13  -3  -5  464.98   22.96
 -13  -3   4   57.63    3.21
 -13  -3   4   58.81    3.50
 -13   3   4   61.10    3.55
 -13  -3   4   58.47    3.62
  13  -3  -4   61.09    6.40
 -13  -3   4   60.60    6.18
 -13   3   4   63.13    6.28
 -13  -3   3  678.05   23.08
 -13   3   3  781.21   28.61
 -13  -3   3  744.61   23.50
 -13   3   3  754.27   23.49
 -13  -3   3  754.56   23.71
 -13  -3   3  725.77   23.38
 -13  -3   3  793.07   28.76
 -13  -3   2   31.07    2.08
 -13   3   2   34.58    2.15
 -13  -3   2   33.65    3.92
 -13   3   2   32.77    3.80
  13  -3  -1 1103.21   36.85
 -13  -3   1 1108.20   35.21
 -13   3   1 1222.82   35.37
 -13   3   1 1122.98   38.32
 -13  -3   1 1180.71   38.53
 -13   3   0  336.92   13.94
 -13   3   0  291.86   12.95
 -13  -3   0  293.96   12.84
 -13  -3   0  314.86   13.71
 -13  -3  -1 1357.08   45.21
 -13   3  -1 1358.13   45.48
 -13   3  -2  309.89   14.42
 -13  -3  -2  296.16   14.15
 -13   3  -3  670.23   26.52
 -13   3  -3  637.18   20.85
 -13   3  -4  243.20    8.95
 -13  -3  -4  226.92    8.87
 -13   3  -4  228.46    8.99
 -13   3  -4  214.27   13.27
 -13  -3  -4  258.04   14.25
 -13   3  -4  228.08    8.82
 -13  -3  -4  227.05    8.69
 -13   3  -4  234.11    8.74
 -13  -3  -5  854.45   27.99
 -13   3  -5  832.13   27.85
 -13   3  -5  861.79   28.04
 -13   3  -5  861.35   35.14
 -13  -3  -5  837.01   34.96
 -13  -3  -5  869.36   27.68
 -13   3  -5  890.96   27.74
 -13   3  -5  862.75   27.74
 -13   3  -6   30.33    2.59
 -13   3  -6   26.97    2.46
 -13   3  -6   26.75    2.28
 -13   3  -6   26.37    2.32
 -13  -3  -6   31.04    2.44
 -13   3  -7   64.93    3.40
 -13   3  -7   58.80    3.45
 -13  -3  -7   69.77    3.44
 -13   3  -8   12.82    1.05
 -13  -3  -8   12.62    1.04
 -13  -5   8   25.69    1.43
 -13  -5   7  269.99    9.53
 -13   5   6  166.47    7.25
 -13  -5   6  171.97    7.31
 -13  -5   5  341.78   12.83
  13  -5  -5  377.17   20.14
 -13  -5   5  364.78   13.06
 -13  -5   5  393.42   13.52
 -13   5   5  366.10   13.05
 -13  -5   4  473.00   15.82
 -13  -5   4  463.23   15.90
 -13   5   4  438.94   15.84
 -13  -5   4  476.02   21.08
 -13  -5   4  492.17   16.49
  13  -5  -4  473.21   22.61
 -13   5   4  460.49   20.88
 -13  -5   3  864.39   27.23
 -13  -5   3  824.41   27.27
 -13   5   3  872.89   27.37
 -13  -5   3  866.13   27.61
 -13  -5   3  901.73   28.03
 -13  -5   3  873.24   32.27
 -13   5   2  677.21   21.65
 -13  -5   2  669.56   21.87
 -13   5   2  711.89   25.15
 -13  -5   2  697.98   25.18
 -13  -5   2  681.13   22.06
  13  -5  -1  259.72   12.08
 -13   5   1  264.12   11.82
 -13  -5   1  278.36   12.03
 -13   5  -1  660.85   24.37
 -13  -5  -1  625.95   20.80
 -13   5  -2  103.82    4.60
 -13  -5  -2  100.82    6.99
 -13   5  -2  102.02    4.72
 -13  -5  -2  107.07    4.70
 -13   5  -2  105.60    7.22
 -13   5  -3  659.63   21.74
 -13   5  -3  692.94   26.98
 -13  -5  -3  729.31   27.05
 -13  -5  -3  676.56   21.99
 -13   5  -3  677.18   21.52
 -13   5  -4  180.08    7.43
 -13   5  -4  185.43    7.66
 -13   5  -4  171.14   11.52
 -13  -5  -4  177.86   11.50
 -13   5  -4  197.01    7.76
 -13   5  -4  186.79    7.25
 -13   5  -5    2.17    1.08
 -13   5  -5    3.89    1.11
 -13   5  -5    2.11    1.09
 -13  -5  -5    1.85    1.56
 -13   5  -5    1.54    0.83
 -13  -5  -5    2.26    0.78
 -13   5  -6  106.02    4.89
 -13   5  -6  110.04    5.17
 -13   5  -6  104.43    4.98
 -13  -5  -6  100.70    4.54
 -13   5  -6  107.83    4.73
 -13   5  -7   66.14    3.40
 -13  -5  -7   73.59    3.50
 -13  -5  -8   54.87    2.29
 -13   7   7   55.81    2.37
 -13  -7   7   51.23    2.35
 -13  -7   6  158.09    6.10
 -13  -7   5  206.35    7.97
 -13  -7   5  216.09    8.47
 -13  -7   4  352.72   12.41
  13   7  -4  352.08   12.51
 -13  -7   4  366.19   13.17
  13  -7  -4  382.52   20.32
 -13  -7   3  248.22    9.08
  13   7  -3  248.25    9.38
 -13  -7   3  259.56    9.67
 -13  -7   2  518.28   17.40
 -13  -7   2  515.90   17.59
  13  -7  -1  233.18   13.00
 -13  -7   1  256.51    9.47
 -13  -7   1  262.05    9.70
 -13   7   0  530.82   17.56
 -13   7   0  571.99   18.31
 -13   7   0  544.59   17.69
 -13  -7   0  546.63   18.08
  13  -7   0  562.92   23.64
 -13   7  -1   85.64    4.01
 -13   7  -1   84.86    4.26
 -13  -7  -1   80.18    4.11
 -13   7  -2  723.08   23.27
 -13   7  -2  709.17   23.35
 -13  -7  -2  725.98   23.38
 -13   7  -3    2.61    0.98
 -13   7  -3    1.50    0.82
 -13   7  -3    2.69    1.08
 -13  -7  -3    2.73    1.05
 -13   7  -4  501.89   17.21
 -13   7  -4  501.25   16.97
 -13   7  -4  486.35   17.00
 -13  -7  -4  533.25   17.29
 -13   7  -5   84.57    4.25
 -13   7  -5   80.38    4.04
 -13   7  -5   89.54    4.42
 -13  -7  -5   84.39    4.34
 -13   7  -6  294.13   10.42
 -13   7  -6  290.69   10.31
 -13  -7  -6  306.52   10.43
 -13   7  -7   36.71    1.89
 -13  -7  -7   33.60    1.79
  13   9  -5   21.14    1.57
  13   9  -4  419.37   14.41
 -13  -9   4  434.71   14.80
  13   9  -3    2.36    0.96
 -13  -9   3    2.00    1.14
 -13  -9   2  551.36   18.09
 -13  -9   2  523.39   18.26
 -13   9   1   15.28    1.70
 -13   9   1   12.35    1.44
 -13  -9   1   12.80    1.59
 -13  -9   1   14.81    1.82
 -13   9   0 1090.75   34.37
 -13   9   0 1131.94   35.04
  13  -9   0 1006.06   41.27
 -13  -9   0 1122.89   34.93
 -13  -9   0 1137.38   35.34
 -13   9  -1   26.84    2.19
 -13  -9  -1   30.06    2.31
  13  -9   1   28.79    4.61
 -13   9  -1   24.84    2.05
 -13   9  -2  598.94   19.30
  13   9   2  553.68   26.98
  13  -9   2  550.96   26.68
 -13  -9  -2  571.53   19.21
 -13   9  -3   35.05    2.58
 -13   9  -3   33.00    2.22
 -13  -9  -3   29.64    2.31
 -13   9  -4  484.68   16.25
 -13  -9  -4  507.62   16.40
 -13   9  -5   13.31    1.40
 -13   9  -5   10.73    1.19
 -13  -9  -5   10.48    1.13
 -13   9  -6  169.21    5.89
 -13   9  -6  179.07    6.11
 -13  11   5    3.04    0.49
  13  11  -4  391.58   12.51
 -13  11   4  374.12   12.49
 -13  11   4  416.89   12.64
 -13 -11   4  369.11   12.52
  13  11  -3    8.68    1.08
 -13  11   3    7.43    1.00
  13  11  -3    6.32    1.08
 -13  11   3    8.66    1.09
 -13 -11   3    6.63    1.15
 -13  11   2  665.45   20.69
  13  11  -2  667.64   21.31
 -13  11   2  631.29   20.78
 -13 -11   1    9.88    1.42
 -13 -11   0  273.03   10.12
 -13  11  -1    8.62    1.14
 -13 -11  -1    8.95    1.38
 -13  11  -2  643.02   20.97
 -13 -11  -2  674.52   21.49
 -13  11  -3    8.15    1.20
 -13 -11  -3    8.12    1.28
 -13  11  -4  347.62   11.65
 -13 -11  -4  358.43   11.80
 -13  11  -5    2.25    0.46
  13  13  -2  122.07    4.38
  13  13  -2  132.95    4.52
 -13 -13   2  119.37    4.46
  13  13  -1   67.94    2.89
  13  13  -1   63.82    2.86
 -13 -13   1   63.03    2.94
  13  13   0  343.17   11.27
  13  13   1   41.10    2.17
 -13 -13  -2  267.32    8.63
 -14   0   8   84.80    3.27
 -14   0   8   61.30    3.45
 -14   0   7    0.63    0.71
 -14   0   7    0.74    0.90
 -14   0   6   96.81    4.71
 -14   0   6   98.76    5.29
 -14   0   6   89.65    8.52
 -14   0   5    0.10    0.70
 -14   0   5   -0.50    2.02
 -14   0   5    1.34    0.97
 -14   0   4  250.22    9.42
 -14   0   4  274.60   10.10
 -14   0   4  282.54   14.76
 -14   0   3    0.35    1.41
 -14   0   3   -0.28    0.70
 -14   0   2    4.33    1.69
 -14   0   2    4.24    0.89
 -14   0   1    0.41    0.61
 -14   0   0  552.67   21.37
 -14   0  -1   -0.28    1.16
 -14   0  -2   24.55    3.57
 -14   0  -3    1.96    1.58
 -14   0  -3    0.83    0.71
 -14   0  -3    1.08    0.63
 -14   0  -4   93.31    4.66
 -14   0  -4   94.74    8.42
 -14   0  -4   99.65    4.62
 -14   0  -4   96.24    4.57
 -14   0  -5   -0.55    1.51
 -14   0  -5   -0.12    0.92
 -14   0  -6  597.13   20.44
 -14   0  -6  610.41   20.06
 -14   0  -7    0.58    0.87
 -14   0  -8  121.15    4.69
 -14   2   8  203.79    7.70
 -14  -2   8  189.89    7.56
 -14  -2   7   10.15    1.40
 -14  -2   7   10.17    1.47
 -14   2   7   10.24    1.54
 -14   2   7   11.30    1.19
 -14   2   6  172.66    6.86
 -14  -2   6  182.98    7.32
 -14  -2   6  168.28    7.61
 -14   2   6  172.00    7.66
 -14  -2   6  164.22   11.98
 -14   2   6  169.47   11.98
 -14  -2   5    0.64    0.81
 -14  -2   5   -0.50    1.39
 -14   2   5    0.56    0.60
 -14   2   5    0.50    1.49
 -14  -2   5    0.13    0.92
 -14   2   5    0.26    0.86
 -14   2   4    9.06    2.67
  14  -2  -4    9.33    2.55
 -14   2   4   11.89    1.32
 -14  -2   4   12.03    1.41
 -14  -2   4    9.19    1.52
 -14  -2   4   12.83    1.61
 -14   2   4   10.22    1.51
 -14  -2   4    9.16    2.78
 -14   2   3    6.79    2.41
 -14  -2   3    8.98    2.32
 -14  -2   3    8.58    1.35
 -14  -2   3    7.29    1.03
 -14  -2   3    7.75    1.20
 -14   2   3    6.24    1.08
 -14  -2   2   80.72    6.13
 -14  -2   2   81.66    3.79
 -14   2   2   76.61    3.69
 -14   2   2   70.75    5.84
 -14  -2   1  184.37    6.94
 -14   2   1  191.56    6.97
 -14   2   1  182.54    9.46
 -14  -2   1  196.26    9.55
 -14   2   0   -0.28    1.32
 -14  -2   0    0.27    1.37
 -14   2   0    0.47    1.12
 -14  -2   0    0.23    0.81
 -14   2  -1  313.59   14.36
 -14  -2  -1  322.55   14.27
 -14   2  -2   12.36    2.67
 -14  -2  -2    9.95    2.33
 -14  -2  -3   66.02    3.58
 -14   2  -3   60.57    3.42
 -14   2  -3   67.52    6.41
 -14  -2  -3   64.76    6.23
 -14  -2  -3   64.63    3.26
 -14   2  -3   59.99    3.24
 -14   2  -4  258.85    9.79
 -14  -2  -4  255.95    9.86
 -14   2  -4  247.00    9.94
 -14   2  -4  244.47   14.72
 -14  -2  -4  266.58   15.16
 -14   2  -4  269.16    9.80
 -14  -2  -4  286.00    9.85
 -14   2  -4  257.06    9.67
 -14   2  -5    3.07    1.09
 -14  -2  -5    3.79    1.14
 -14   2  -5    3.16    1.29
 -14   2  -5    1.64    1.84
 -14  -2  -5    4.40    2.31
 -14   2  -5    3.40    1.08
 -14  -2  -5    1.48    0.92
 -14   2  -5    3.43    1.06
 -14  -2  -6  277.56   10.74
 -14   2  -6  268.08   10.44
 -14   2  -6  270.98   10.61
 -14   2  -6  265.74   16.24
 -14   2  -6  267.73   10.27
 -14  -2  -6  290.86   10.41
 -14   2  -7    6.28    1.28
 -14  -2  -7    7.32    1.22
 -14   2  -7    8.09    1.24
 -14   2  -8  153.65    5.66
 -14  -2  -8  153.96    5.62
 -14  -2  -8  168.73    5.75
 -14  -4   8   80.59    3.26
 -14   4   7    1.01    0.73
 -14  -4   7   -0.18    0.71
 -14  -4   6   76.17    4.20
 -14   4   6   71.84    4.08
 -14  -4   5    0.98    1.55
 -14   4   5    2.35    1.83
 -14  -4   5    2.43    0.95
  14  -4  -5    3.22    2.09
 -14  -4   5    2.72    1.01
 -14   4   5    3.18    1.10
 -14  -4   4   51.93    3.12
 -14  -4   4   53.71    3.36
 -14   4   4   51.63    3.23
 -14  -4   4   60.86    6.42
 -14  -4   4   55.52    3.56
 -14   4   4   47.93    5.58
  14  -4  -4   45.92    5.82
 -14  -4   3    1.12    1.45
 -14   4   3    0.73    1.08
 -14  -4   3    0.10    0.65
 -14  -4   3   -0.09    0.67
 -14   4   3    0.69    0.66
 -14   4   2    3.22    1.35
 -14  -4   2    4.37    0.89
 -14   4   2    3.85    0.88
  14  -4  -1  104.66    6.16
 -14   4   1  122.66    7.15
 -14  -4   1  112.64    6.94
 -14  -4   1  107.54    4.65
 -14   4   1  118.45    4.82
 -14   4   0  221.28   11.16
 -14  -4   0  220.85   11.19
 -14   4  -1   76.96    5.88
 -14  -4  -1   67.67    5.54
 -14   4  -2   63.05    3.25
 -14  -4  -2   56.76    3.06
 -14   4  -2   55.22    5.23
 -14  -4  -2   56.59    5.29
 -14   4  -2   56.28    3.04
 -14   4  -3    3.22    0.79
 -14  -4  -3    3.73    0.89
 -14   4  -3    2.80    1.62
 -14  -4  -3    1.95    1.39
 -14  -4  -3    2.46    0.71
 -14   4  -3    4.35    0.84
 -14   4  -4   42.65    2.74
 -14  -4  -4   44.27    2.89
 -14   4  -4   41.40    2.76
 -14   4  -4   43.36    3.00
 -14   4  -4   39.33    5.31
 -14  -4  -4   32.22    4.81
 -14   4  -4   41.30    2.88
 -14  -4  -4   39.17    2.62
 -14  -4  -5   36.52    2.56
 -14   4  -5   32.94    2.45
 -14   4  -5   32.02    2.59
 -14   4  -5   33.25    2.70
 -14   4  -5   33.93    4.99
 -14  -4  -5   33.56    5.01
 -14   4  -5   37.11    2.73
 -14   4  -6   10.22    1.46
 -14  -4  -6    9.96    1.36
 -14   4  -6    9.24    1.48
 -14   4  -6    9.60    1.47
 -14   4  -6   11.41    1.44
 -14  -4  -7   19.61    1.53
 -14  -4  -7   23.09    1.87
 -14   4  -7   23.70    1.71
 -14  -4  -8  176.15    6.02
 -14  -6   7    5.04    0.80
 -14   6   7    3.46    0.59
 -14  -6   6    0.52    0.69
 -14  -6   5   18.06    1.81
 -14  -6   5   15.01    1.91
 -14  -6   4   28.02    2.18
 -14  -6   4   23.28    2.37
  14  -6  -4   20.41    4.38
 -14  -6   3    0.82    0.76
 -14  -6   3    1.44    0.97
 -14  -6   2   11.88    1.26
 -14  -6   2   12.92    1.53
 -14  -6   2   13.92    1.62
  14  -6  -1   -0.30    1.17
 -14  -6   1    1.49    0.73
 -14   6   0    3.29    0.91
 -14   6   0    3.72    0.75
  14  -6   0    4.09    1.82
 -14  -6   0    4.57    0.95
 -14   6  -1    1.21    0.69
 -14   6  -1    1.29    0.79
 -14   6  -1    1.07    0.53
 -14  -6  -1    1.30    0.73
 -14   6  -2    0.47    0.72
 -14   6  -2    1.36    0.86
 -14  -6  -2    0.69    0.69
 -14   6  -3  316.12   11.62
 -14   6  -3  348.57   12.11
 -14  -6  -3  349.09   12.14
 -14   6  -4    0.81    0.87
 -14   6  -4    0.10    0.82
 -14   6  -4    1.76    0.95
 -14  -6  -4    0.69    0.89
 -14   6  -5  214.21    7.85
 -14   6  -5  203.56    8.27
 -14   6  -5  213.11    8.44
 -14  -6  -5  221.71    8.56
 -14   6  -5  218.88    8.47
 -14   6  -6   76.37    3.72
 -14   6  -6   66.29    3.49
 -14   6  -6   74.26    3.78
 -14  -6  -6   78.69    3.89
 -14  -6  -7   85.47    3.63
 -14   8   6    3.22    0.75
 -14  -8   4    3.08    0.70
  14   8  -4    5.45    1.01
 -14  -8   4    4.90    1.30
  14   8  -3   12.19    1.50
 -14  -8   3   11.89    1.80
 -14  -8   3   10.00    1.52
 -14  -8   2    0.22    0.80
 -14  -8   2   -0.72    1.14
 -14   8   1    3.70    1.19
 -14   8   1    5.11    1.00
 -14  -8   1    8.37    1.52
 -14  -8   1    4.57    1.48
 -14   8   0   18.89    1.58
 -14   8   0   19.12    1.61
 -14   8   0   21.58    2.01
 -14  -8   0   20.61    1.91
  14  -8   0   19.47    3.55
 -14  -8   0   16.76    1.95
 -14   8  -1  256.21    9.57
 -14   8  -1  271.05   10.04
  14  -8   1  250.44   15.18
 -14  -8  -1  268.32    9.92
 -14   8  -2   42.47    2.84
  14   8   2   47.96    6.33
 -14   8  -2   42.57    2.88
  14  -8   2   43.91    6.22
 -14  -8  -2   45.10    2.94
 -14   8  -3  146.33    6.47
 -14   8  -3  147.63    6.11
 -14   8  -3  148.53    6.45
 -14   8  -4   49.41    2.84
 -14  -8  -4   47.67    3.01
 -14   8  -5   79.15    3.93
 -14   8  -5   76.92    3.71
 -14  -8  -5   81.52    3.85
 -14   8  -6   12.14    1.14
 -14   8  -6   12.97    1.22
 -14  -8  -6   13.41    1.15
 -14  10   5   25.59    1.68
 -14  10   5   26.77    1.65
  14  10  -4    0.13    0.56
 -14  10   4    0.08    0.69
 -14  10   4    0.15    0.62
 -14 -10   4   -0.25    0.73
  14  10  -3   12.52    1.36
  14  10  -3   13.44    1.52
 -14  10   3   15.78    1.63
 -14  10   3   11.78    1.36
 -14 -10   3   11.49    1.58
  14  10  -2  125.49    5.54
 -14  10   2  126.78    5.51
 -14  10   2  111.60    5.06
 -14 -10   2  121.68    5.30
 -14  10   1    0.10    0.71
 -14  10   1   -0.24    0.57
 -14 -10   1    1.07    0.75
 -14 -10   1    0.11    0.84
 -14  10   0    2.17    0.60
 -14  10   0    1.05    0.75
 -14 -10   0    2.34    0.86
 -14 -10   0    1.49    0.97
 -14  10  -1    5.54    1.03
 -14 -10  -1    6.66    1.33
 -14 -10  -1    5.17    1.05
 -14  10  -2    4.33    1.03
 -14 -10  -2    2.98    0.94
 -14 -10  -3   72.54    3.52
 -14  10  -3   76.23    3.79
 -14 -10  -4   -0.11    0.49
 -14  10  -5   75.17    3.24
  14  12  -3   73.92    2.85
 -14 -12   3   71.60    2.98
  14  12  -2    4.51    0.75
  14  12  -2    5.21    0.86
 -14 -12   2    4.73    0.91
  14  12  -1    6.87    1.09
 -14 -12   0    6.76    1.03
 -14 -12  -1   71.24    3.41
 -14  12  -2    3.53    0.63
 -14 -12  -2    3.08    0.79
 -14  12  -3   54.58    2.43
 -14 -12  -3   62.41    2.71
 -15  -1   8   13.30    1.34
 -15   1   8   12.68    1.34
 -15   1   7  382.36   12.74
 -15  -1   7  354.39   13.36
 -15  -1   7  391.60   13.05
 -15  -1   6   19.93    4.06
 -15   1   6   21.78    1.95
 -15  -1   6   23.41    2.10
 -15   1   6   21.53    4.19
 -15  -1   6   21.24    2.30
 -15   1   5  683.97   22.80
 -15  -1   5  712.54   22.99
 -15  -1   5  728.24   23.65
 -15  -1   5  678.44   29.95
 -15   1   5  702.24   30.20
 -15   1   4   12.57    1.42
 -15  -1   4   13.46    1.49
 -15  -1   4   13.57    1.72
 -15  -1   4   13.98    3.22
 -15   1   4   13.09    1.28
 -15   1   3 1713.41   51.91
 -15  -1   3 1690.34   51.90
 -15  -1   3 1715.62   52.32
  15  -1  -3 1619.97   55.69
 -15  -1   2    2.19    1.45
 -15  -1   2    1.27    0.71
 -15  -1   1 1570.33   48.19
 -15   1   1 1635.08   51.89
 -15   1   0   81.32    6.17
 -15   1   0   69.99    5.41
 -15   1  -1  835.72   30.64
 -15   1  -2   46.56    4.99
 -15  -1  -3 1093.50   33.67
 -15   1  -3 1077.33   33.41
 -15  -1  -3 1057.76   33.48
 -15  -1  -3 1074.53   33.70
 -15   1  -3 1101.30   40.30
 -15   1  -4   87.58    4.40
 -15   1  -4   96.43    4.62
 -15  -1  -4   98.96    4.84
 -15   1  -4  104.03    8.82
 -15   1  -4   94.62    4.58
 -15  -1  -4   93.46    4.58
 -15   1  -5  517.78   17.62
 -15  -1  -5  502.34   17.46
 -15  -1  -5  523.73   17.95
 -15   1  -5  508.23   17.94
 -15   1  -5  532.13   24.91
 -15  -1  -5  497.88   24.52
 -15   1  -6   38.58    3.00
 -15  -1  -6   36.11    2.75
 -15  -1  -7  819.81   26.01
 -15  -1  -8   25.21    1.54
 -15  -1  -8   25.25    1.48
 -15  -3   8    6.81    0.79
 -15  -3   7  198.35    8.33
 -15   3   7  210.02    8.42
 -15  -3   6   61.90    3.59
 -15  -3   6   62.57    3.83
 -15   3   6   63.16    3.84
 -15   3   6   55.45    2.94
 -15  -3   5  503.80   23.64
 -15  -3   5  520.91   17.62
 -15   3   5  513.25   17.54
 -15   3   5  509.34   23.55
 -15   3   5  486.34   16.60
  15  -3  -4   32.56    4.71
 -15   3   4   31.27    2.16
 -15  -3   4   33.75    2.64
 -15   3   4   35.16    2.64
 -15  -3   4   29.16    2.58
 -15  -3   4   33.11    4.85
 -15   3   4   34.17    4.82
 -15  -3   3  504.83   16.84
 -15  -3   3  548.95   17.34
 -15   3   3  533.57   17.28
 -15  -3   3  542.08   17.44
 -15  -3   3  510.78   16.97
 -15  -3   3  544.24   22.52
 -15   3   3  512.68   22.22
 -15   3   2    9.52    1.19
 -15  -3   2    6.38    1.08
 -15   3   1  448.72   18.48
 -15  -3   1  470.76   18.67
 -15  -3   1  462.04   15.27
 -15   3   1  467.69   15.32
 -15   3   0  372.03   16.10
 -15  -3   0  382.34   16.09
 -15   3   0  392.54   16.91
 -15  -3   0  400.20   16.99
 -15  -3  -1  776.56   29.21
 -15   3  -1  814.54   29.67
 -15  -3  -2  430.86   14.80
 -15   3  -2  428.07   14.63
 -15  -3  -2  433.18   14.41
 -15   3  -2  489.75   19.80
 -15  -3  -2  455.64   19.22
 -15   3  -3  351.78   12.31
 -15   3  -3  360.83   12.49
 -15  -3  -3  378.81   12.76
 -15   3  -3  377.58   12.64
 -15   3  -3  405.97   18.64
 -15  -3  -3  410.39   18.52
 -15  -3  -3  353.81   12.49
 -15   3  -4  176.83    7.22
 -15   3  -4  169.41    7.19
 -15  -3  -4  176.24    7.39
 -15   3  -4  178.63    7.57
 -15   3  -4  178.88   12.11
 -15  -3  -4  169.00   11.92
 -15   3  -4  188.78    7.44
 -15  -3  -4  180.21    7.20
 -15  -3  -5 1008.81   32.61
 -15   3  -5 1020.11   32.48
 -15   3  -5 1017.85   32.73
 -15   3  -5  965.84   39.85
 -15  -3  -5  979.30   40.04
 -15   3  -5 1038.57   32.43
 -15  -3  -5 1010.69   32.28
 -15   3  -5 1031.67   32.35
 -15  -3  -6   14.65    1.64
 -15   3  -6   13.33    1.69
 -15   3  -6   14.15    1.84
 -15   3  -6   14.22    1.68
 -15  -3  -7  246.69    8.84
 -15   3  -7  246.75    9.14
 -15   3  -7  256.73    8.94
 -15   3  -8    0.56    0.34
 -15  -5   8   16.06    0.96
 -15  -5   7   90.88    3.95
 -15  -5   6   52.60    3.04
 -15  -5   6   42.96    2.86
 -15   5   6   47.90    2.92
 -15  -5   5  225.52    8.79
 -15  -5   5  228.60    8.96
 -15   5   5  234.43    8.97
 -15  -5   4  206.19    8.21
 -15  -5   4  212.87    8.40
 -15   5   4  209.61    8.36
 -15  -5   4  225.16    8.93
  15  -5  -4  190.45   13.31
 -15  -5   3  160.84    6.80
 -15  -5   3  164.19    6.94
 -15   5   3  186.93    7.13
 -15  -5   3  170.99    7.44
 -15  -5   3  184.74    7.31
 -15   5   3  186.57   10.30
 -15  -5   3  175.29   10.23
 -15  -5   2  713.13   22.20
 -15   5   2  719.03   25.92
 -15  -5   2  731.80   26.24
 -15  -5   2  658.16   21.89
 -15   5   2  716.93   22.06
 -15  -5   2  665.32   22.28
 -15  -5   2  650.22   21.72
 -15   5   1  282.88   10.22
 -15   5   1  283.32   13.19
 -15  -5   1  313.27   13.54
 -15  -5   1  306.73   10.52
 -15   5   0  688.06   21.98
 -15   5   0  657.77   21.57
 -15  -5   0  700.24   21.87
 -15  -5   0  685.33   21.95
 -15   5  -1  590.46   18.94
 -15   5  -1  591.59   19.30
 -15   5  -1  569.56   18.77
 -15   5  -1  612.66   23.42
 -15  -5  -1  617.75   23.48
 -15  -5  -1  595.80   19.18
 -15   5  -2  498.47   16.30
 -15   5  -2  522.01   16.81
 -15   5  -2  490.10   20.95
 -15  -5  -2  503.40   20.93
 -15   5  -2  486.94   16.91
 -15  -5  -2  512.81   16.83
 -15   5  -3  732.91   23.72
 -15   5  -3  780.38   24.30
 -15   5  -3  718.39   23.64
 -15  -5  -3  793.31   24.27
 -15   5  -3  671.91   28.84
 -15  -5  -3  722.79   29.00
 -15   5  -4  100.41    4.99
 -15   5  -4  100.40    4.75
 -15   5  -4  104.30    5.10
 -15   5  -4   96.18    4.56
 -15  -5  -4  102.99    4.99
 -15  -5  -4   84.98    7.63
 -15   5  -5  184.83    7.34
 -15   5  -5  187.01    7.57
 -15  -5  -5  159.07    6.74
 -15   5  -5  176.39    7.35
 -15  -5  -5  196.57    7.60
 -15   5  -5  169.67    6.92
 -15   5  -6  131.98    5.67
 -15   5  -6  133.81    5.77
 -15   5  -6  141.78    5.66
 -15   5  -6  124.82    5.29
 -15  -5  -6  140.23    5.86
 -15  -5  -6  122.12    5.18
 -15  -5  -7   69.04    3.27
 -15  -7   7   15.12    0.96
 -15   7   7   15.97    0.96
 -15  -7   6  210.18    7.77
 -15   7   6  234.25    7.99
 -15  -7   5   69.74    3.53
 -15  -7   4  408.65   13.66
 -15  -7   4  391.32   14.30
  15  -7  -4  369.07   20.66
  15   7  -3   92.30    4.39
 -15  -7   3   92.98    5.01
 -15  -7   3   94.65    4.77
 -15  -7   3   94.16    4.32
 -15  -7   2  634.14   20.56
 -15  -7   2  600.33   20.59
 -15   7   1  259.75    9.58
 -15   7   1  272.99   10.14
 -15  -7   1  270.14    9.89
 -15  -7   1  257.05    9.94
 -15   7   0  334.42   11.93
  15  -7   0  294.57   15.92
 -15   7   0  326.81   11.38
 -15  -7   0  335.60   11.79
 -15   7  -1   78.09    3.87
 -15   7  -1   78.25    4.21
 -15  -7  -1   84.29    4.22
 -15   7  -2  480.76   16.10
 -15   7  -2  476.91   16.33
 -15  -7  -2  464.90   16.16
 -15   7  -3    6.85    1.32
 -15   7  -3    7.91    1.10
 -15   7  -3    5.12    1.28
 -15  -7  -3    6.82    1.29
 -15   7  -4  493.08   16.75
 -15   7  -4  488.08   17.12
 -15  -7  -4  541.28   17.34
 -15   7  -5  204.24    7.91
 -15   7  -5  211.61    8.04
 -15  -7  -5  232.07    8.34
 -15   7  -5  202.72    8.07
 -15   7  -6  169.98    6.38
 -15   7  -6  162.06    6.26
 -15  -7  -6  179.48    6.51
 -15  -7  -7   39.12    1.80
 -15   9   6  256.80    8.54
 -15   9   5   10.23    1.16
  15   9  -4  244.83    8.78
 -15   9   4  258.09    9.16
 -15  -9   4  244.76    9.33
  15   9  -3   13.75    1.55
 -15  -9   3   14.97    1.80
 -15   9   3   15.58    1.64
  15   9  -2  605.73   19.76
 -15   9   2  594.38   19.93
 -15  -9   2  569.49   19.63
 -15   9   2  607.78   19.58
 -15   9   1    5.72    1.22
 -15   9   1    6.86    1.09
 -15  -9   1    5.47    1.20
 -15  -9   1    5.34    1.34
 -15   9   0 1350.19   40.50
 -15   9   0 1206.77   39.63
 -15  -9   0 1348.32   40.38
 -15  -9   0 1317.43   40.67
 -15   9  -1    0.63    0.68
 -15  -9  -1   -0.12    0.96
 -15   9  -1    1.50    0.84
  15  -9   1    1.95    1.73
 -15  -9  -1    0.94    0.83
 -15   9  -2  825.16   26.16
 -15  -9  -2  810.68   26.21
 -15   9  -3   23.56    2.04
 -15  -9  -3   21.53    1.91
 -15  -9  -4  299.01   10.42
 -15   9  -5   21.27    1.61
 -15  -9  -5   19.60    1.41
 -15   9  -6  145.51    5.03
 -15  11   4  456.25   14.80
 -15 -11   4  449.62   14.85
  15  11  -3    1.23    0.50
  15  11  -3    1.40    0.68
 -15  11   3    2.11    0.61
 -15  11   3    2.80    0.66
 -15 -11   3    2.10    0.83
  15  11  -2  559.63   17.69
 -15  11   2  540.45   17.46
 -15  11   2  537.12   17.23
 -15 -11   2  535.75   17.94
 -15  11   1    7.94    1.03
 -15 -11   1    8.10    1.07
 -15 -11   0  597.20   19.09
 -15 -11   0  596.49   19.54
 -15 -11  -1    0.81    0.60
 -15 -11  -1    1.40    0.85
 -15  11  -2  597.45   19.53
 -15 -11  -2  643.13   20.09
 -15  11  -3    3.76    0.77
 -15 -11  -3    3.15    0.87
 -15  11  -4  385.47   12.32
  15  13  -1   46.80    2.09
  15  13  -1   48.41    2.09
 -15 -13   1   51.86    2.29
  15  13   0  407.17   13.09
  15  13   0  422.82   13.04
 -15 -13   0  412.27   13.17
  15  13   1   10.80    0.93
 -16   0   8   48.18    2.56
 -16   0   8   43.53    2.05
 -16   0   7    0.40    0.70
 -16   0   7    1.38    0.94
 -16   0   6  108.12    4.95
 -16   0   6   95.10    5.27
 -16   0   5    0.53    1.69
 -16   0   5    0.32    0.76
 -16   0   5    0.27    1.07
 -16   0   4  115.24    5.04
 -16   0   4  114.77    9.03
 -16   0   4  101.57    5.26
 -16   0   3   -0.79    1.65
 -16   0   3    0.42    0.63
 -16   0   3    1.04    0.76
 -16   0   2   -0.09    0.65
 -16   0   1    0.40    0.59
 -16   0   0  165.32    9.69
 -16   0  -1    0.32    1.09
 -16   0  -2   87.11    7.07
 -16   0  -3    0.09    0.61
 -16   0  -3   -0.73    1.34
 -16   0  -3    0.41    0.82
 -16   0  -3    0.44    1.71
 -16   0  -4  436.99   15.40
 -16   0  -4  477.54   15.98
 -16   0  -4  464.20   15.62
 -16   0  -5    0.23    0.88
 -16   0  -5   -0.58    1.71
 -16   0  -6   42.34    3.21
 -16   0  -6   37.78    2.81
 -16   0  -7    0.68    0.87
 -16   0  -8   64.08    2.63
 -16   0  -8   80.62    3.03
 -16  -2   8  168.94    5.91
 -16   2   7    9.48    1.03
 -16  -2   7   10.04    1.30
 -16   2   7    6.93    1.30
 -16  -2   7   10.23    1.47
 -16   2   6  150.48    6.12
 -16  -2   6  154.03    6.52
 -16  -2   6  146.28    6.80
 -16   2   6  149.54    6.84
 -16   2   5  106.60    4.94
 -16  -2   5  108.25    5.18
 -16  -2   5  104.97    5.45
 -16   2   5  106.47    5.42
 -16  -2   5  120.20    9.83
 -16   2   5  107.49    4.65
 -16   2   5  115.84    9.54
 -16  -2   4   45.01    5.61
 -16  -2   4   36.11    2.60
 -16  -2   4   36.67    2.83
 -16   2   4   34.73    2.75
 -16   2   4   43.58    2.50
 -16   2   4   36.32    2.47
 -16   2   4   37.44    5.29
 -16  -2   3   23.80    3.78
 -16   2   3   19.68    3.48
 -16   2   3   21.95    1.74
 -16  -2   3   17.50    1.86
 -16   2   3   21.62    1.97
 -16   2   3   20.69    1.66
 -16  -2   3   17.35    1.63
 -16  -2   2  393.23   13.62
 -16   2   2  403.30   13.65
 -16  -2   1   18.19    1.62
 -16   2   1   20.38    1.72
 -16   2   1   17.78    2.82
 -16  -2   1   12.09    2.39
 -16   2   0   17.44    3.06
 -16   2   0   16.07    2.63
 -16  -2   0   15.92    2.60
 -16  -2   0   18.35    3.21
 -16   2  -1  131.85    8.66
 -16  -2  -1  140.95    8.71
 -16   2  -2   40.21    4.86
 -16  -2  -2   41.57    4.76
 -16   2  -2   34.02    2.24
 -16   2  -3   35.69    2.46
 -16  -2  -3   39.13    3.18
 -16   2  -3   33.36    2.24
 -16  -2  -3   36.24    2.48
 -16   2  -3   36.02    2.59
 -16   2  -3   33.07    2.25
 -16   2  -3   37.93    4.98
 -16  -2  -3   37.17    4.91
 -16   2  -3   35.11    2.40
 -16  -2  -3   30.65    2.26
 -16   2  -4   65.94    3.73
 -16   2  -4   70.56    3.68
 -16   2  -4   67.69    3.71
 -16  -2  -4   68.36    3.90
 -16   2  -4   68.97    4.04
 -16   2  -4   63.65    3.74
 -16   2  -4   54.59    6.69
 -16  -2  -4   65.77    7.04
 -16  -2  -4   62.99    3.61
 -16   2  -5  133.78    6.02
 -16   2  -5  129.84    5.99
 -16  -2  -5  128.14    6.19
 -16   2  -5  125.92    6.21
 -16   2  -5  116.13   10.11
 -16  -2  -5  139.69   10.92
 -16  -2  -5  137.22    6.03
 -16   2  -5  132.22    5.98
 -16  -2  -6  197.95    8.19
 -16   2  -6  186.55    8.05
 -16   2  -6  188.90    7.76
 -16  -2  -6  199.20    7.81
 -16   2  -7   94.93    4.51
 -16  -2  -7   92.06    4.19
 -16   2  -7   97.46    4.28
 -16   2  -8   26.44    1.46
 -16  -2  -8   25.46    1.41
 -16  -4   8   49.36    2.11
 -16  -4   7   21.84    1.72
 -16   4   7   21.74    1.73
 -16  -4   6   72.03    4.00
 -16   4   6   73.78    4.02
 -16   4   6   70.97    3.42
 -16  -4   5   13.83    3.54
 -16   4   5   16.95    3.54
 -16  -4   5   21.90    2.08
 -16  -4   5   17.85    2.05
 -16   4   5   16.66    1.92
 -16  -4   4  282.11   10.66
 -16  -4   4  283.58   10.94
 -16   4   4  296.48   11.03
 -16  -4   4  316.50   11.41
 -16  -4   4  298.08   16.10
 -16  -4   3    2.55    0.88
 -16  -4   3    1.97    0.93
 -16   4   3    2.17    0.85
 -16  -4   2   40.06    2.41
 -16  -4   2   42.06    2.81
 -16  -4   2   40.43    2.64
 -16   4   2   36.48    2.53
 -16   4   2   36.08    4.10
 -16  -4   2   42.15    4.50
 -16   4   1   11.53    1.21
 -16   4   1   10.80    2.24
 -16  -4   1    8.74    2.14
 -16  -4   1   12.35    1.39
 -16  -4   0    2.60    0.78
 -16   4   0    1.79    0.66
 -16   4   0    1.59    0.59
 -16   4   0   -0.33    0.98
 -16  -4   0    2.34    1.50
 -16  -4  -1   49.22    3.73
 -16   4  -1   56.61    5.33
 -16   4  -1   43.72    2.73
 -16  -4  -1   51.78    5.14
 -16   4  -1   47.10    2.57
 -16  -4  -2    4.37    0.78
 -16   4  -2    7.70    1.16
 -16   4  -2    4.75    0.94
 -16   4  -2    4.53    1.85
 -16  -4  -2    4.35    1.73
 -16   4  -2    4.56    1.02
 -16   4  -2    5.23    1.98
 -16  -4  -2    6.81    1.06
 -16   4  -3  110.78    5.15
 -16  -4  -3  108.24    4.93
 -16   4  -3  108.71    4.78
 -16  -4  -3  107.84    4.79
 -16   4  -3  116.10    8.77
 -16  -4  -3  120.62    8.90
 -16   4  -3  111.79    4.89
 -16   4  -4    2.84    1.07
 -16   4  -4    2.46    0.94
 -16  -4  -4    3.04    1.01
 -16   4  -4    2.64    1.08
 -16   4  -4    0.97    1.44
 -16  -4  -4    1.93    1.62
 -16  -4  -4    1.45    0.80
 -16   4  -4    2.10    0.85
 -16   4  -5    7.61    1.36
 -16   4  -5    8.77    1.39
 -16   4  -5    7.46    1.51
 -16  -4  -5   12.15    3.17
 -16  -4  -5   10.18    1.35
 -16   4  -5   10.04    1.39
 -16   4  -6   33.37    2.47
 -16   4  -6   36.93    2.72
 -16  -4  -6   37.69    2.41
 -16   4  -6   37.56    2.43
 -16   4  -6   39.67    2.56
 -16   4  -7   90.58    3.69
 -16  -4  -7   84.85    3.57
 -16  -6   7   51.20    2.36
 -16  -6   6   19.17    1.66
 -16   6   6   21.36    1.62
 -16  -6   5   40.63    2.68
  16  -6  -4   24.52    4.60
 -16  -6   4   33.31    2.43
 -16  -6   4   31.60    2.75
 -16  -6   3    6.49    1.10
 -16  -6   3    7.40    1.54
 -16  -6   3    7.11    1.35
 -16  -6   2    8.81    1.18
 -16  -6   2    9.70    1.48
 -16   6   1   35.54    2.37
 -16  -6   1   38.06    2.58
 -16   6   0   14.31    1.58
 -16   6   0   14.24    1.42
 -16  -6   0   15.76    1.62
  16  -6   0   12.57    2.69
 -16  -6   0   15.73    1.72
 -16   6  -1  126.33    5.33
 -16   6  -1  130.14    5.77
 -16   6  -1  128.36    5.28
 -16  -6  -1  131.02    5.63
 -16   6  -2   40.69    2.83
 -16  -6  -2   41.03    2.73
 -16   6  -2   38.69    2.62
 -16   6  -3   88.87    4.53
 -16   6  -3   84.24    4.02
 -16  -6  -3   89.01    4.53
 -16   6  -4    0.39    0.50
 -16   6  -4    0.28    0.73
 -16   6  -4    0.73    0.99
 -16  -6  -4    0.92    0.94
 -16   6  -5   68.87    3.69
 -16   6  -5   69.53    3.90
 -16   6  -5   73.00    3.90
 -16  -6  -5   79.05    4.06
 -16   6  -6   33.59    2.20
 -16   6  -6   35.57    2.17
 -16   6  -6   30.66    2.12
 -16  -6  -7   18.23    1.26
 -16   8   6    0.20    0.42
 -16   8   4    2.32    0.94
 -16  -8   4    1.60    1.06
  16   8  -3   92.27    4.47
 -16  -8   3   94.94    5.05
 -16  -8   3  102.46    4.93
 -16   8   2  220.81    8.58
 -16  -8   2  226.22    8.76
 -16   8   1   23.35    2.19
 -16   8   1   20.96    1.85
 -16  -8   1   22.01    2.09
 -16  -8   1   22.59    2.21
 -16   8   0   18.80    1.94
 -16   8   0   18.01    1.60
 -16  -8   0   19.77    1.91
 -16  -8   0   19.50    1.98
 -16   8  -1   57.51    3.21
 -16   8  -1   59.68    3.58
  16  -8   1   50.83    6.18
 -16  -8  -1   58.28    3.40
 -16   8  -2   -0.10    0.76
 -16   8  -2    0.68    0.83
  16  -8   2    0.57    1.55
 -16  -8  -2   -0.54    0.99
 -16   8  -3    2.65    1.05
 -16   8  -3    3.82    1.07
 -16  -8  -3    2.31    1.05
 -16   8  -4   21.98    1.90
 -16  -8  -4   25.60    2.05
 -16  -8  -5  118.89    4.83
 -16   8  -5  111.57    4.85
 -16   8  -6   15.23    1.16
 -16  -8  -6   13.92    1.10
 -16  10   5   68.67    2.90
 -16  10   5   68.18    2.83
 -16  10   4    0.73    0.61
 -16  10   4    0.51    0.59
 -16 -10   4   -0.07    0.70
  16  10  -3    4.88    0.81
  16  10  -3    5.75    0.90
 -16  10   3    7.09    1.14
 -16  10   3    5.65    0.94
 -16 -10   3    4.71    1.08
  16  10  -2   29.93    2.18
 -16  10   2   31.26    2.29
 -16  10   2   31.85    2.12
 -16 -10   2   28.65    2.41
 -16  10   1   10.06    1.34
 -16  10   1    8.00    1.09
 -16 -10   1   13.20    1.47
 -16 -10   1    9.92    1.47
 -16  10   0   -0.09    0.64
 -16 -10   0    1.02    0.81
 -16 -10   0    1.52    0.93
 -16  10  -1    3.53    0.80
 -16  10  -1    3.55    0.90
 -16 -10  -1    2.74    0.85
 -16 -10  -1    1.62    0.96
 -16  10  -2    5.70    1.04
 -16 -10  -2    5.42    0.98
 -16 -10  -2    4.17    1.20
 -16  10  -3   11.60    1.29
 -16 -10  -3    8.15    1.04
 -16  10  -4   11.85    1.20
 -16 -10  -4   10.96    1.00
 -16 -10  -4   12.23    1.30
 -16 -10  -5   24.58    1.41
 -16 -12   3   47.30    2.11
  16  12  -2    4.94    0.64
  16  12  -2    2.88    0.58
 -16 -12   2    4.81    0.83
  16  12  -1    4.18    0.78
 -16 -12   1    4.72    0.93
  16  12   0    1.25    0.58
 -16 -12  -1   12.34    1.22
 -16 -12  -2    1.30    0.55
 -16 -12  -3   42.69    1.99
 -17  -1   8    6.35    0.69
 -17   1   7  145.87    5.84
 -17  -1   7  166.78    6.22
 -17  -1   7  154.30    6.60
 -17   1   6    3.99    0.96
 -17  -1   6    2.53    1.01
 -17  -1   6    2.84    1.14
 -17   1   5  420.98   14.78
 -17  -1   5  433.87   15.05
 -17  -1   5  439.58   15.64
 -17  -1   5  423.76   21.41
 -17   1   5  448.65   21.80
 -17   1   4   19.90    3.84
 -17   1   4   22.86    1.96
 -17  -1   4   24.66    2.10
 -17  -1   4   25.24    2.39
 -17   1   4   23.70    1.78
 -17  -1   4   28.80    4.57
 -17   1   3  642.77   20.90
 -17  -1   3  644.33   20.94
 -17  -1   3  675.28   21.56
 -17   1   3  648.65   20.71
 -17  -1   3  631.05   20.82
 -17  -1   3  704.53   27.58
 -17  -1   2    0.94    0.63
 -17   1   2    1.56    0.67
 -17   1   2    0.47    0.57
 -17  -1   2    1.34    0.82
 -17  -1   2    0.80    0.63
 -17  -1   2    1.36    0.78
 -17   1   1  668.63   26.08
 -17  -1   1  703.21   22.33
 -17   1   0  180.21    9.78
 -17   1   0  170.64   10.45
 -17   1  -1 1561.82   53.19
 -17  -1  -2   73.28    3.60
 -17   1  -2   69.95    3.55
 -17   1  -2   71.70    3.60
 -17   1  -2   62.79    3.46
 -17  -1  -2   66.12    3.53
 -17  -1  -2   70.93    3.47
 -17   1  -2   74.74    6.59
 -17   1  -2   70.81    3.52
 -17  -1  -3  977.12   30.97
 -17   1  -3  976.75   30.67
 -17  -1  -3  976.49   30.98
 -17   1  -3 1026.22   31.16
 -17   1  -3  921.40   30.70
 -17   1  -3 1009.87   38.00
 -17  -1  -3  980.49   30.68
 -17   1  -4    9.45    1.43
 -17   1  -4    6.09    1.48
 -17  -1  -4    5.45    1.36
 -17   1  -4    8.02    3.06
 -17  -1  -4    6.85    1.33
 -17  -1  -5 1790.41   53.97
 -17   1  -5 1751.57   53.97
 -17   1  -5 1614.64   61.84
 -17  -1  -5 1614.30   61.70
 -17  -1  -5 1725.02   53.47
 -17  -1  -6    3.63    1.14
 -17   1  -6    3.16    1.21
 -17  -1  -6    1.27    0.92
 -17  -1  -7  292.63   10.31
 -17  -1  -7  318.31   10.59
 -17  -3   8    0.36    0.34
 -17  -3   7  186.98    7.63
 -17   3   7  192.96    7.68
 -17  -3   6   66.67    3.97
 -17   3   6   59.43    3.77
 -17   3   6   62.24    3.04
 -17   3   5  334.73   11.62
 -17  -3   5  326.45   12.53
 -17   3   5  350.87   12.64
 -17   3   5  331.06   11.59
 -17  -3   5  344.50   18.37
 -17   3   5  295.54   17.32
 -17  -3   4   15.17    3.41
 -17   3   4   15.26    3.32
  17  -3  -4    9.33    2.80
 -17   3   4   13.72    1.45
 -17  -3   4   14.04    1.79
 -17   3   4   10.42    1.63
 -17   3   4   15.27    1.58
 -17  -3   4   14.04    1.90
 -17   3   3  332.76   11.56
 -17  -3   3  321.27   11.71
 -17  -3   3  343.02   12.23
 -17   3   3  347.13   12.23
 -17   3   3  335.38   11.66
 -17  -3   3  335.09   11.89
 -17  -3   2  156.11    6.10
 -17  -3   2  157.93    6.15
 -17   3   2  144.64    5.97
 -17   3   2  153.85    6.10
 -17  -3   2  153.52    6.39
 -17  -3   2  157.61    6.52
 -17   3   2  152.77    6.40
 -17  -3   2  158.19    6.23
 -17   3   2  147.63    9.17
 -17  -3   2  166.43    9.74
 -17   3   2  152.17    6.04
 -17   3   1  828.74   26.71
 -17  -3   1  859.09   27.01
 -17  -3   1  818.08   26.61
 -17   3   1  833.57   31.08
 -17  -3   1  907.18   31.53
 -17  -3   1  835.72   26.74
 -17  -3   1  883.31   27.10
 -17   3   1  895.10   27.14
 -17  -3   1  865.96   26.89
 -17   3   0  336.14   11.90
 -17   3   0  356.39   11.84
 -17  -3   0  344.31   11.80
 -17   3   0  366.73   16.73
 -17  -3   0  390.17   16.94
 -17   3  -1  941.78   29.27
 -17  -3  -1  962.44   29.51
 -17   3  -1 1004.99   35.28
 -17  -3  -1  956.43   34.64
 -17  -3  -1  934.57   29.44
 -17  -3  -1  910.82   29.24
 -17  -3  -2  207.44    8.19
 -17   3  -2  186.02    7.34
 -17  -3  -2  194.29   11.61
 -17   3  -2  205.87    7.54
 -17   3  -2  194.88    7.66
 -17   3  -2  192.91    7.64
 -17  -3  -2  190.50    7.57
 -17   3  -2  200.08   11.87
 -17  -3  -2  185.66    7.35
 -17  -3  -2  197.42    7.33
 -17   3  -2  196.21    7.46
 -17   3  -3 1684.61   52.21
 -17   3  -3 1762.91   52.65
 -17   3  -3 1650.63   52.16
 -17  -3  -3 1709.65   52.50
 -17  -3  -3 1741.51   52.38
 -17   3  -3 1688.53   59.54
 -17  -3  -3 1680.80   59.29
 -17  -3  -3 1698.60   52.50
 -17   3  -3 1791.11   52.51
 -17   3  -4   70.75    3.86
 -17  -3  -4   78.48    4.17
 -17   3  -4   72.90    4.30
 -17   3  -4   72.41    7.48
 -17  -3  -4   68.69    7.26
 -17  -3  -4   77.16    3.95
 -17   3  -4   76.89    4.00
 -17   3  -4   73.49    4.14
 -17   3  -5  607.03   20.11
 -17  -3  -5  615.16   20.26
 -17   3  -5  603.01   19.93
 -17   3  -5  615.43   20.47
 -17  -3  -5  550.36   26.68
 -17  -3  -5  586.68   19.86
 -17   3  -5  615.27   19.99
 -17   3  -6   30.39    2.50
 -17  -3  -6   30.58    2.23
 -17  -3  -6   29.40    2.30
 -17   3  -6   25.08    2.09
 -17   3  -7  422.00   13.94
 -17  -3  -7  426.97   13.76
 -17  -3  -7  410.53   13.57
 -17   3  -7  413.58   13.62
 -17  -5   7   49.98    2.47
 -17  -5   6   29.52    2.11
 -17   5   6   25.09    1.79
 -17   5   6   24.01    1.85
 -17  -5   5   61.74    3.55
 -17   5   5   62.43    3.40
 -17  -5   5   58.28    3.51
 -17   5   5   63.28    3.57
 -17  -5   4  135.85    5.94
 -17  -5   4  131.84    5.95
 -17  -5   4  140.28    6.48
 -17   5   4  128.08    5.90
 -17  -5   4  125.71    8.93
  17  -5  -4  117.35    9.97
 -17  -5   3  135.93    5.90
 -17  -5   3  148.58    6.59
 -17  -5   3  140.06    6.23
 -17  -5   3  134.56    6.04
 -17   5   3  145.96    6.17
 -17  -5   3  141.24    9.29
 -17  -5   2  412.70   14.21
 -17   5   2  423.21   14.35
 -17  -5   2  433.08   14.93
 -17  -5   2  427.65   14.54
 -17   5   2  391.08   17.93
 -17  -5   2  451.24   18.76
 -17  -5   2  415.86   14.36
 -17  -5   1  321.17   11.47
 -17   5   1  346.00   11.73
 -17  -5   1  333.32   11.54
 -17  -5   1  331.48   15.22
 -17  -5   1  346.55   11.91
 -17  -5   1  346.62   12.06
 -17  -5   0  430.51   14.44
 -17   5   0  448.67   14.95
 -17  -5   0  415.75   14.40
 -17   5   0  451.31   14.57
 -17  -5   0  443.58   14.77
 -17  -5   0  435.07   14.84
 -17   5  -1  940.21   28.60
 -17   5  -1  929.55   28.97
 -17  -5  -1  904.71   28.50
 -17  -5  -1  972.30   34.11
 -17   5  -1  841.67   28.27
 -17  -5  -1  932.23   28.80
 -17   5  -1  959.72   34.21
 -17   5  -2  284.71    9.94
 -17   5  -2  277.41   14.56
 -17   5  -2  285.42   10.32
 -17   5  -2  274.79   10.45
 -17  -5  -2  280.93   14.39
 -17   5  -2  286.89   10.11
 -17  -5  -2  281.51   10.32
 -17   5  -3  982.39   31.49
 -17   5  -3  972.61   37.22
 -17  -5  -3  991.95   37.12
 -17  -5  -3 1005.59   31.56
 -17   5  -4   84.28    4.22
 -17   5  -4   92.20    4.82
 -17  -5  -4   96.81    4.76
 -17   5  -4   88.62    4.28
 -17   5  -5  191.01    7.50
 -17   5  -5  178.41    7.17
 -17   5  -5  196.47    7.77
 -17   5  -5  192.70    7.18
 -17  -5  -5  193.44    7.66
 -17   5  -6   56.96    3.03
 -17   5  -6   62.44    3.35
 -17  -5  -6   59.67    3.28
 -17   5  -6   59.49    3.16
 -17  -5  -7  296.27    9.85
 -17   7   7    6.78    0.65
 -17  -7   6   85.81    3.57
 -17   7   6   90.01    3.70
 -17  -7   5   18.94    1.59
 -17   7   5   20.85    1.81
 -17  -7   4  677.98   22.06
 -17  -7   4  702.63   22.93
 -17  -7   3   67.71    3.45
 -17   7   3   65.20    3.71
 -17  -7   3   65.11    4.08
 -17  -7   3   71.05    3.97
 -17   7   2  505.90   17.22
 -17  -7   2  519.63   17.49
 -17   7   1  254.08    9.90
 -17   7   1  267.35    9.61
 -17  -7   1  253.08    9.74
 -17  -7   1  263.49    9.97
 -17   7   0  392.80   13.66
 -17   7   0  378.18   13.08
 -17  -7   0  379.49   13.42
 -17   7  -1  128.29    5.45
 -17   7  -1  135.82    6.01
  17  -7   1  126.50    9.78
 -17  -7  -1  125.67    5.70
 -17  -7  -1  124.59    5.82
 -17   7  -2   88.94    4.31
 -17   7  -2   86.08    4.49
 -17  -7  -2   77.10    4.23
 -17   7  -3  220.84    8.86
 -17   7  -3  236.45    9.19
 -17  -7  -3  233.52    8.99
 -17   7  -4  323.42   11.95
 -17   7  -4  317.86   11.39
 -17   7  -4  343.74   12.16
 -17   7  -5  124.65    5.42
 -17   7  -5  134.56    5.51
 -17  -7  -5  131.44    5.55
 -17   7  -6  186.94    6.88
 -17  -7  -6  204.26    7.02
 -17   9   6  151.83    4.98
 -17   9   6  140.53    4.85
 -17   9   5    9.69    1.13
 -17   9   5    9.65    1.02
 -17   9   4  159.05    6.31
 -17   9   4  155.92    6.02
 -17  -9   4  142.16    6.15
  17   9  -3   55.21    2.93
 -17   9   3   60.61    3.46
 -17   9   3   61.03    3.22
 -17  -9   3   50.56    3.31
  17   9  -2  490.30   16.34
 -17   9   2  505.61   16.82
 -17   9   2  475.52   16.33
 -17  -9   2  494.41   16.60
 -17   9   1   10.45    1.51
 -17   9   1    8.67    1.18
 -17  -9   1    9.87    1.41
 -17  -9   1   10.10    1.54
 -17   9   0  484.54   16.16
 -17   9   0  440.67   15.38
 -17  -9   0  494.11   16.06
 -17  -9   0  477.78   16.27
 -17   9  -1    0.24    0.59
 -17   9  -1    0.11    0.76
 -17  -9  -1    0.30    0.68
 -17   9  -2  502.95   16.79
 -17  -9  -2  510.06   16.95
 -17   9  -3    8.50    1.25
 -17   9  -3    7.66    1.18
 -17  -9  -3    7.31    1.15
 -17   9  -4  149.35    5.82
 -17  -9  -4  141.37    5.62
 -17  -9  -5  100.16    3.80
 -17  -9  -5   95.72    3.87
 -17  11   4  283.12    9.03
 -17  11   3   37.07    2.02
 -17  11   3   38.92    1.98
 -17 -11   3   41.42    2.28
  17  11  -2  456.85   15.45
  17  11  -2  496.16   15.54
 -17  11   2  498.69   15.59
 -17  11   2  486.33   15.32
 -17 -11   2  488.26   15.99
  17  11  -1   10.82    1.24
 -17  11   1   11.80    1.14
 -17 -11   0  463.66   15.26
 -17 -11   0  485.94   15.73
 -17 -11  -1    1.07    0.61
 -17 -11  -1    2.14    0.87
 -17 -11  -2  405.62   13.66
 -17 -11  -2  482.10   14.46
 -17  11  -3   50.21    2.31
 -17  11  -4   52.38    2.30
 -17 -11  -4   72.49    2.59
 -18   0   7    0.42    0.56
 -18   0   7    0.93    0.74
 -18   0   6  142.49    5.80
 -18   0   6  115.42    6.08
 -18   0   5   -1.08    1.61
 -18   0   5    0.43    0.86
 -18   0   5   -0.28    1.15
 -18   0   4  264.80    9.53
 -18   0   4  230.42    9.85
 -18   0   4  257.76   15.06
 -18   0   3    1.13    0.76
 -18   0   3    0.08    0.43
 -18   0   3    0.12    0.83
 -18   0   2  242.32    8.51
 -18   0   2  233.99    8.99
 -18   0   2  232.72    8.66
 -18   0   2  240.02    8.66
 -18   0   1   -0.09    0.74
 -18   0   1    0.23    0.54
 -18   0   1    1.63    0.63
 -18   0   0  142.28    9.36
 -18   0  -1    0.77    0.61
 -18   0  -1   -0.17    0.53
 -18   0  -1    0.75    1.26
 -18   0  -1    0.09    0.64
 -18   0  -2   93.40    4.35
 -18   0  -2   90.74    4.26
 -18   0  -2   92.33    4.42
 -18   0  -2   96.18    7.82
 -18   0  -3    0.82    1.76
 -18   0  -3    0.45    0.88
 -18   0  -3    0.31    0.56
 -18   0  -3   -1.92    1.87
 -18   0  -3    0.89    0.76
 -18   0  -4  190.16    7.51
 -18   0  -4  179.46    7.73
 -18   0  -4  172.14   12.40
 -18   0  -4  174.76    7.40
 -18   0  -5    0.27    1.18
 -18   0  -5    0.58    1.44
 -18   0  -5    0.92    0.93
 -18   0  -6   30.69    2.36
 -18   0  -7    0.43    0.68
 -18   0  -7    0.27    0.47
 -18   0  -8   20.56    1.14
 -18  -2   8   87.50    3.23
 -18  -2   7   19.33    1.77
 -18   2   7   17.69    1.77
 -18   2   6  143.52    5.57
 -18  -2   6  137.56    5.88
 -18  -2   6  124.27    6.14
 -18   2   6  122.95    6.11
 -18  -2   5   36.27    5.49
 -18   2   5   46.95    2.86
 -18  -2   5   51.91    3.22
 -18  -2   5   42.28    3.33
 -18   2   5   48.88    3.44
 -18   2   5   43.79    2.58
 -18   2   5   54.49    6.47
 -18   2   4  184.74    7.41
 -18  -2   4  188.63    7.67
 -18  -2   4  197.33    8.17
 -18   2   4  183.64    8.04
 -18   2   4  188.29    7.28
 -18  -2   4  221.41   13.39
 -18   2   4  192.15   12.57
 -18  -2   3   32.06    2.57
 -18   2   3   25.79    2.04
 -18   2   3   27.96    2.46
 -18   2   3   31.19    2.14
 -18  -2   3   32.97    2.55
 -18  -2   3   27.11    2.15
 -18   2   2  257.03    9.11
 -18   2   2  234.29    8.98
 -18  -2   2  253.96    9.46
 -18  -2   2  264.24    9.55
 -18   2   2  247.00    9.49
 -18  -2   2  253.79    9.10
 -18   2   2  266.45   13.21
 -18  -2   2  276.29   13.48
 -18  -2   2  243.65    9.07
 -18   2   2  258.16    9.12
 -18  -2   1    1.97    0.68
 -18   2   1    3.14    0.74
 -18  -2   1    2.40    0.88
 -18   2   1    1.93    0.74
 -18   2   1    2.23    0.76
 -18  -2   1    1.17    0.61
 -18   2   1    1.36    0.63
 -18   2   1    3.86    0.83
 -18   2   1    4.50    1.87
 -18  -2   1    0.64    1.29
 -18  -2   1    1.48    0.68
 -18   2   0   18.62    1.67
 -18  -2   0   18.67    1.55
 -18   2   0   19.55    3.40
 -18   2   0   20.20    1.63
 -18   2   0   19.78    1.59
 -18   2   0   15.75    1.54
 -18  -2   0   18.08    1.58
 -18  -2   0   19.02    3.26
 -18  -2   0   19.10    3.03
 -18  -2   0   17.62    1.53
 -18   2   0   16.33    1.54
 -18  -2  -1    1.14    0.64
 -18   2  -1    0.80    0.63
 -18  -2  -1    1.56    0.68
 -18   2  -1    0.97    0.70
 -18   2  -1    1.58    0.68
 -18   2  -1    1.27    0.71
 -18  -2  -1    1.75    0.70
 -18  -2  -1    1.70    0.63
 -18   2  -1    2.33    1.85
 -18  -2  -1    1.49    1.45
 -18   2  -2    0.35    0.59
 -18   2  -2   -0.43    1.51
 -18  -2  -2    0.41    1.38
 -18  -2  -2    0.52    0.70
 -18   2  -2   -0.10    0.73
 -18   2  -2    0.27    0.65
 -18   2  -2   -0.81    0.86
 -18  -2  -2    0.39    0.79
 -18  -2  -2    0.09    0.61
 -18  -2  -2    0.16    0.57
 -18   2  -2    0.91    0.73
 -18   2  -3   61.49    3.48
 -18   2  -3   60.94    3.43
 -18  -2  -3   63.59    4.40
 -18   2  -3   62.58    3.36
 -18  -2  -3   56.07    3.40
 -18   2  -3   75.97    7.23
 -18  -2  -3   53.48    3.16
 -18  -2  -3   68.72    6.91
 -18  -2  -3   64.58    3.42
 -18   2  -4   94.28    4.72
 -18   2  -4   82.56    4.33
 -18   2  -4   94.86    4.45
 -18  -2  -4   85.73    4.59
 -18   2  -4   81.94    4.66
 -18   2  -4   76.13    7.92
 -18  -2  -4   79.23    8.06
 -18  -2  -4   90.49    4.48
 -18   2  -4   89.68    4.47
 -18  -2  -5  106.37    5.35
 -18   2  -5  106.97    5.43
 -18   2  -5   93.90    9.08
 -18  -2  -5   93.03    8.99
 -18  -2  -5  109.05    5.10
 -18   2  -5  110.11    5.17
 -18  -2  -6   20.98    2.09
 -18   2  -6   20.06    2.09
 -18  -2  -6   22.93    1.92
 -18   2  -6   20.10    1.89
 -18  -2  -6   20.31    1.85
 -18  -2  -7    2.14    0.68
 -18   2  -7    1.26    0.79
 -18   2  -7    2.52    0.72
 -18  -2  -7    1.52    0.62
 -18   4   6  200.55    7.17
 -18  -4   6  205.55    7.92
 -18   4   6  191.04    7.76
 -18  -4   5  107.35    5.13
 -18  -4   5  108.41    5.35
 -18   4   5   99.40    5.14
 -18   4   5  110.60    4.82
 -18  -4   4  178.09    7.45
 -18   4   4  177.70    7.26
 -18  -4   4  178.01    7.69
 -18   4   4  186.87    7.73
 -18  -4   4  199.01    8.11
 -18   4   4  172.86   11.30
  18  -4  -4  172.83   11.83
 -18  -4   3   41.29    2.77
 -18   4   3   47.71    2.86
 -18  -4   3   41.28    2.93
 -18   4   3   43.59    2.95
 -18  -4   3   47.03    3.03
 -18   4   3   34.45    4.56
 -18  -4   3   43.69    5.05
 -18  -4   2   30.45    2.18
 -18  -4   2   29.82    2.43
 -18  -4   2   32.05    2.35
 -18   4   2   29.42    4.01
 -18  -4   2   31.54    4.04
 -18  -4   2   33.15    2.42
 -18   4   2   30.58    2.39
 -18  -4   1  164.55    6.67
 -18   4   1  173.24    6.99
 -18   4   1  175.29    6.82
 -18   4   1  180.53    6.82
 -18  -4   1  174.89    6.79
 -18   4   1  180.25   10.33
 -18  -4   1  162.68    9.93
 -18  -4   1  175.41    6.86
 -18  -4   1  178.86    7.05
 -18  -4   1  175.89    6.64
 -18   4   1  177.61    6.66
 -18  -4   0   77.00    4.26
 -18   4   0   80.58    3.81
 -18   4   0   77.64    3.82
 -18  -4   0   82.43    3.87
 -18  -4   0   78.58    3.73
 -18  -4   0   78.64    3.82
 -18  -4   0   82.83    3.94
 -18  -4   0   76.30    3.61
 -18   4   0   81.72    3.70
 -18  -4  -1    0.93    0.80
 -18   4  -1    1.05    0.77
 -18   4  -1    2.04    0.75
 -18  -4  -1    4.93    3.32
 -18   4  -1    2.98    1.01
 -18   4  -1   -0.39    1.16
 -18   4  -1    0.66    0.71
 -18  -4  -1    1.26    0.81
 -18  -4  -1    0.38    1.42
 -18  -4  -1    2.31    0.88
 -18  -4  -1    2.13    0.81
 -18   4  -2   31.41    2.29
 -18   4  -2   31.17    2.20
 -18   4  -2   32.83    2.25
 -18  -4  -2   28.64    4.13
 -18   4  -2   34.63    2.49
 -18  -4  -2   30.86    2.44
 -18  -4  -2   30.92    2.10
 -18  -4  -2   31.85    2.32
 -18   4  -2   24.17    3.99
 -18   4  -3   57.91    6.39
 -18  -4  -3   65.34    6.54
 -18   4  -3   63.72    3.33
 -18  -4  -3   57.12    3.31
 -18   4  -3   65.01    3.64
 -18   4  -3   68.10    3.56
 -18   4  -4   -0.49    1.74
 -18  -4  -4    0.49    1.22
 -18  -4  -4    0.40    0.75
 -18   4  -4    0.38    0.73
 -18  -4  -4    1.15    0.80
 -18   4  -4    2.32    1.21
 -18   4  -4    1.63    0.84
 -18   4  -5  132.36    5.78
 -18   4  -5  117.35    5.38
 -18   4  -5  131.42    6.02
 -18  -4  -5  128.10    5.51
 -18   4  -5  125.47    5.52
 -18   4  -6   41.84    2.77
 -18  -4  -6   39.61    2.41
 -18   4  -6   45.03    2.56
 -18  -4  -7   75.77    3.04
 -18   4  -7   88.24    3.29
 -18  -6   7   39.51    1.78
 -18   6   7   38.14    1.84
 -18  -6   6  163.64    6.27
 -18   6   6  172.52    6.17
 -18   6   5   68.58    3.55
 -18  -6   5   67.76    3.54
 -18  -6   4  107.38    4.96
 -18   6   4  105.91    5.00
 -18  -6   4  108.26    5.46
 -18  -6   3  252.75    9.33
 -18   6   3  259.98    9.56
 -18  -6   3  237.71    9.88
 -18  -6   3  252.13    9.72
 -18  -6   2   35.55    2.39
 -18   6   2   40.84    2.70
 -18  -6   2   43.25    2.90
 -18  -6   1  123.48    5.31
 -18   6   1  134.82    5.94
 -18   6   1  134.04    5.63
 -18  -6   1  132.36    5.77
 -18  -6   1  123.35    5.79
 -18   6   0   16.33    1.80
 -18   6   0   13.05    1.43
 -18  -6   0   12.74    1.54
 -18  -6   0   14.48    1.71
 -18   6  -1  162.00    6.99
 -18   6  -1  163.62    6.58
 -18  -6  -1  174.35    6.93
 -18  -6  -1  164.62    6.92
 -18   6  -2   80.99    4.05
 -18   6  -2   71.90    3.69
 -18   6  -2   73.92    4.15
 -18  -6  -2   75.86    4.03
 -18   6  -3  112.69    5.40
 -18   6  -3  122.07    5.77
 -18  -6  -3  118.37    5.52
 -18   6  -4    0.80    0.53
 -18   6  -4    0.32    0.83
 -18   6  -4    0.88    0.59
 -18   6  -4    2.16    1.06
 -18  -6  -4    1.44    0.92
 -18   6  -5    1.28    0.83
 -18   6  -5    1.72    0.68
 -18   6  -5    0.51    0.86
 -18  -6  -5    1.64    0.90
 -18   6  -6   33.51    2.08
 -18  -6  -6   36.30    2.21
 -18  -6  -7    1.31    0.40
 -18   8   6    0.38    0.41
 -18   8   6   -0.19    0.35
 -18   8   4   27.94    2.10
 -18  -8   4   26.15    2.27
 -18   8   3  242.40    8.95
 -18  -8   3  229.25    9.21
  18   8  -2  115.54    5.21
 -18   8   2  124.53    5.81
 -18   8   2  128.33    5.55
 -18  -8   2  127.99    5.69
 -18   8   1  161.87    6.86
 -18   8   1  151.81    6.32
 -18  -8   1  164.22    6.67
 -18  -8   1  142.25    6.60
 -18   8   0  139.51    6.20
 -18   8   0  134.48    5.63
 -18  -8   0  135.41    5.98
 -18   8  -1   33.65    2.32
 -18   8  -1   37.53    2.77
 -18  -8  -1   39.28    2.75
 -18  -8  -1   40.11    2.90
 -18   8  -2   48.98    2.96
 -18   8  -2   49.42    3.21
 -18  -8  -2   51.35    3.16
 -18  -8  -2   49.78    3.26
 -18   8  -3   53.18    3.29
 -18   8  -3   53.67    3.16
 -18  -8  -3   55.45    3.25
 -18   8  -4    5.20    1.03
 -18   8  -4    3.96    0.98
 -18  -8  -4    4.38    1.00
 -18  -8  -5    6.53    0.97
 -18  -8  -5    7.19    0.87
 -18  -8  -6    6.25    0.64
 -18  10   5  153.53    5.16
 -18  10   4   35.95    2.04
 -18  10   4   37.48    1.96
 -18 -10   4   32.20    2.01
 -18  10   3   25.61    1.89
 -18  10   3   26.36    1.77
 -18 -10   3   23.58    1.93
  18  10  -2    8.70    1.09
 -18  10   2   11.35    1.41
 -18  10   2   10.20    1.14
 -18 -10   2    8.65    1.40
 -18  10   1   40.24    2.55
 -18  10   1   36.84    2.20
 -18 -10   1   40.73    2.50
 -18  10   0    4.33    0.92
 -18 -10   0    5.48    1.00
 -18 -10   0    4.71    1.10
 -18 -10  -1   26.65    1.92
 -18 -10  -1   24.03    2.08
 -18  10  -2    1.41    0.62
 -18 -10  -2    0.65    0.69
 -18  10  -3   17.06    1.39
 -18 -10  -3   17.91    1.38
 -18 -10  -3   19.65    1.65
 -18  10  -4   62.20    2.65
 -18 -10  -4   54.20    2.39
 -18 -10  -4   60.76    2.73
 -18 -12   2    5.01    0.72
  18  12  -1   50.75    2.21
 -18 -12   1   53.95    2.48
  18  12   0    0.25    0.40
 -18 -12   0    0.39    0.55
 -18 -12  -1   29.81    1.69
 -18 -12  -2   17.91    1.18
 -19   1   7   39.61    2.15
 -19  -1   7   45.20    2.44
 -19  -1   7   44.03    2.70
 -19   1   7   41.81    2.69
 -19  -1   6    2.94    1.03
 -19   1   6    2.64    0.86
 -19  -1   6    2.83    1.13
 -19   1   5  175.62    7.32
 -19  -1   5  184.84    7.47
 -19  -1   5  183.33    7.98
 -19  -1   5  177.27   12.48
 -19   1   5  187.54   12.75
 -19   1   4   50.23    3.16
 -19  -1   4   56.31    3.31
 -19  -1   4   51.74    3.60
 -19   1   4   53.69    2.91
 -19   1   3  608.80   20.12
 -19  -1   3  609.74   20.17
 -19  -1   3  616.83   20.69
 -19   1   3  626.72   19.96
 -19  -1   2    1.05    0.71
 -19   1   2    0.87    0.72
 -19   1   2    2.30    0.84
 -19  -1   2    1.98    0.79
 -19   1   2    1.59    0.67
 -19  -1   2    1.03    0.85
 -19   1   2    2.17    1.62
 -19  -1   2    0.62    0.70
 -19  -1   2    0.98    0.84
 -19   1   1  982.22   33.13
 -19  -1   1 1071.16   33.21
 -19   1   1 1051.01   33.05
 -19   1   1 1084.56   33.18
 -19   1   1 1073.65   38.26
 -19  -1   1 1074.98   33.56
 -19  -1   1 1124.68   33.17
 -19   1   1 1087.63   33.13
 -19  -1   0    7.68    1.08
 -19  -1   0    9.76    1.24
 -19   1   0    8.19    1.18
 -19   1   0    7.80    1.10
 -19   1   0    9.02    1.14
 -19  -1   0    7.53    1.11
 -19   1   0    8.92    1.16
 -19  -1  -1 1287.11   40.36
 -19  -1  -1 1338.38   40.68
 -19   1  -1 1381.96   40.75
 -19   1  -1 1343.83   47.12
 -19   1  -1 1336.60   40.58
 -19   1  -1 1378.64   40.75
 -19  -1  -1 1252.90   40.56
 -19  -1  -1 1257.72   40.11
 -19   1  -2  319.95   16.33
 -19  -1  -2  305.82   10.95
 -19   1  -2  303.17   10.79
 -19  -1  -2  301.07   10.80
 -19   1  -2  294.38   10.90
 -19  -1  -2  295.38   10.86
 -19  -1  -2  286.88   10.34
 -19   1  -2  314.29   10.71
 -19  -1  -3 1849.95   55.55
 -19   1  -3 1774.34   55.16
 -19  -1  -3 1818.00   55.41
 -19   1  -3 1843.47   55.58
 -19  -1  -3 1738.29   54.81
 -19   1  -3 1816.36   63.11
 -19  -1  -3 1816.84   55.18
 -19   1  -4   10.68    1.85
 -19  -1  -4    9.49    1.59
 -19   1  -4   11.15    1.71
 -19   1  -4    9.11    1.15
 -19  -1  -4    9.25    1.34
 -19   1  -4   17.63    3.82
 -19  -1  -4   10.99    3.22
 -19  -1  -4   10.48    1.50
 -19  -1  -5  493.43   16.57
 -19  -1  -5  475.01   16.08
 -19   1  -5  481.39   23.32
 -19  -1  -5  459.23   22.94
 -19   1  -5  449.92   15.35
 -19  -1  -5  462.93   15.74
 -19  -1  -6   38.29    2.73
 -19   1  -6   37.61    2.74
 -19   1  -6   28.25    1.90
 -19  -1  -6   28.76    2.10
 -19  -1  -6   35.24    2.42
 -19  -1  -7  358.90   11.97
 -19  -1  -7  388.94   12.32
 -19  -3   7   47.36    2.44
 -19  -3   7   46.06    2.51
 -19  -3   6   29.28    2.21
 -19  -3   6   24.36    2.21
 -19   3   6   25.75    2.24
 -19   3   5  120.48    5.27
 -19  -3   5  138.85    6.25
 -19   3   5  135.20    6.16
 -19   3   5  123.28    5.29
 -19   3   4    4.53    0.99
 -19   3   4    6.63    1.07
 -19  -3   4    5.22    1.37
 -19   3   4    3.83    1.20
 -19   3   3  224.26    8.77
 -19  -3   3  237.75    9.08
 -19   3   3  238.85    8.91
 -19  -3   3  251.06    9.62
 -19  -3   3  248.07    9.47
 -19   3   3  248.39    9.48
 -19  -3   3  241.80    9.12
 -19   3   3  211.52   12.85
 -19  -3   3  243.22   13.58
 -19   3   2  203.71    7.73
 -19  -3   2  197.30    7.77
 -19   3   2  205.31    7.82
 -19  -3   2  203.83    8.09
 -19  -3   2  202.16    7.79
 -19   3   2  208.04   11.81
 -19  -3   2  219.61   12.02
 -19  -3   2  206.86    8.14
 -19   3   2  209.35    8.17
 -19  -3   2  195.10    7.68
 -19   3   2  201.90    7.68
 -19  -3   1 1432.95   45.06
 -19   3   1 1466.00   45.23
 -19  -3   1 1484.26   44.96
 -19   3   1 1435.74   45.23
 -19   3   1 1424.59   45.11
 -19   3   1 1486.09   45.23
 -19  -3   1 1502.16   45.26
 -19  -3   1 1500.92   45.43
 -19   3   1 1495.38   50.64
 -19  -3   1 1505.34   50.70
 -19  -3   1 1496.86   45.14
 -19  -3   1 1484.35   45.25
 -19  -3   1 1473.24   45.00
 -19   3   1 1476.74   45.01
 -19  -3   0  224.61    8.17
 -19  -3   0  213.00    8.05
 -19   3   0  220.41   12.75
 -19  -3   0  211.03   12.48
 -19   3   0  217.58    8.22
 -19  -3   0  218.60    7.99
 -19   3   0  214.46    8.08
 -19   3   0  223.71    8.26
 -19  -3   0  214.43    8.17
 -19  -3   0  213.30    8.08
 -19  -3   0  213.01    8.00
 -19  -3   0  217.26    8.06
 -19   3   0  227.38    8.12
 -19  -3  -1 1005.68   31.03
 -19   3  -1  965.26   31.06
 -19  -3  -1 1007.32   31.37
 -19   3  -1 1000.82   31.28
 -19   3  -1  990.67   30.90
 -19   3  -1  984.62   31.30
 -19   3  -1 1001.95   31.36
 -19  -3  -1 1063.12   31.40
 -19   3  -1 1093.31   38.18
 -19  -3  -1 1002.82   37.19
 -19  -3  -1  962.52   31.01
 -19  -3  -1  967.88   30.89
 -19   3  -2   23.02    1.92
 -19  -3  -2   21.67    1.81
 -19   3  -2   24.75    1.97
 -19   3  -2   22.60    1.94
 -19  -3  -2   21.56    4.01
 -19  -3  -2   29.57    4.28
 -19   3  -2   24.20    2.38
 -19  -3  -2   26.64    2.25
 -19   3  -2   24.50    4.00
 -19  -3  -2   24.65    1.96
 -19  -3  -2   25.43    1.84
 -19   3  -3 1097.40   33.42
 -19   3  -3 1019.49   32.97
 -19  -3  -3 1053.12   33.18
 -19   3  -3 1080.62   33.69
 -19  -3  -3 1075.79   33.25
 -19  -3  -3  987.88   33.04
 -19   3  -3 1101.80   33.32
 -19   3  -3 1063.10   40.62
 -19  -3  -3 1025.41   40.18
 -19  -3  -4    8.84    2.68
 -19   3  -4    8.08    1.36
 -19   3  -4    6.45    1.49
 -19   3  -4    8.34    1.22
 -19  -3  -4    8.82    1.41
 -19   3  -4    9.39    1.68
 -19  -3  -4    7.54    1.29
 -19   3  -4    5.20    2.35
 -19  -3  -4    8.16    1.36
 -19  -3  -5  729.09   23.75
 -19   3  -5  702.24   23.98
 -19  -3  -5  729.56   23.63
 -19  -3  -5  727.70   23.52
 -19   3  -5  740.49   23.57
 -19   3  -6   56.46    3.40
 -19  -3  -6   57.94    3.17
 -19  -3  -6   53.72    3.04
 -19   3  -6   64.66    3.23
 -19   3  -7  116.49    4.29
 -19  -3  -7  120.80    4.37
 -19  -5   7   24.71    1.44
 -19   5   7   22.34    1.29
 -19  -5   6   77.99    3.61
 -19   5   6   71.30    3.20
 -19  -5   5   15.66    1.68
 -19   5   5   16.03    1.58
 -19  -5   5   12.76    1.54
 -19   5   5   14.91    1.61
 -19  -5   4  129.50    5.67
 -19   5   4  131.82    5.60
 -19  -5   4  124.99    6.07
 -19  -5   4  112.26    5.51
 -19   5   4  116.38    5.54
 -19  -5   3  382.24   12.86
 -19   5   3  365.22   12.58
 -19  -5   3  337.31   16.85
 -19  -5   3  349.94   12.84
 -19   5   3  358.27   12.89
 -19   5   2  159.96    6.62
 -19  -5   2  161.78    6.50
 -19  -5   2  156.92    6.99
 -19  -5   2  161.71    9.98
 -19  -5   2  161.73    6.51
 -19   5   1  260.53    9.68
 -19  -5   1  254.32    9.53
 -19  -5   1  261.91    9.55
 -19  -5   1  277.87   10.05
 -19   5   1  269.43    9.40
 -19   5   0  106.94    5.10
 -19  -5   0  109.60    4.81
 -19   5   0  110.67    4.86
 -19  -5   0  107.75    4.77
 -19  -5   0  112.06    5.05
 -19   5   0  104.94    4.55
 -19   5  -1 1895.91   56.72
 -19   5  -1 1936.19   63.31
 -19  -5  -1 1925.07   63.20
 -19   5  -1 1808.34   57.28
 -19  -5  -1 1871.46   56.89
 -19  -5  -1 1847.45   57.07
 -19   5  -1 1871.39   56.60
 -19   5  -2  199.02    7.79
 -19   5  -2  194.96    7.62
 -19   5  -2  203.84    8.10
 -19   5  -2  181.81   11.73
 -19  -5  -2  183.09   11.58
 -19   5  -2  204.64    7.56
 -19   5  -3   53.20    3.23
 -19  -5  -3   48.49    2.82
 -19   5  -3   51.05    2.91
 -19  -5  -3   48.02    5.51
 -19   5  -3   53.23    3.46
 -19  -5  -4  231.88    8.71
 -19   5  -4  259.27    8.98
 -19   5  -4  227.89    8.64
 -19   5  -4  253.07    9.68
 -19   5  -4  247.78    9.32
 -19   5  -5  172.03    6.65
 -19  -5  -5  154.95    6.02
 -19   5  -5  160.90    6.18
 -19   5  -5  146.76    6.06
 -19   5  -5  173.18    6.95
 -19   5  -6   83.33    3.90
 -19   7   6   54.25    2.63
 -19   7   6   54.21    2.43
 -19  -7   5   42.79    2.33
 -19   7   5   44.11    2.51
 -19  -7   4  367.22   12.85
 -19  -7   4  344.04   11.97
 -19  -7   3   51.10    2.88
 -19   7   3   52.08    3.16
 -19  -7   3   51.28    3.46
 -19  -7   3   54.18    3.36
 -19  -7   2  134.62    5.59
 -19   7   2  146.38    6.37
 -19   7   2  139.31    6.03
 -19  -7   2  137.07    6.16
 -19   7   1  306.72   11.51
 -19   7   1  308.16   11.07
 -19  -7   1  310.49   11.29
 -19   7   0   42.68    3.01
 -19   7   0   38.45    2.56
 -19  -7   0   42.94    2.83
 -19  -7   0   43.06    2.94
 -19   7  -1  167.63    6.58
 -19   7  -1  162.52    6.64
 -19   7  -1  164.30    7.11
 -19  -7  -1  162.45    6.92
 -19  -7  -1  173.05    7.13
 -19   7  -2  308.16   11.05
 -19   7  -2  303.13   11.42
 -19  -7  -2  311.91   11.28
 -19  -7  -2  308.81   11.33
 -19   7  -3  243.05    9.21
 -19   7  -3  242.72    9.54
 -19  -7  -3  249.90    9.37
 -19   7  -4  455.90   15.73
 -19   7  -4  476.63   16.00
 -19  -7  -4  478.50   15.91
 -19   7  -5  162.08    6.42
 -19  -7  -5  177.50    6.59
 -19  -7  -6  411.22   13.09
 -19   9   5   13.30    1.13
 -19   9   5   12.15    1.01
 -19   9   4   55.09    2.98
 -19   9   4   58.96    2.86
 -19  -9   4   56.63    3.02
 -19   9   3    5.00    1.07
 -19   9   3    4.69    0.93
 -19  -9   3    3.48    1.16
 -19   9   2  117.30    5.47
 -19   9   2  128.07    5.28
 -19  -9   2  120.71    5.32
 -19   9   1    6.25    1.23
 -19   9   1    6.04    1.03
 -19  -9   1    7.28    1.20
 -19  -9   1    7.25    1.40
 -19   9   0  349.06   12.34
 -19  -9   0  342.40   12.13
 -19   9  -1   17.70    1.77
 -19  -9  -1   21.11    1.88
 -19   9  -2   76.99    3.69
 -19   9  -2   86.94    4.12
 -19  -9  -2   80.94    3.93
 -19  -9  -2   77.58    4.07
 -19   9  -3  116.84    4.86
 -19   9  -3  111.93    4.85
 -19  -9  -3  123.81    5.00
 -19  -9  -3  121.12    5.15
 -19   9  -4  401.91   13.12
 -19  -9  -4  400.71   13.07
 -19  -9  -4  403.36   13.15
 -19  -9  -5   19.15    1.11
 -19   9  -5   15.99    1.17
 -19  11   3   24.26    1.41
 -19 -11   3   28.74    1.65
  19  11  -2  206.54    7.07
 -19  11   2  214.16    7.37
  19  11  -1   64.86    2.83
 -19  11   1   62.84    2.85
 -19 -11   0  296.56   10.28
 -19 -11   0  296.94    9.83
 -19 -11  -1    5.61    0.77
 -19 -11  -1    7.59    1.05
 -19 -11  -2  315.92   10.08
 -19 -11  -3    0.26    0.42
 -20   0   7    0.91    0.57
 -20   0   7   -0.60    0.71
 -20   0   6  345.82   11.38
 -20   0   6  289.68   11.68
 -20   0   5    0.11    0.79
 -20   0   5   -0.14    0.95
 -20   0   4  336.04   11.94
 -20   0   4  320.42   12.42
 -20   0   3    1.44    0.81
 -20   0   3    0.08    0.50
 -20   0   3   -0.13    0.93
 -20   0   2  395.68   13.46
 -20   0   2  375.44   12.97
 -20   0   2  388.12   13.88
 -20   0   2  417.21   13.55
 -20   0   1    0.25    0.62
 -20   0   1    0.90    0.66
 -20   0   1    0.38    0.50
 -20   0   1    0.37    0.67
 -20   0   0  809.15   26.41
 -20   0   0  873.17   26.53
 -20   0   0  817.30   26.10
 -20   0   0  826.55   26.36
 -20   0   0  904.25   33.18
 -20   0   0  818.37   26.28
 -20   0  -1    0.26    0.66
 -20   0  -1    1.73    1.61
 -20   0  -1    0.09    0.51
 -20   0  -1    1.08    0.74
 -20   0  -2  108.28    4.87
 -20   0  -2  104.59    8.64
 -20   0  -2  110.76    5.05
 -20   0  -2  113.32    5.14
 -20   0  -2  101.88    5.03
 -20   0  -2  106.37    4.53
 -20   0  -3   -1.11    2.58
 -20   0  -3   -0.12    0.86
 -20   0  -3    1.03    1.42
 -20   0  -3    0.56    0.56
 -20   0  -3    0.32    0.81
 -20   0  -4   70.45    4.13
 -20   0  -4   66.42    3.51
 -20   0  -4   67.62    7.41
 -20   0  -4   76.45    4.05
 -20   0  -5   -0.13    1.07
 -20   0  -5   -0.08    0.57
 -20   0  -5    0.33    0.88
 -20   0  -6   36.09    2.17
 -20   0  -6   39.09    2.57
 -20  -2   7   49.01    2.42
 -20  -2   7   41.24    2.46
 -20   2   7   41.21    2.47
 -20   2   6  132.85    5.28
 -20  -2   6  145.58    5.80
 -20  -2   6  133.07    6.00
 -20   2   5   48.94    2.85
 -20  -2   5   44.74    2.99
 -20  -2   5   46.57    3.28
 -20   2   5   42.16    2.48
 -20   2   5   42.74    3.20
 -20   2   4  459.73   15.63
 -20  -2   4  462.40   15.91
 -20   2   4  462.55   15.44
 -20  -2   4  469.58   16.46
 -20   2   4  453.92   16.32
 -20   2   3    4.12    0.98
 -20   2   3    4.09    0.91
 -20   2   3    2.94    1.56
 -20  -2   3    4.65    1.96
 -20  -2   3    2.23    0.84
 -20  -2   3    3.58    1.24
 -20   2   3    3.31    1.18
 -20  -2   2  500.05   16.54
 -20   2   2  503.42   16.78
 -20   2   2  507.46   16.85
 -20   2   2  519.33   16.86
 -20  -2   2  518.97   17.20
 -20  -2   2  504.54   16.74
 -20   2   2  486.15   21.78
 -20  -2   2  498.29   21.92
 -20  -2   2  502.80   17.28
 -20   2   2  489.05   17.25
 -20  -2   2  501.21   16.78
 -20   2   2  515.58   16.82
 -20  -2   1    1.42    0.77
 -20   2   1    0.34    0.72
 -20   2   1    1.51    0.79
 -20  -2   1    0.98    0.78
 -20  -2   1    0.26    0.59
 -20   2   1    2.42    1.00
 -20   2   1    0.36    0.59
 -20  -2   1    1.62    0.80
 -20   2   1    4.12    0.92
 -20  -2   1    0.75    0.66
 -20  -2   1    0.74    1.24
 -20  -2   1    0.73    0.68
 -20   2   0  268.48   14.72
 -20  -2   0  270.09    9.70
 -20  -2   0  261.06   14.44
 -20  -2   0  265.74    9.67
 -20   2   0  267.24    9.71
 -20   2   0  273.46    9.82
 -20  -2   0  259.20    9.69
 -20  -2   0  263.83    9.42
 -20  -2   0  263.50    9.39
 -20  -2   0  274.38    9.62
 -20   2   0  270.00    9.66
 -20  -2  -1   63.98    3.24
 -20   2  -1   60.18    3.23
 -20  -2  -1   60.52    3.39
 -20   2  -1   61.33    3.37
 -20   2  -1   59.10    3.31
 -20   2  -1   63.07    3.42
 -20  -2  -1   54.85    3.23
 -20   2  -1   55.18    6.11
 -20  -2  -1   50.36    5.73
 -20  -2  -1   55.77    3.03
 -20   2  -1   58.67    3.03
 -20   2  -2   30.75    2.23
 -20  -2  -2   26.58    2.08
 -20   2  -2   28.90    2.20
 -20   2  -2   29.60    4.58
 -20  -2  -2   27.29    2.15
 -20   2  -2   27.35    2.24
 -20   2  -2   28.88    2.39
 -20  -2  -2   26.53    2.28
 -20   2  -2   30.10    2.26
 -20  -2  -2   24.98    4.25
 -20  -2  -2   26.67    2.05
 -20   2  -3   52.35    3.13
 -20  -2  -3   42.28    4.24
 -20   2  -3   47.09    2.99
 -20  -2  -3   32.90    5.19
 -20  -2  -3   47.12    3.04
 -20  -2  -3   43.80    2.79
 -20  -2  -3   45.24    2.95
 -20   2  -3   44.01    2.94
 -20   2  -3   44.71    5.83
 -20   2  -4   27.60    4.68
 -20  -2  -4   32.41    5.12
 -20   2  -4   26.33    2.40
 -20  -2  -4   26.21    2.34
 -20  -2  -4   22.26    2.04
 -20  -2  -4   26.94    2.28
 -20   2  -4   25.20    2.22
 -20  -2  -5    0.70    0.80
 -20   2  -5    0.88    1.04
 -20  -2  -5    0.29    0.71
 -20  -2  -5    1.79    1.02
 -20   2  -5    0.85    0.86
 -20   2  -6    0.41    0.88
 -20  -2  -6    0.31    0.63
 -20  -2  -6    0.51    0.71
 -20   2  -6    1.29    0.81
 -20  -2  -7    0.28    0.42
 -20   2  -7    0.05    0.45
 -20  -2  -7    0.43    0.46
 -20  -4   6  171.22    6.73
 -20   4   6  169.37    6.66
 -20  -4   5   74.09    3.88
 -20   4   5   75.82    3.57
 -20  -4   5   63.02    3.80
 -20   4   5   65.43    3.79
 -20  -4   4  137.94    6.12
 -20   4   4  145.59    6.00
 -20  -4   4  141.52    6.40
 -20   4   4  138.99    6.31
 -20   4   4  136.12    9.54
 -20  -4   4  116.01    9.12
 -20  -4   3  176.11    6.89
 -20   4   3  159.33    6.66
 -20  -4   3  162.90    6.80
 -20   4   3  160.03   10.39
 -20  -4   3  159.26    6.98
 -20   4   3  154.14    6.92
 -20   4   2  126.49    5.62
 -20  -4   2  134.15    5.75
 -20  -4   2  140.95    6.20
 -20   4   2  137.29    5.76
 -20  -4   2  136.71    5.83
 -20  -4   2  135.69    5.90
 -20   4   2  121.08    8.85
 -20  -4   2  131.33    9.22
 -20  -4   1    2.91    0.90
 -20   4   1    3.30    0.95
 -20  -4   1    1.76    0.89
 -20   4   1    1.14    0.90
 -20   4   1    2.10    0.86
 -20  -4   1    0.87    1.11
 -20   4   1    0.58    0.71
 -20  -4   1    0.96    0.72
 -20  -4   1    0.74    1.38
 -20  -4   1    3.99    1.08
 -20  -4   1    2.55    1.02
 -20  -4   0  294.93   10.80
 -20  -4   0  282.63   10.31
 -20   4   0  286.66   10.35
 -20   4   0  301.47   10.52
 -20  -4   0  289.69   10.48
 -20  -4   0  285.44   10.45
 -20  -4   0  290.59   10.38
 -20  -4   0  290.29   10.44
 -20  -4   0  284.30   10.10
 -20   4   0  288.75   10.18
 -20   4  -1  181.66    6.88
 -20  -4  -1  197.97    8.19
 -20   4  -1  185.53    7.26
 -20   4  -1  187.00    7.32
 -20  -4  -1  179.19    7.22
 -20  -4  -1  186.31    7.16
 -20   4  -1  205.25   12.10
 -20  -4  -1  176.69    7.04
 -20  -4  -1  171.60   11.17
 -20  -4  -1  167.79    6.88
 -20   4  -1  165.94    7.00
 -20   4  -2  308.30   10.71
 -20   4  -2  298.59   10.55
 -20   4  -2  294.00   10.61
 -20  -4  -2  302.38   10.49
 -20   4  -2  285.87   10.89
 -20  -4  -2  300.79   10.98
 -20   4  -2  291.72   15.84
 -20  -4  -2  299.67   15.87
 -20  -4  -2  295.88   10.74
 -20  -4  -2  275.42   10.37
 -20  -4  -3    0.73    0.74
 -20   4  -3    1.53    0.76
 -20   4  -3    0.75    0.83
 -20   4  -3    0.73    0.73
 -20   4  -3    0.63    1.03
 -20   4  -3   -0.48    1.51
 -20  -4  -3   -0.11    0.78
 -20  -4  -3    0.47    1.29
 -20  -4  -3    1.16    0.63
 -20  -4  -4   27.62    2.11
 -20   4  -4   29.86    4.49
 -20  -4  -4   28.09    2.15
 -20   4  -4   26.99    2.49
 -20  -4  -4   21.52    3.99
 -20  -4  -4   28.94    2.38
 -20   4  -4   27.73    2.34
 -20  -4  -5    7.57    1.09
 -20   4  -5    6.31    1.26
 -20   4  -5    6.95    1.42
 -20  -4  -5    7.58    1.27
 -20  -4  -6   39.78    2.14
 -20   4  -6   38.87    2.19
 -20   4  -6   39.23    2.56
 -20  -4  -6   42.25    2.44
 -20  -4  -7   40.91    1.91
 -20  -6   6  139.79    5.09
 -20   6   6  133.86    4.94
 -20  -6   5  275.96    9.90
 -20   6   5  290.02    9.92
 -20  -6   4   49.64    2.94
 -20   6   4   48.37    2.97
 -20  -6   4   47.49    3.33
 -20  -6   3  155.44    6.27
 -20   6   3  156.49    6.48
 -20  -6   3  138.78    5.88
 -20  -6   3  158.32    6.60
 -20  -6   2  127.43    5.45
 -20   6   2  134.18    6.02
 -20   6   2  125.86    5.65
 -20  -6   2  123.70    6.03
 -20  -6   2  127.83    5.81
 -20  -6   1  273.21    9.65
 -20   6   1  265.14   10.17
 -20   6   1  259.78    9.80
 -20  -6   1  268.28   10.28
 -20  -6   1  270.35    9.99
 -20  -6   1  260.81   10.06
 -20   6   0   29.22    2.43
 -20   6   0   28.22    2.11
 -20  -6   0   25.69    2.19
 -20  -6   0   24.71    2.19
 -20   6  -1   46.55    2.73
 -20   6  -1   45.46    2.92
 -20   6  -1   54.45    3.37
 -20  -6  -1   50.82    3.13
 -20  -6  -1   50.23    3.12
 -20   6  -2  139.83    5.80
 -20   6  -2  126.97    5.58
 -20   6  -2  136.24    6.15
 -20  -6  -2  140.95    6.04
 -20  -6  -2  132.33    5.90
 -20   6  -3    1.86    0.66
 -20   6  -3    1.32    0.84
 -20   6  -3    1.11    0.98
 -20  -6  -3    1.96    1.06
 -20  -6  -3    2.33    0.87
 -20   6  -4    3.65    1.02
 -20   6  -4    3.28    1.12
 -20  -6  -4    1.84    1.00
 -20  -6  -4    2.60    0.81
 -20   6  -5   23.04    1.92
 -20  -6  -5   22.43    1.85
 -20   6  -6   25.17    1.59
 -20  -6  -6   29.89    1.75
 -20   8   5  249.77    8.68
 -20   8   4   82.53    3.96
 -20   8   4   80.08    3.72
 -20  -8   4   73.44    3.86
 -20   8   3  355.12   12.23
 -20   8   3  339.75   11.81
 -20  -8   3  322.29   12.10
 -20   8   2   87.10    4.47
 -20   8   2   86.84    4.13
 -20  -8   2   76.82    4.13
 -20   8   1  283.39   10.52
 -20   8   1  280.00   10.05
 -20  -8   1  271.19   10.22
 -20   8   0    7.29    1.31
 -20  -8   0    6.45    1.23
 -20  -8   0    4.98    1.23
 -20   8  -1    1.83    0.68
 -20   8  -1    2.42    0.81
 -20   8  -1    3.45    1.16
 -20  -8  -1    5.56    1.29
 -20  -8  -1    5.95    1.42
 -20   8  -2   25.38    1.97
 -20  -8  -2   30.32    2.28
 -20  -8  -2   31.64    2.37
 -20   8  -3   59.23    3.16
 -20   8  -3   60.47    3.37
 -20  -8  -3   60.32    3.29
 -20  -8  -3   57.44    3.25
 -20   8  -4    3.33    0.82
 -20   8  -4    1.46    0.69
 -20  -8  -4    1.78    0.71
 -20  -8  -4    2.59    0.70
 -20  -8  -5    8.07    0.91
 -20  10   4   62.08    2.65
 -20  10   4   60.52    2.55
 -20  10   3  221.22    7.49
 -20  10   3  204.38    7.19
 -20 -10   3  197.65    7.45
 -20  10   2   26.99    1.92
 -20  10   2   28.03    1.77
  20  10  -1   61.16    2.90
 -20  10   1   63.03    3.23
 -20 -10   1   59.72    3.34
 -20 -10   1   64.05    3.14
 -20  10   0    7.96    1.12
 -20 -10   0    8.73    1.12
 -20 -10   0   10.23    1.27
 -20 -10  -1  175.37    6.54
 -20  10  -2   14.63    1.22
 -20 -10  -2   14.06    1.24
 -20 -10  -2   14.42    1.42
 -20  10  -3   16.76    1.14
 -20 -10  -3   14.43    1.14
 -20 -10  -3   15.65    1.31
 -20 -10  -4    0.52    0.33
 -20 -12   0    0.48    0.35
 -21   1   7   29.88    1.60
 -21  -1   7   33.65    1.85
 -21  -1   7   32.94    2.11
 -21   1   7   29.62    2.01
 -21   1   6    0.15    0.62
 -21  -1   6   -0.17    0.81
 -21  -1   6    0.34    0.81
 -21   1   5  193.97    7.50
 -21  -1   5  194.56    7.69
 -21  -1   5  172.43    7.93
 -21   1   4    7.80    1.32
 -21  -1   4    6.71    1.34
 -21   1   4    8.51    1.11
 -21   1   4    7.80    2.42
 -21  -1   4    5.59    1.49
 -21   1   3  762.87   24.05
 -21  -1   3  717.66   24.00
 -21  -1   3  720.07   23.56
 -21   1   3  735.78   23.67
 -21   1   3  784.53   23.84
 -21  -1   3  735.14   24.57
 -21   1   3  728.51   29.83
 -21  -1   2    0.97    0.86
 -21  -1   2    1.52    0.73
 -21   1   2    0.48    0.76
 -21   1   2    0.99    0.80
 -21  -1   2    0.30    0.80
 -21  -1   2    3.19    0.89
 -21   1   2    1.30    0.68
 -21   1   2    1.57    0.74
 -21   1   2   -0.41    1.44
 -21  -1   2    0.57    0.62
 -21   1   1  532.83   18.27
 -21  -1   1  571.90   18.35
 -21   1   1  547.06   18.09
 -21   1   1  526.54   18.23
 -21   1   1  555.46   23.48
 -21  -1   1  559.02   17.89
 -21  -1   1  575.97   18.17
 -21   1   1  559.01   18.18
 -21  -1   0   20.21    1.86
 -21   1   0   19.78    3.80
 -21   1   0   18.19    1.66
 -21   1   0   20.40    1.80
 -21  -1   0   18.63    1.52
 -21  -1   0   18.04    1.67
 -21  -1  -1 1310.42   40.90
 -21  -1  -1 1352.20   41.18
 -21   1  -1 1374.21   41.24
 -21   1  -1 1301.89   41.01
 -21   1  -1 1317.58   41.17
 -21   1  -1 1413.87   48.65
 -21  -1  -1 1291.89   40.54
 -21  -1  -2   23.67    1.99
 -21  -1  -2   25.28    2.33
 -21   1  -2   22.32    2.03
 -21  -1  -2   25.84    2.13
 -21   1  -2   21.92    2.12
 -21  -1  -2   24.21    1.83
 -21   1  -2   23.05    4.28
 -21   1  -3  663.49   29.07
 -21  -1  -3  687.55   22.30
 -21   1  -3  654.25   21.73
 -21  -1  -3  675.95   21.92
 -21   1  -3  670.69   22.03
 -21  -1  -3  632.73   21.26
 -21  -1  -4    9.91    3.23
 -21   1  -4   12.61    2.01
 -21  -1  -4   11.43    1.77
 -21   1  -4   10.98    1.74
 -21  -1  -4   10.26    1.33
 -21  -1  -4   11.67    1.61
 -21   1  -4   12.15    3.17
 -21  -1  -5  506.29   17.57
 -21  -1  -5  494.66   16.86
 -21  -1  -5  548.07   17.46
 -21  -1  -6   39.05    2.61
 -21  -1  -6   37.09    2.19
 -21  -1  -6   42.93    2.54
 -21  -1  -7  197.63    6.77
 -21  -3   7   10.47    0.97
 -21  -3   6    1.82    0.81
 -21   3   6    0.85    0.66
 -21  -3   6    1.64    0.76
 -21   3   5  202.42    7.45
 -21   3   5  205.08    7.42
 -21  -3   5  201.06    8.25
 -21   3   5  187.02    8.04
 -21   3   4    0.19    0.70
 -21   3   4    0.93    0.65
 -21   3   4    1.75    1.38
 -21  -3   4    0.45    1.22
 -21  -3   4   -0.66    0.95
 -21   3   4    0.65    0.90
 -21   3   3  257.06    9.74
 -21  -3   3  266.86    9.97
 -21   3   3  264.52    9.82
 -21  -3   3  284.11   10.50
 -21  -3   3  260.23    9.85
 -21  -3   3  279.28   10.46
 -21   3   3  251.56   14.51
 -21   3   3  257.71   10.28
 -21  -3   3  265.69   14.63
 -21   3   2   27.15    2.19
 -21  -3   2   28.79    2.23
 -21   3   2   31.52    2.34
 -21   3   2   32.98    2.35
 -21  -3   2   24.31    2.31
 -21   3   2   27.97    2.23
 -21  -3   2   31.09    2.27
 -21   3   2   28.55    4.18
 -21  -3   2   29.72    4.40
 -21  -3   2   29.36    2.49
 -21   3   2   29.29    2.21
 -21  -3   1  726.59   23.81
 -21  -3   1  716.04   24.01
 -21   3   1  740.58   24.15
 -21   3   1  764.09   24.19
 -21  -3   1  808.51   24.32
 -21  -3   1  760.43   24.24
 -21   3   1  712.28   29.21
 -21  -3   1  748.52   29.54
 -21  -3   1  742.61   23.93
 -21  -3   1  753.04   23.91
 -21   3   1  756.98   23.95
 -21  -3   0  452.32   15.63
 -21  -3   0  462.10   15.66
 -21   3   0  445.86   15.71
 -21   3   0  479.90   15.86
 -21  -3   0  477.95   15.87
 -21  -3   0  462.13   15.54
 -21  -3   0  455.49   15.51
 -21  -3   0  474.69   15.55
 -21  -3   0  464.74   15.48
 -21   3   0  485.92   15.62
 -21  -3  -1  390.38   13.25
 -21   3  -1  379.54   12.93
 -21   3  -1  370.96   12.77
 -21   3  -1  363.27   12.92
 -21   3  -1  380.82   12.98
 -21  -3  -1  372.30   12.90
 -21  -3  -1  358.32   12.57
 -21   3  -1  402.08   19.07
 -21  -3  -1  339.04   17.85
 -21  -3  -1  348.21   12.33
 -21  -3  -1  328.86   12.52
 -21   3  -1  370.29   12.38
 -21   3  -2   16.60    1.70
 -21  -3  -2   18.38    1.70
 -21   3  -2   15.17    1.62
 -21   3  -2   21.80    4.06
 -21  -3  -2   21.67    3.87
 -21   3  -2   16.61    1.72
 -21  -3  -2   14.78    4.63
 -21  -3  -2   15.93    2.17
 -21   3  -2   12.99    2.37
 -21  -3  -2   15.33    1.63
 -21  -3  -3  353.55   12.43
 -21   3  -3  356.13   12.51
 -21   3  -3  358.65   12.44
 -21   3  -3  352.84   18.58
 -21  -3  -3  353.54   18.37
 -21  -3  -3  345.31   12.37
 -21   3  -3  360.17   12.67
 -21  -3  -3  348.66   12.48
 -21  -3  -4   61.63    3.46
 -21   3  -4   61.53    6.85
 -21  -3  -4   65.48    7.10
 -21   3  -4   56.43    3.37
 -21  -3  -4   63.15    3.53
 -21   3  -4   62.90    3.88
 -21  -3  -4   64.86    3.56
 -21   3  -4   65.99    3.75
 -21  -3  -5  690.52   22.21
 -21  -3  -5  665.57   22.30
 -21   3  -5  702.09   22.80
 -21  -3  -5  705.94   22.33
 -21  -3  -6   35.39    2.08
 -21   3  -6   31.47    2.04
 -21   3  -6   35.32    2.40
 -21  -3  -6   35.14    2.13
 -21   3  -7  160.59    5.11
 -21  -3  -7  160.11    5.11
 -21  -5   7    1.87    0.37
 -21  -5   6    6.54    0.94
 -21   5   6    6.92    0.92
 -21  -5   5   16.82    1.64
 -21   5   5   16.82    1.50
 -21   5   5   16.15    1.39
 -21  -5   5   14.87    1.53
 -21  -5   4   39.80    2.68
 -21   5   4   40.51    2.66
 -21   5   4   40.46    2.51
 -21  -5   4   37.04    2.66
 -21  -5   3  274.28   10.00
 -21   5   3  272.82    9.84
 -21  -5   3  268.54    9.88
 -21  -5   3  278.38   10.22
 -21  -5   2    6.07    1.11
 -21   5   2    5.67    1.17
 -21   5   2    6.80    1.17
 -21  -5   2    5.33    1.34
 -21   5   2    3.59    0.93
 -21  -5   2    5.24    1.03
 -21  -5   2    7.13    2.07
 -21  -5   2    5.03    1.19
 -21  -5   1  809.88   25.42
 -21   5   1  827.99   25.61
 -21   5   1  794.99   25.35
 -21  -5   1  795.05   25.38
 -21  -5   1  826.88   25.94
 -21  -5   1  765.26   25.46
 -21  -5   1  824.24   25.78
 -21  -5   1  756.37   25.04
 -21   5   1  777.63   25.06
 -21   5   0  202.69    7.94
 -21  -5   0  200.22    7.89
 -21   5   0  209.44    8.03
 -21  -5   0  212.84    8.23
 -21  -5   0  215.71    8.15
 -21  -5   0  223.00    8.28
 -21  -5   0  205.96    7.65
 -21   5   0  200.02    7.62
 -21   5  -1  195.80    7.27
 -21   5  -1  199.14    7.72
 -21   5  -1  189.01    7.88
 -21   5  -1  187.51    7.63
 -21  -5  -1  191.32    7.57
 -21  -5  -1  189.15    7.58
 -21  -5  -1  189.60    7.20
 -21   5  -1  192.27    7.27
 -21   5  -2  352.34   12.00
 -21   5  -2  353.95   12.46
 -21  -5  -2  351.49   12.02
 -21  -5  -2  330.61   16.87
 -21   5  -2  360.06   12.05
 -21  -5  -2  328.14   11.67
 -21   5  -2  306.13   11.71
 -21  -5  -3  199.72    7.55
 -21   5  -3  202.45    7.97
 -21   5  -3  204.92    7.64
 -21   5  -3  207.26    8.39
 -21  -5  -3  183.90    7.52
 -21   5  -3  216.43    7.74
 -21   5  -4  257.65    9.38
 -21  -5  -4  239.65    8.78
 -21   5  -4  256.28    8.96
 -21   5  -4  240.02    9.58
 -21   5  -5    5.43    0.87
 -21   5  -5    4.18    1.12
 -21   5  -6   83.38    3.65
 -21   7   6   22.73    1.31
 -21   7   6   20.05    1.11
 -21   7   5   22.92    1.60
 -21  -7   4   14.94    1.34
 -21  -7   4   13.21    1.65
 -21  -7   3   25.69    1.88
 -21   7   3   27.70    2.38
 -21   7   3   27.94    2.19
 -21  -7   3   27.92    2.25
 -21  -7   2  108.08    4.76
 -21   7   2  117.23    5.48
 -21   7   2  116.59    5.23
 -21  -7   2  113.34    5.51
 -21  -7   2  117.41    5.34
 -21   7   1  100.79    5.05
 -21   7   1   98.03    4.68
 -21  -7   1   97.62    5.02
 -21  -7   1  103.98    4.86
 -21  -7   1   97.80    4.87
 -21   7   0   12.90    1.70
 -21  -7   0   11.37    1.51
 -21  -7   0   10.27    1.56
 -21   7  -1   43.83    2.50
 -21   7  -1   44.52    2.76
 -21   7  -1   46.93    3.13
 -21  -7  -1   46.30    2.99
 -21  -7  -1   48.18    3.04
 -21   7  -2  851.51   27.27
 -21  -7  -2  876.26   27.72
 -21  -7  -2  875.96   27.66
 -21   7  -3  159.03    6.51
 -21   7  -3  177.62    7.05
 -21  -7  -3  167.88    6.78
 -21  -7  -3  158.63    6.51
 -21   7  -4  463.36   15.31
 -21   7  -4  448.68   15.50
 -21  -7  -4  480.24   15.51
 -21   7  -5   75.84    3.40
 -21  -7  -5   78.96    3.48
 -21  -7  -6  258.26    8.24
 -21   9   5    0.72    0.32
 -21   9   4   40.16    2.22
 -21   9   4   38.08    2.06
 -21   9   3    9.57    1.22
 -21   9   3    6.15    0.90
 -21  -9   3    7.61    1.20
 -21   9   2  125.62    5.37
 -21   9   2  121.50    5.04
 -21  -9   2  121.46    5.17
 -21   9   1   28.54    2.16
 -21  -9   1   24.24    2.14
 -21  -9   1   31.21    2.19
 -21   9   0  420.96   14.67
 -21   9   0  473.12   15.34
 -21  -9   0  463.22   15.35
 -21  -9   0  463.27   15.14
 -21   9  -1   82.08    4.01
 -21  -9  -1   84.50    3.97
 -21  -9  -1   82.86    4.09
 -21   9  -2  336.11   11.92
 -21  -9  -2  357.71   11.89
 -21  -9  -2  354.39   12.03
 -21   9  -3    5.27    0.80
 -21   9  -3    5.18    0.90
 -21  -9  -3    5.94    0.90
 -21  -9  -3    4.96    0.87
 -21  -9  -4  437.98   12.90
 -21   9  -4  413.44   12.81
 -21  11   2  134.27    4.66
 -21  11   1    2.14    0.48
 -21 -11   1    2.87    0.69
 -21 -11   0  269.87    9.01
 -21 -11   0  266.14    8.70
 -21 -11  -1    5.74    0.73
 -21 -11  -1    6.31    0.65
 -22   0   7    0.45    0.39
 -22   0   6  615.87   18.51
 -22   0   6  517.50   18.82
 -22   0   5   -0.30    0.79
 -22   0   5   -0.53    1.00
 -22   0   4  522.42   17.70
 -22   0   4  533.77   18.92
 -22   0   3   -0.40    1.00
 -22   0   3    0.11    0.79
 -22   0   2  325.67   11.97
 -22   0   2  341.35   12.53
 -22   0   2  348.13   12.04
 -22   0   1    0.74    0.70
 -22   0   1    0.10    0.69
 -22   0   1    0.42    0.72
 -22   0   1    0.49    0.56
 -22   0   1    0.10    0.69
 -22   0   0  273.58   10.49
 -22   0   0  298.19   10.64
 -22   0   0  304.13   16.37
 -22   0   0  290.47   10.23
 -22   0   0  284.84   10.51
 -22   0   0  283.29   10.29
 -22   0  -1    0.29    0.67
 -22   0  -1   -0.48    1.80
 -22   0  -1    0.11    0.74
 -22   0  -2  150.28    6.44
 -22   0  -2  162.47    6.74
 -22   0  -2  160.44   11.49
 -22   0  -2  161.09    6.72
 -22   0  -2  162.55    6.84
 -22   0  -2  144.52    5.90
 -22   0  -3    1.07    0.85
 -22   0  -3    0.12    3.51
 -22   0  -3   -0.36    1.01
 -22   0  -3    0.54    1.48
 -22   0  -3    0.63    0.51
 -22   0  -4   62.51    3.66
 -22   0  -4   49.73    2.79
 -22   0  -5   -0.23    0.96
 -22   0  -5    0.14    0.49
 -22   0  -5   -0.41    0.91
 -22   0  -6    0.29    0.60
 -22   0  -6   -0.35    0.77
 -22   0  -7   -0.04    0.37
 -22  -2   7    2.77    0.57
 -22   2   6  209.38    7.34
 -22  -2   6  198.26    7.99
 -22   2   6  194.15    7.95
 -22   2   5   49.30    2.84
 -22   2   5   46.87    2.65
 -22   2   5   47.03    2.53
 -22  -2   5   47.09    3.30
 -22   2   5   49.36    3.34
 -22   2   4  642.07   19.97
 -22  -2   4  597.74   20.10
 -22   2   4  608.96   19.72
 -22   2   4  617.47   19.68
 -22  -2   4  593.92   20.62
 -22   2   4  576.09   20.50
 -22   2   4  564.86   25.56
 -22  -2   4  572.37   25.75
 -22  -2   3    6.16    1.40
 -22   2   3    7.07    1.43
 -22   2   3    7.77    1.27
 -22   2   3    5.62    1.09
 -22   2   3    8.69    1.25
 -22   2   3    4.93    2.26
 -22  -2   3    5.40    2.15
 -22   2   2 1280.02   41.17
 -22  -2   2 1290.61   40.74
 -22   2   2 1314.56   41.04
 -22   2   2 1347.13   41.13
 -22  -2   2 1379.84   41.51
 -22   2   2 1315.94   41.25
 -22  -2   2 1347.45   41.31
 -22  -2   2 1326.94   40.95
 -22   2   2 1290.73   47.31
 -22  -2   2 1362.20   47.83
 -22  -2   2 1300.24   41.65
 -22  -2   2 1345.81   41.13
 -22   2   2 1344.31   41.15
 -22   2   1  328.00   11.71
 -22  -2   1  315.69   11.59
 -22  -2   1  318.42   11.40
 -22   2   1  324.96   11.56
 -22   2   1  334.47   11.66
 -22  -2   1  327.71   11.59
 -22  -2   1  316.40   11.63
 -22   2   1  331.61   16.36
 -22  -2   1  324.06   16.38
 -22  -2   1  322.31   11.27
 -22  -2   1  318.33   11.37
 -22   2   1  337.21   11.49
 -22  -2   0   29.29    2.30
 -22  -2   0   30.58    2.27
 -22   2   0   31.31    2.40
 -22   2   0   29.19    2.22
 -22   2   0   29.86    2.31
 -22  -2   0   29.71    2.32
 -22  -2   0   30.07    2.10
 -22  -2   0   30.03    2.13
 -22   2   0   34.86    2.36
 -22   2  -1   16.15    1.76
 -22   2  -1   16.26    3.73
 -22  -2  -1   17.54    1.97
 -22   2  -1   14.45    1.72
 -22  -2  -1   19.44    3.82
 -22   2  -1   13.54    1.64
 -22   2  -1   14.54    1.69
 -22  -2  -1   10.08    1.53
 -22  -2  -1   13.59    1.43
 -22  -2  -1   18.23    1.85
 -22  -2  -2   46.71    2.92
 -22   2  -2   44.02    2.89
 -22   2  -2   40.81    2.84
 -22  -2  -2   43.82    2.81
 -22   2  -2   42.24    5.74
 -22  -2  -2   47.41    5.85
 -22   2  -2   42.96    3.27
 -22  -2  -2   49.43    3.27
 -22  -2  -2   44.18    2.70
 -22  -2  -3    3.81    0.97
 -22   2  -3    3.16    1.03
 -22  -2  -3    4.31    3.26
 -22   2  -3    4.38    1.47
 -22  -2  -3    5.03    1.12
 -22   2  -3    2.24    1.08
 -22   2  -3    2.64    1.78
 -22  -2  -3    2.09    1.94
 -22  -2  -3    2.77    0.85
 -22  -2  -4    8.72    1.38
 -22   2  -4    8.33    1.32
 -22   2  -4    7.35    1.53
 -22   2  -4    5.82    2.39
 -22  -2  -4    8.01    1.36
 -22  -2  -4    3.16    2.14
 -22  -2  -4    8.42    1.21
 -22  -2  -5    0.18    0.68
 -22  -2  -5   -0.10    0.77
 -22  -2  -5   -0.33    0.67
 -22  -2  -6   -0.13    0.63
 -22   2  -6    0.47    0.65
 -22   2  -6    0.67    0.77
 -22  -2  -6   -0.06    0.49
 -22  -2  -7    7.94    0.70
 -22   2  -7    9.23    0.77
 -22   4   6  163.41    5.92
 -22  -4   6  167.14    6.24
 -22  -4   5    7.96    1.29
 -22   4   5    8.88    1.29
 -22  -4   5    8.83    1.25
 -22   4   5    8.79    1.07
 -22  -4   4  287.55    9.94
 -22   4   4  268.90    9.59
 -22  -4   4  252.32    9.94
 -22   4   4  234.20    9.75
 -22   4   3   40.61    2.68
 -22  -4   3   45.02    2.91
 -22   4   3   44.82    3.00
 -22   4   3   44.44    2.87
 -22  -4   3   48.78    3.33
 -22   4   3   44.19    2.82
 -22  -4   3   44.99    2.93
 -22  -4   3   47.17    3.01
 -22   4   3   35.96    4.75
 -22  -4   3   39.51    5.01
 -22  -4   2  134.88    5.99
 -22   4   2  136.18    6.11
 -22   4   2  142.64    6.03
 -22  -4   2  142.66    6.08
 -22  -4   2  142.52    6.39
 -22   4   2  125.02    9.18
 -22  -4   2  150.59    6.15
 -22  -4   2  129.83    9.52
 -22  -4   1   33.90    3.46
 -22  -4   1   34.79    2.49
 -22   4   1   36.09    2.67
 -22   4   1   37.98    2.60
 -22   4   1   34.74    2.50
 -22  -4   1   35.24    2.53
 -22  -4   1   32.62    2.58
 -22  -4   1   37.37    2.55
 -22  -4   1   31.88    2.32
 -22   4   1   39.61    2.51
 -22  -4   0  747.51   24.45
 -22   4   0  716.75   24.36
 -22   4   0  769.80   24.36
 -22  -4   0  743.11   24.28
 -22  -4   0  740.77   24.14
 -22  -4   0  748.70   24.15
 -22  -4   0  751.30   24.18
 -22  -4   0  757.46   23.92
 -22   4   0  787.37   24.05
 -22  -4  -1  190.92    8.55
 -22   4  -1  182.08    7.35
 -22   4  -1  183.08   11.88
 -22  -4  -1  177.12   11.65
 -22   4  -1  189.64    7.49
 -22  -4  -1  187.94    7.45
 -22  -4  -1  178.80    7.21
 -22  -4  -1  173.97    7.04
 -22  -4  -1  180.74    7.04
 -22   4  -1  188.44    7.17
 -22   4  -1  172.17    6.81
 -22   4  -2   45.55    2.87
 -22   4  -2   52.86    2.98
 -22   4  -2   45.34    2.86
 -22   4  -2   38.21    5.29
 -22  -4  -2   47.26    2.96
 -22  -4  -2   49.82    5.83
 -22  -4  -2   47.57    2.73
 -22  -4  -2   40.66    2.75
 -22  -4  -3  631.55   19.79
 -22   4  -3  601.05   19.76
 -22   4  -3  589.70   19.67
 -22   4  -3  637.37   20.09
 -22   4  -3  588.78   20.33
 -22   4  -3  498.47   25.23
 -22  -4  -3  542.03   25.64
 -22  -4  -3  627.43   20.09
 -22  -4  -4    0.69    0.69
 -22   4  -4   -0.09    0.67
 -22   4  -4    0.80    0.84
 -22   4  -4    0.12    1.01
 -22  -4  -4    0.70    0.78
 -22  -4  -5    6.96    0.98
 -22   4  -5    7.59    1.05
 -22   4  -5   11.70    1.52
 -22  -4  -5   10.03    1.26
 -22  -4  -6    7.05    0.77
 -22   4  -6    8.08    0.84
 -22   4  -6    7.66    1.07
 -22  -4  -6    8.99    0.98
 -22  -6   6   58.53    2.46
 -22   6   6   60.19    2.54
 -22  -6   5  257.75    9.13
 -22   6   5  263.35    9.36
 -22   6   5  280.68    9.24
 -22  -6   4  145.39    5.95
 -22   6   4  155.70    6.32
 -22   6   4  148.88    6.06
 -22  -6   3  252.53    9.25
 -22  -6   2   35.40    2.38
 -22   6   2   34.49    2.51
 -22  -6   2   33.39    2.70
 -22  -6   1  133.11    5.57
 -22   6   1  130.13    6.01
 -22   6   1  133.82    5.79
 -22  -6   1  129.05    5.98
 -22   6   0  418.70   14.64
 -22  -6   0  403.78   14.39
 -22  -6   0  422.56   14.45
 -22   6  -1   69.57    3.39
 -22   6  -1   76.35    3.86
 -22   6  -1   76.80    4.16
 -22  -6  -1   70.37    3.67
 -22  -6  -1   67.53    3.76
 -22   6  -2   14.61    1.49
 -22   6  -2   12.22    1.36
 -22   6  -2   12.37    1.63
 -22  -6  -2   12.05    1.44
 -22   6  -3   25.20    2.03
 -22   6  -3   28.54    2.42
 -22  -6  -3   23.81    1.86
 -22   6  -4   97.14    4.64
 -22   6  -4   94.78    4.35
 -22   6  -5  253.26    8.97
 -22   8   5  170.65    5.85
 -22   8   4  101.16    4.36
 -22   8   4  101.50    4.21
 -22   8   3  325.13   11.33
 -22   8   3  316.27   11.04
 -22   8   2  203.28    7.74
 -22   8   2  192.20    7.32
 -22  -8   2  187.86    7.59
 -22  -8   2  181.69    7.33
 -22   8   1   56.48    3.43
 -22   8   1   57.38    3.16
 -22  -8   1   58.69    3.45
 -22  -8   1   60.78    3.35
 -22   8   0   23.77    1.88
 -22   8   0   21.34    2.03
 -22  -8   0   21.65    1.97
 -22  -8   0   23.88    1.96
 -22  -8   0   23.48    2.03
 -22   8  -1  189.77    7.40
 -22   8  -1  215.12    8.15
 -22  -8  -1  207.50    7.78
 -22  -8  -1  213.85    7.92
 -22  -8  -1  214.34    8.03
 -22   8  -2   42.40    2.35
 -22  -8  -2   43.80    2.68
 -22  -8  -2   44.55    2.69
 -22   8  -3   94.10    3.99
 -22   8  -3   93.18    4.27
 -22  -8  -3   94.01    4.19
 -22  -8  -3   89.77    4.00
 -22   8  -4    1.82    0.61
 -22   8  -4    1.73    0.67
 -22  -8  -4    1.92    0.64
 -22  -8  -5   26.88    1.43
 -22  10   3   99.93    3.84
 -22 -10   3   96.83    3.88
 -22  10   2    1.49    0.58
 -22  10   1  135.95    5.05
 -22 -10   1  137.63    5.16
 -22 -10   1  138.17    4.95
 -22  10   0    1.07    0.58
 -22 -10   0    0.87    0.65
 -22 -10   0    1.02    0.61
 -22  10  -1  172.96    6.47
 -22 -10  -1  184.22    6.52
 -22 -10  -1  189.88    6.74
 -22  10  -2    0.36    0.40
 -22 -10  -2    0.48    0.45
 -22 -10  -2    0.94    0.52
 -22 -10  -3   64.35    2.47
 -22 -10  -3   58.45    2.50
 -23  -1   7   28.29    1.47
 -23   1   7   25.48    1.51
 -23  -1   6    3.06    0.96
 -23   1   6    2.39    0.86
 -23   1   6    4.29    0.81
 -23  -1   6    4.81    0.92
 -23   1   5  157.82    6.22
 -23  -1   5  146.81    6.27
 -23  -1   5  152.64    6.75
 -23   1   4   33.83    2.45
 -23  -1   4   32.21    2.50
 -23  -1   4   30.65    2.72
 -23   1   3   29.53    2.37
 -23  -1   3   31.62    2.44
 -23  -1   3   30.16    2.13
 -23   1   3   30.27    2.17
 -23   1   3   33.01    4.80
 -23  -1   3   36.64    2.87
 -23   1   2   23.36    2.05
 -23  -1   2   19.22    1.94
 -23  -1   2   20.05    1.81
 -23   1   2   19.69    1.74
 -23   1   2   19.76    1.94
 -23  -1   2   18.17    1.63
 -23   1   2   22.07    3.94
 -23  -1   2   20.91    1.91
 -23   1   1  407.36   14.69
 -23  -1   1  429.66   14.58
 -23   1   1  448.36   14.86
 -23   1   1  420.09   14.36
 -23   1   1  431.89   14.69
 -23   1   1  409.14   19.58
 -23  -1   1  405.49   14.02
 -23  -1   1  430.90   14.41
 -23  -1   0  115.96    5.34
 -23   1   0  119.01    5.21
 -23   1   0  116.98    5.37
 -23  -1   0  108.77    4.77
 -23  -1   0  121.89    5.20
 -23  -1  -1  548.97   17.38
 -23   1  -1  521.93   17.29
 -23  -1  -1  507.90   16.87
 -23   1  -1  489.50   16.99
 -23   1  -1  520.82   17.30
 -23  -1  -1  475.34   16.43
 -23   1  -1  527.15   24.07
 -23  -1  -1  499.79   17.13
 -23  -1  -2    5.95    1.20
 -23  -1  -2    6.19    2.25
 -23   1  -2    5.71    1.20
 -23   1  -2    6.33    2.52
 -23  -1  -2    5.54    1.18
 -23   1  -2    5.48    1.25
 -23   1  -2    6.16    1.68
 -23  -1  -2    5.50    0.98
 -23  -1  -3  873.69   26.87
 -23  -1  -3  837.01   27.39
 -23   1  -3  793.13   26.91
 -23   1  -3  780.03   33.98
 -23  -1  -3  787.87   34.02
 -23  -1  -3  880.61   27.01
 -23   1  -3  841.70   27.14
 -23  -1  -3  809.40   26.29
 -23  -1  -4   12.67    1.57
 -23  -1  -4   13.55    1.69
 -23   1  -4   11.12    1.69
 -23  -1  -4   12.52    1.36
 -23  -1  -5  264.16    9.25
 -23  -1  -5  243.04    9.33
 -23   1  -5  253.62    9.51
 -23  -1  -5  239.39    8.70
 -23  -1  -6   28.84    1.85
 -23  -1  -7  181.64    5.96
 -23  -3   7   24.12    1.30
 -23  -3   6    5.84    0.96
 -23   3   6    4.98    0.88
 -23  -3   6    7.06    1.00
 -23   3   6    6.38    0.89
 -23   3   5   45.65    2.50
 -23   3   5   48.35    2.61
 -23   3   5   43.05    2.39
 -23  -3   5   52.11    3.17
 -23   3   5   50.54    3.08
 -23   3   4   35.44    2.33
 -23   3   4   35.25    2.37
 -23   3   4   34.37    2.31
 -23  -3   4   27.48    2.49
 -23   3   4   30.54    2.55
 -23   3   3  409.17   14.17
 -23  -3   3  404.05   14.28
 -23   3   3  416.57   14.23
 -23   3   3  421.29   14.22
 -23   3   3  418.42   14.35
 -23  -3   3  408.41   14.13
 -23   3   3  399.62   19.42
 -23  -3   3  396.58   19.52
 -23  -3   3  401.17   14.67
 -23   3   2  297.28   11.17
 -23  -3   2  306.33   11.24
 -23   3   2  311.61   11.23
 -23   3   2  321.17   11.27
 -23  -3   2  311.09   11.46
 -23   3   2  317.17   11.31
 -23  -3   2  317.76   11.37
 -23  -3   2  300.15   11.05
 -23   3   2  304.71   16.02
 -23  -3   2  303.52   16.05
 -23  -3   1   45.35    2.79
 -23  -3   1   48.32    3.06
 -23   3   1   47.29    3.00
 -23   3   1   47.47    3.03
 -23  -3   1   47.39    2.99
 -23  -3   1   45.83    2.94
 -23  -3   1   45.88    2.81
 -23  -3   1   41.92    2.71
 -23   3   1   42.83    2.77
 -23  -3   0   34.51    2.85
 -23   3   0   38.93    2.75
 -23   3   0   34.90    2.60
 -23   3   0   36.19    2.62
 -23  -3   0   32.10    2.51
 -23  -3   0   36.71    2.43
 -23  -3   0   34.88    2.39
 -23  -3   0   36.82    2.42
 -23   3   0   41.93    2.59
 -23   3  -1   62.19    6.78
 -23  -3  -1   60.07    4.84
 -23  -3  -1   50.64    6.14
 -23   3  -1   54.97    3.32
 -23   3  -1   57.52    3.45
 -23   3  -1   56.88    3.42
 -23  -3  -1   57.49    3.39
 -23  -3  -1   51.84    3.04
 -23  -3  -1   50.19    3.05
 -23   3  -1   54.77    3.28
 -23  -3  -2   72.97    3.72
 -23   3  -2   74.49    3.80
 -23  -3  -2   57.04    5.89
 -23   3  -2   65.71    3.69
 -23   3  -2   71.62    4.86
 -23  -3  -2   69.78    4.38
 -23   3  -2   62.48    6.89
 -23  -3  -2   70.96    7.13
 -23  -3  -2   62.91    3.52
 -23  -3  -3  182.76    7.14
 -23   3  -3  185.42    7.18
 -23   3  -3  174.83    7.13
 -23  -3  -3  165.39    6.83
 -23   3  -3  173.80   12.08
 -23  -3  -3  172.36   12.09
 -23  -3  -3  175.19    7.06
 -23  -3  -4   12.17    1.50
 -23   3  -4   11.19    1.41
 -23   3  -4   14.01    1.64
 -23  -3  -4   13.53    1.46
 -23   3  -4   12.31    1.75
 -23  -3  -4   14.10    1.52
 -23  -3  -5  482.84   15.38
 -23   3  -5  462.61   15.37
 -23   3  -5  467.04   15.82
 -23  -3  -5  455.68   15.31
 -23  -3  -6   58.63    2.65
 -23   3  -6   61.19    2.72
 -23   3  -6   63.24    3.04
 -23  -3  -6   56.80    2.62
 -23  -5   6    4.67    0.66
 -23   5   6    4.17    0.54
 -23  -5   5    4.12    0.87
 -23   5   5    4.16    0.84
 -23   5   5    3.48    0.73
 -23  -5   4   18.06    1.69
 -23   5   4   16.41    1.70
 -23   5   4   16.29    1.56
 -23   5   4   16.30    1.42
 -23  -5   4   13.37    1.38
 -23  -5   3   57.05    3.29
 -23   5   3   60.44    3.51
 -23   5   3   53.47    3.23
 -23   5   3   54.28    3.09
 -23  -5   3   62.94    3.30
 -23  -5   3   57.58    3.65
 -23  -5   3   59.17    3.42
 -23  -5   2   83.85    4.18
 -23   5   2   83.61    4.40
 -23   5   2   88.58    4.35
 -23   5   2   79.68    4.05
 -23  -5   2   82.95    4.12
 -23  -5   2   84.38    4.52
 -23  -5   2   85.17    4.31
 -23  -5   1  179.69    7.28
 -23   5   1  176.79    7.56
 -23   5   1  186.32    7.45
 -23   5   1  194.26    7.35
 -23  -5   1  186.63    7.34
 -23  -5   1  186.92    7.59
 -23  -5   1  179.13    7.36
 -23   5   0  200.48    7.77
 -23  -5   0  202.04    7.78
 -23  -5   0  201.77    7.84
 -23  -5   0  195.80    7.81
 -23  -5   0  208.16    7.93
 -23  -5   0  194.10    7.40
 -23   5   0  198.80    7.45
 -23   5  -1  337.47   11.66
 -23   5  -1  329.73   11.84
 -23   5  -1  327.19   11.69
 -23  -5  -1  312.20   11.45
 -23  -5  -1  321.08   11.51
 -23  -5  -1  333.42   11.46
 -23  -5  -1  309.28   10.99
 -23   5  -1  317.64   11.10
 -23   5  -1  315.51   10.94
 -23   5  -2  384.03   13.01
 -23   5  -2  365.76   13.02
 -23  -5  -2  388.13   13.32
 -23  -5  -2  376.78   12.94
 -23  -5  -2  374.03   12.75
 -23   5  -2  392.65   12.92
 -23   5  -3   62.25    3.37
 -23   5  -3   67.94    3.87
 -23  -5  -3   72.75    3.68
 -23  -5  -3   56.90    3.09
 -23   5  -3   60.91    3.25
 -23   5  -3   64.19    3.45
 -23   5  -4  182.71    6.92
 -23   5  -4  191.27    7.60
 -23  -5  -4  204.42    7.42
 -23  -5  -4  179.32    6.78
 -23   5  -5  140.15    5.69
 -23  -5  -5  140.27    5.48
 -23   5  -6   97.32    3.67
 -23  -5  -6   92.56    3.56
 -23   7   5    4.88    0.76
 -23   7   5    4.91    0.68
 -23   7   3   41.53    2.58
 -23   7   2    7.18    1.31
 -23   7   2    6.25    1.20
 -23  -7   2    7.89    1.37
 -23  -7   2    5.68    1.23
 -23   7   1   16.56    1.82
 -23  -7   1   12.99    1.59
 -23  -7   1   11.74    1.54
 -23   7   0  414.61   13.90
 -23   7   0  410.42   14.16
 -23  -7   0  387.64   13.83
 -23  -7   0  401.68   13.87
 -23  -7   0  401.82   13.93
 -23   7  -1   40.77    2.51
 -23   7  -1   40.67    2.83
 -23  -7  -1   38.03    2.42
 -23  -7  -1   38.74    2.62
 -23  -7  -1   40.97    2.63
 -23   7  -2  158.36    6.11
 -23  -7  -2  166.56    6.63
 -23  -7  -2  161.29    6.41
 -23   7  -3   73.43    3.47
 -23   7  -3   81.21    3.96
 -23  -7  -3   74.20    3.72
 -23  -7  -3   71.48    3.38
 -23   7  -4  294.85   10.41
 -23  -7  -4  310.19   10.38
 -23   7  -5  132.83    5.03
 -23  -7  -5  159.05    5.25
 -23   9   4   45.79    2.13
 -23   9   3    2.40    0.70
 -23   9   2  186.37    6.82
 -23  -9   2  169.81    6.73
 -23   9   1    2.95    0.75
 -23   9   1    1.31    0.77
 -23  -9   1    2.15    0.83
 -23  -9   1    1.16    0.76
 -23   9   0  433.83   13.76
 -23  -9   0  422.95   13.61
 -23  -9   0  438.59   13.65
 -23  -9  -1   32.59    2.06
 -23  -9  -1   31.15    2.10
 -23   9  -2  271.73    9.19
 -23  -9  -2  264.09    9.09
 -23  -9  -2  258.58    9.08
 -23   9  -3    5.55    0.75
 -23  -9  -3    6.47    0.75
 -23  -9  -4  147.55    4.97
 -23 -11   1   36.36    1.71
 -24   0   7    0.04    0.30
 -24   0   6  421.36   13.07
 -24   0   6  367.93   13.39
 -24   0   5    0.83    0.86
 -24   0   5    0.87    0.74
 -24   0   4  890.89   24.17
 -24   0   4  787.06   24.55
 -24   0   3   -1.09    1.02
 -24   0   3    1.20    0.84
 -24   0   3    0.09    0.70
 -24   0   2  129.74    5.78
 -24   0   2  138.13    5.80
 -24   0   2  118.37    5.69
 -24   0   2  121.38    5.59
 -24   0   1    0.59    0.70
 -24   0   1    0.44    0.84
 -24   0   1   -0.22    0.80
 -24   0   1    0.50    0.61
 -24   0   1    0.11    0.72
 -24   0   0   96.51    4.66
 -24   0   0   83.48    4.15
 -24   0   0   86.77    4.54
 -24   0   0   93.40    4.40
 -24   0  -1    0.32    0.74
 -24   0  -1   -0.11    0.80
 -24   0  -1    1.57    1.85
 -24   0  -2   58.38    3.41
 -24   0  -2   64.06    3.74
 -24   0  -2   56.62    3.43
 -24   0  -2   57.13    3.77
 -24   0  -3    0.32    0.78
 -24   0  -3    0.11    3.89
 -24   0  -3   -0.12    0.89
 -24   0  -3   -0.07    0.47
 -24   0  -3   -2.70    1.35
 -24   0  -4  261.89    9.58
 -24   0  -4  245.75    9.66
 -24   0  -5    0.75    0.73
 -24   0  -5    0.29    0.82
 -24   0  -6   94.74    3.90
 -24   0  -6   94.77    4.04
 -24   2   6  179.71    6.47
 -24   2   6  195.91    6.97
 -24  -2   6  182.97    7.15
 -24   2   6  180.31    7.11
 -24  -2   5    0.55    0.78
 -24   2   5    0.76    0.79
 -24   2   5    2.53    0.78
 -24  -2   5    0.89    0.82
 -24   2   4  368.17   12.40
 -24  -2   4  362.07   12.57
 -24   2   4  338.71   11.96
 -24  -2   4  346.84   12.95
 -24   2   4  354.12   12.98
 -24   2   3  246.11    9.11
 -24   2   3  232.74    8.77
 -24   2   3  250.27    9.27
 -24  -2   3  241.68    9.20
 -24   2   3  222.08   13.47
 -24  -2   3  204.14   13.19
 -24  -2   3  221.53    9.41
 -24   2   2  519.59   17.51
 -24  -2   2  482.96   16.85
 -24   2   2  541.43   17.32
 -24   2   2  529.25   17.52
 -24  -2   2  522.47   17.53
 -24  -2   2  517.80   17.06
 -24   2   2  506.78   22.88
 -24  -2   2  488.32   22.80
 -24  -2   1  325.25   12.08
 -24  -2   1  346.21   11.93
 -24   2   1  350.27   12.31
 -24   2   1  324.36   11.90
 -24   2   1  352.30   12.25
 -24  -2   1  327.67   12.13
 -24  -2   1  326.82   11.65
 -24  -2   1  337.90   11.86
 -24   2   1  344.02   11.95
 -24  -2   0  185.55    7.27
 -24   2   0  180.53    7.41
 -24   2   0  171.50    7.13
 -24   2   0  174.61    7.33
 -24  -2   0  171.30    7.26
 -24  -2   0  169.57    6.76
 -24  -2   0  170.90    6.96
 -24   2   0  188.43    7.17
 -24   2  -1  458.86   22.54
 -24  -2  -1  418.98   21.72
 -24  -2  -1  482.22   16.32
 -24   2  -1  473.85   16.20
 -24   2  -1  479.83   16.11
 -24   2  -1  471.36   16.22
 -24  -2  -1  472.72   16.22
 -24  -2  -1  461.36   15.62
 -24  -2  -1  479.47   15.95
 -24   2  -1  463.82   16.06
 -24  -2  -2   69.99    3.66
 -24   2  -2   68.14    3.66
 -24   2  -2   61.30    3.60
 -24  -2  -2   63.06    3.38
 -24   2  -2   66.80    4.41
 -24  -2  -2   57.45    3.99
 -24   2  -2   55.61    6.63
 -24  -2  -2   50.32    6.29
 -24  -2  -2   59.04    3.25
 -24  -2  -3    5.88    1.17
 -24   2  -3    8.05    1.32
 -24   2  -3    8.69    2.61
 -24   2  -3    6.86    2.37
 -24  -2  -3    6.78    2.42
 -24  -2  -3    6.42    1.19
 -24   2  -3    6.36    1.35
 -24  -2  -3    8.40    1.19
 -24  -2  -4   66.24    3.50
 -24   2  -4   63.13    3.47
 -24  -2  -4   60.76    3.41
 -24   2  -4   64.14    3.74
 -24  -2  -4   59.63    3.21
 -24  -2  -5   27.25    1.96
 -24   2  -5   26.11    1.94
 -24  -2  -5   25.52    1.94
 -24  -2  -5   26.63    1.78
 -24  -2  -6   29.58    1.70
 -24   2  -6   28.92    1.71
 -24   4   6  181.86    6.23
 -24  -4   6  198.53    6.40
 -24  -4   5   87.11    3.88
 -24   4   5   83.19    3.64
 -24   4   5   82.33    3.63
 -24  -4   5   80.28    3.71
 -24  -4   4  150.81    6.07
 -24   4   4  142.29    5.88
 -24   4   4  141.74    5.80
 -24   4   4  142.85    5.84
 -24  -4   4  137.69    5.88
 -24  -4   3  144.91    5.99
 -24   4   3  135.75    5.83
 -24   4   3  151.26    5.93
 -24   4   3  127.24    5.67
 -24  -4   3  114.55    5.58
 -24  -4   2  485.89   16.49
 -24   4   2  487.81   16.63
 -24   4   2  500.08   16.53
 -24  -4   2  479.20   16.51
 -24  -4   2  493.26   16.77
 -24  -4   2  480.19   16.37
 -24  -4   1  183.18    8.05
 -24  -4   1  194.04    7.72
 -24   4   1  188.46    7.81
 -24   4   1  192.37    7.70
 -24  -4   1  200.65    7.81
 -24  -4   1  199.49    7.81
 -24  -4   1  193.55    7.60
 -24  -4   1  186.20    7.39
 -24   4   1  204.47    7.55
 -24  -4   0  187.38    8.68
 -24   4   0  201.51    7.96
 -24   4   0  201.43    7.94
 -24   4   0  195.75    7.75
 -24  -4   0  199.34    7.80
 -24  -4   0  185.81    7.46
 -24  -4   0  189.67    7.56
 -24  -4   0  193.82    7.41
 -24   4   0  200.35    7.50
 -24  -4  -1  221.56    9.46
 -24   4  -1  221.97    8.38
 -24   4  -1  207.46    8.40
 -24   4  -1  223.26    8.48
 -24  -4  -1  216.83    8.38
 -24  -4  -1  206.30    8.08
 -24  -4  -1  197.09    7.79
 -24  -4  -1  194.34    7.80
 -24   4  -1  223.47    8.06
 -24   4  -2  177.59   12.11
 -24  -4  -2  174.30   11.89
 -24   4  -2  196.49    7.67
 -24  -4  -2  190.57    7.60
 -24  -4  -2  202.28    7.53
 -24   4  -2  198.62    7.62
 -24   4  -3  364.43   12.14
 -24   4  -3  334.69   12.01
 -24   4  -3  356.66   12.63
 -24  -4  -3  364.52   12.23
 -24  -4  -3  319.76   11.88
 -24  -4  -4   63.86    3.21
 -24   4  -4   63.27    3.22
 -24   4  -4   56.97    3.49
 -24  -4  -4   65.15    3.34
 -24   4  -5   47.91    2.41
 -24   4  -5   47.50    2.75
 -24  -4  -5   46.32    2.48
 -24  -4  -5   45.58    2.36
 -24   4  -6   30.53    1.66
 -24  -4  -6   24.35    1.37
 -24  -6   5  225.83    7.72
 -24   6   5  231.79    7.87
 -24  -6   4   81.30    3.71
 -24   6   4   83.10    3.92
 -24   6   4   86.29    3.82
 -24  -6   3  297.62   10.41
 -24   6   3  300.11   10.79
 -24  -6   3  295.15   10.89
 -24  -6   2  170.31    6.76
 -24   6   2  171.12    6.96
 -24  -6   2  182.70    7.31
 -24  -6   1  407.27   14.17
 -24   6   0   77.68    3.98
 -24   6   0   70.39    4.07
 -24  -6   0   78.44    3.89
 -24   6  -1  401.02   13.83
 -24   6  -1  412.87   14.28
 -24  -6  -1  403.81   13.81
 -24   6  -2  151.35    5.91
 -24  -6  -2  145.65    5.88
 -24   6  -3   84.12    4.24
 -24   6  -4   49.91    2.87
 -24   6  -5  122.71    4.70
 -24   8   3  284.67    9.67
 -24   8   3  268.71    9.40
 -24   8   2  151.72    5.96
 -24  -8   2  137.51    5.82
 -24  -8   2  140.43    5.66
 -24   8   1  312.43   10.85
 -24   8   1  331.22   11.17
 -24  -8   1  292.27   10.83
 -24  -8   1  312.50   10.84
 -24   8   0   33.77    2.14
 -24   8   0   33.77    2.38
 -24  -8   0   30.03    2.13
 -24  -8   0   35.32    2.31
 -24   8  -1  209.65    7.82
 -24   8  -1  240.28    8.55
 -24  -8  -1  238.53    8.37
 -24  -8  -1  234.60    8.34
 -24   8  -2   54.14    3.01
 -24  -8  -2   56.11    2.91
 -24  -8  -2   51.73    2.72
 -24   8  -3  335.64   11.57
 -24  -8  -3  360.05   11.57
 -24   8  -4   75.35    3.20
 -24  -8  -4   97.50    3.44
 -24  10   2   29.23    1.59
 -24 -10   2   31.07    1.66
 -24  10   1  373.85   11.72
 -24 -10   1  353.04   11.68
 -24 -10   0   43.65    2.15
 -24 -10   0   53.37    2.31
 -24  10  -1   96.01    3.78
 -24 -10  -1  110.51    3.93
 -24 -10  -2    2.90    0.49
 -25   1   6   11.11    0.97
 -25  -1   6   12.19    1.14
 -25   1   6   10.64    1.10
 -25  -1   5    7.49    1.30
 -25   1   5   11.27    1.26
 -25  -1   5    9.55    1.24
 -25   1   4  398.78   13.45
 -25  -1   4  410.62   13.56
 -25   1   4  376.84   12.96
 -25  -1   4  363.81   13.85
 -25   1   3    4.00    1.11
 -25  -1   3    3.19    0.99
 -25  -1   3    1.71    0.63
 -25   1   3    2.08    0.86
 -25   1   3    2.07    0.65
 -25   1   3    2.25    0.96
 -25   1   3    4.56    1.98
 -25   1   2    2.82    0.98
 -25  -1   2    3.70    1.11
 -25  -1   2    2.10    0.89
 -25   1   2    3.21    1.00
 -25   1   2    3.04    0.79
 -25   1   2    2.71    1.01
 -25   1   2    4.06    1.96
 -25  -1   2    3.41    0.77
 -25  -1   1   38.39    2.66
 -25   1   1   38.41    2.83
 -25   1   1   32.76    2.40
 -25   1   1   39.11    2.85
 -25  -1   1   40.64    2.47
 -25  -1   1   42.42    2.77
 -25  -1   0   18.67    1.87
 -25   1   0   16.63    1.69
 -25   1   0   16.09    1.77
 -25  -1   0   15.67    1.42
 -25  -1   0   17.51    1.71
 -25  -1  -1  467.31   15.77
 -25   1  -1  485.08   22.65
 -25   1  -1  474.55   15.69
 -25  -1  -1  441.61   21.87
 -25  -1  -1  449.96   15.13
 -25   1  -1  452.44   15.62
 -25  -1  -1  421.96   14.71
 -25  -1  -1  447.20   15.35
 -25  -1  -2   17.42    1.85
 -25  -1  -2   21.33    4.05
 -25   1  -2   16.40    1.90
 -25  -1  -2   18.34    1.82
 -25   1  -2   19.65    1.99
 -25   1  -2   18.23    2.98
 -25  -1  -2   17.63    1.51
 -25   1  -2   21.65    4.28
 -25  -1  -3  178.94    7.13
 -25  -1  -3  182.07    8.19
 -25   1  -3  172.76    7.99
 -25  -1  -3  171.64    7.06
 -25   1  -3  176.29    7.31
 -25  -1  -3  164.28    6.52
 -25  -1  -4    1.30    0.87
 -25  -1  -4   -0.20    0.79
 -25   1  -4    0.43    0.94
 -25  -1  -4    0.73    0.49
 -25  -1  -5  240.04    8.46
 -25  -1  -5  233.49    8.48
 -25   1  -5  228.76    8.63
 -25  -1  -6   36.57    1.92
 -25   1  -6   39.82    2.09
 -25  -3   6    2.33    0.61
 -25   3   6    1.99    0.47
 -25  -3   6    1.74    0.49
 -25   3   5   12.55    1.31
 -25  -3   5   17.73    1.53
 -25   3   4   41.95    2.49
 -25   3   4   41.08    2.47
 -25   3   4   42.21    2.67
 -25  -3   4   43.76    2.77
 -25   3   3  112.96    5.28
 -25  -3   3  126.00    5.61
 -25   3   3  118.91    5.30
 -25   3   3  134.66    5.64
 -25  -3   3  125.85    5.60
 -25  -3   2   12.01    1.55
 -25   3   2   11.08    1.41
 -25   3   2   11.56    1.55
 -25  -3   2   10.03    1.44
 -25  -3   2    7.56    1.24
 -25  -3   1  145.34    6.24
 -25  -3   1  146.22    6.41
 -25   3   1  151.16    6.39
 -25   3   1  151.83    6.44
 -25  -3   1  151.30    6.49
 -25  -3   1  141.76    6.06
 -25  -3   1  152.74    6.20
 -25   3   1  153.27    6.27
 -25  -3   0   77.56    5.00
 -25   3   0   82.60    4.42
 -25   3   0   84.95    4.30
 -25   3   0   86.95    4.38
 -25  -3   0   89.29    4.42
 -25  -3   0   79.81    3.99
 -25  -3   0   82.56    4.04
 -25   3   0   85.01    4.13
 -25   3  -1   13.35    1.69
 -25  -3  -1   12.97    4.97
 -25   3  -1   14.19    1.77
 -25   3  -1   15.44    1.76
 -25  -3  -1   13.07    1.66
 -25  -3  -1   11.48    1.42
 -25  -3  -1   13.32    1.50
 -25   3  -1   14.61    1.57
 -25  -3  -2   27.11    4.43
 -25   3  -2   28.52    2.22
 -25  -3  -2   32.64    2.24
 -25  -3  -2   27.48    2.17
 -25   3  -2   29.87    2.30
 -25  -3  -3  209.29    8.09
 -25   3  -3  195.41    8.21
 -25   3  -3  208.78    8.42
 -25  -3  -3  210.26    7.96
 -25  -3  -4  130.83    5.42
 -25   3  -4  134.10    5.46
 -25  -3  -4  127.93    5.31
 -25  -3  -5  184.46    6.47
 -25   3  -5  177.31    6.44
 -25   3  -5  175.24    6.75
 -25  -3  -5  166.12    6.25
 -25  -3  -6   42.88    1.96
 -25   3  -6   50.72    2.13
 -25  -5   5    6.88    0.90
 -25   5   5    4.90    0.74
 -25  -5   4    1.32    0.68
 -25   5   4    1.08    0.64
 -25   5   4    0.87    0.64
 -25  -5   3    5.48    1.05
 -25   5   3    5.13    1.02
 -25   5   3    3.74    0.89
 -25   5   3    3.05    0.75
 -25  -5   3    3.79    0.84
 -25  -5   2   37.83    2.54
 -25   5   2   38.94    2.71
 -25   5   2   35.71    2.37
 -25  -5   2   34.01    2.35
 -25  -5   2   40.42    2.80
 -25  -5   2   34.17    2.48
 -25   5   1   33.20    2.57
 -25   5   1   32.80    2.31
 -25  -5   1   35.55    2.40
 -25  -5   1   38.55    2.63
 -25  -5   1   35.01    2.48
 -25   5   0   67.80    3.71
 -25   5   0   63.35    3.46
 -25  -5   0   69.00    3.55
 -25  -5   0   63.72    3.37
 -25  -5   0   68.97    3.57
 -25  -5   0   63.93    3.21
 -25   5   0   62.24    3.20
 -25   5  -1  175.71    7.03
 -25  -5  -1  176.34    6.97
 -25  -5  -1  171.91    6.54
 -25   5  -1  172.91    6.58
 -25   5  -2  140.45    5.84
 -25  -5  -2  155.78    6.12
 -25  -5  -2  140.08    5.55
 -25   5  -2  142.10    5.63
 -25   5  -3  125.90    5.52
 -25   5  -3  139.63    6.02
 -25  -5  -3  144.26    5.79
 -25  -5  -3  140.38    5.29
 -25   5  -3  142.08    5.39
 -25   5  -4  158.25    6.47
 -25  -5  -4  169.69    6.30
 -25   5  -5  147.86    5.49
 -25  -5  -5  141.20    5.22
 -25   7   5   -0.21    0.28
 -25   7   5    0.25    0.27
 -25   7   4   23.10    1.60
 -25  -7   2   48.22    2.90
 -25   7   1   67.74    3.57
 -25   7   1   71.95    3.74
 -25  -7   1   68.64    3.58
 -25   7   0   83.91    4.02
 -25   7   0   88.97    4.32
 -25  -7   0   83.08    3.90
 -25   7  -1    3.56    0.79
 -25   7  -1    4.34    1.06
 -25   7  -2  155.17    6.17
 -25  -7  -2  141.48    5.55
 -25   7  -3  135.70    5.51
 -25   7  -4   65.40    2.95
 -25   9   3   -0.20    0.37
 -25   9   3    0.26    0.40
 -25   9   2  144.42    5.45
 -25   9   2  163.25    5.72
 -25  -9   2  152.08    5.60
 -25   9   1    4.03    0.71
 -25   9   1    3.01    0.78
 -25  -9   1    4.52    0.82
 -25  -9   1    4.39    0.76
 -25   9   0   13.62    1.25
 -25  -9   0   13.66    1.19
 -25   9  -1   33.65    1.99
 -25  -9  -1   34.39    1.95
 -25   9  -2   91.98    3.72
 -25  -9  -2   98.64    3.77
 -25  -9  -3    1.07    0.38
 -26   0   6  590.88   18.35
 -26   0   6  591.64   18.53
 -26   0   5    1.26    0.72
 -26   0   5    0.32    0.62
 -26   0   4   36.18    2.48
 -26   0   4   35.43    2.57
 -26   0   3    0.11    0.83
 -26   0   3    0.26    0.66
 -26   0   3    0.99    0.80
 -26   0   2  210.98    8.48
 -26   0   2  214.47    8.32
 -26   0   2  218.37    8.58
 -26   0   1    0.40    0.73
 -26   0   1    0.77    0.81
 -26   0   1    1.27    0.86
 -26   0   0  100.61    4.85
 -26   0   0   86.77    4.63
 -26   0   0   95.73    4.52
 -26   0  -1    0.10    0.77
 -26   0  -1    0.54    1.35
 -26   0  -1    0.70    0.79
 -26   0  -1    0.58    1.02
 -26   0  -2  548.05   17.94
 -26   0  -2  531.28   17.59
 -26   0  -2  519.11   17.99
 -26   0  -2  494.40   24.12
 -26   0  -2  501.97   17.57
 -26   0  -3    0.91    0.87
 -26   0  -3   -0.96    3.58
 -26   0  -3    1.14    0.78
 -26   0  -4  374.72   12.73
 -26   0  -4  361.12   12.75
 -26   0  -5    0.54    0.65
 -26   0  -5   -0.15    0.65
 -26   0  -6  125.42    4.52
 -26   2   6   39.22    2.02
 -26  -2   6   41.46    2.05
 -26   2   5    2.27    0.63
 -26  -2   5    1.12    0.67
 -26   2   5    1.96    0.73
 -26  -2   5    1.87    0.70
 -26   2   4   90.79    4.12
 -26  -2   4   92.18    4.33
 -26   2   4   83.12    3.89
 -26   2   4   90.36    4.30
 -26  -2   4   79.02    4.17
 -26   2   3  191.85    7.57
 -26   2   3  200.25    7.59
 -26   2   3  172.11    7.05
 -26   2   3  197.91    7.72
 -26  -2   3  199.06    7.75
 -26  -2   2  263.83    9.58
 -26   2   2  295.29   10.35
 -26   2   2  265.58    9.77
 -26   2   2  261.92   10.15
 -26  -2   2  282.39   10.29
 -26  -2   2  264.30    9.60
 -26  -2   1  299.47   10.65
 -26  -2   1  297.39   10.94
 -26   2   1  319.63   11.12
 -26   2   1  283.93   10.58
 -26   2   1  291.18   10.88
 -26  -2   1  290.89   10.90
 -26  -2   1  286.08   10.27
 -26  -2   1  289.76   10.56
 -26   2   1  293.66   10.64
 -26  -2   0  424.36   14.10
 -26   2   0  396.92   14.11
 -26   2   0  405.96   13.89
 -26   2   0  392.39   14.05
 -26  -2   0  382.76   14.03
 -26  -2   0  386.74   13.40
 -26  -2   0  394.51   13.67
 -26   2   0  424.32   13.91
 -26  -2  -1   29.91    4.28
 -26   2  -1   33.69    2.59
 -26   2  -1   37.20    2.73
 -26  -2  -1   39.03    2.78
 -26  -2  -1   33.58    2.26
 -26  -2  -1   38.38    2.53
 -26   2  -1   38.34    2.63
 -26   2  -2  496.40   16.78
 -26   2  -2  495.12   16.87
 -26  -2  -2  474.36   16.13
 -26  -2  -2  489.59   16.62
 -26   2  -2  518.19   16.83
 -26  -2  -3   15.33    1.68
 -26   2  -3   20.79    1.85
 -26   2  -3   17.21    3.48
 -26  -2  -3   18.47    1.62
 -26   2  -3   14.53    1.76
 -26  -2  -3   17.56    1.52
 -26  -2  -4  297.38   10.08
 -26   2  -4  284.38   10.02
 -26   2  -4  293.19   10.34
 -26  -2  -4  263.22    9.53
 -26  -2  -5    4.21    0.81
 -26   2  -5    6.09    0.91
 -26   2  -5    6.67    1.05
 -26  -2  -6   45.69    2.06
 -26   2  -6   59.06    2.24
 -26  -4   6   18.56    1.11
 -26   4   5  339.51   11.52
 -26  -4   5  355.36   11.67
 -26  -4   4  264.72    9.24
 -26   4   4  258.81    8.97
 -26   4   4  252.74    8.99
 -26  -4   4  250.35    9.07
 -26  -4   3  253.71    9.26
 -26   4   3  248.03    9.12
 -26   4   3  246.49    9.08
 -26  -4   3  251.28    9.19
 -26  -4   2  167.23    6.67
 -26   4   2  152.18    6.51
 -26   4   2  161.90    6.52
 -26  -4   2  161.37    6.58
 -26  -4   2  153.19    6.34
 -26  -4   1  166.83    7.50
 -26   4   1  192.68    7.60
 -26   4   1  186.53    7.42
 -26   4   1  184.35    7.31
 -26  -4   1  182.17    7.31
 -26  -4   1  175.09    7.08
 -26   4   1  188.21    7.12
 -26  -4   0  464.81   15.93
 -26   4   0  478.65   15.90
 -26   4   0  457.39   15.76
 -26   4   0  468.10   15.68
 -26  -4   0  457.94   15.67
 -26  -4   0  457.69   15.40
 -26  -4   0  447.95   15.22
 -26   4   0  458.39   15.31
 -26   4  -1   67.48    3.71
 -26   4  -1   68.18    3.80
 -26   4  -1   73.16    4.39
 -26  -4  -1   71.52    3.99
 -26  -4  -1   70.94    3.62
 -26  -4  -1   68.37    3.42
 -26   4  -1   68.11    3.47
 -26   4  -2  180.93    7.11
 -26  -4  -2  176.94    7.02
 -26  -4  -2  182.62    6.91
 -26   4  -2  187.35    6.99
 -26   4  -3   91.11    4.68
 -26  -4  -3  102.95    4.46
 -26  -4  -3  100.22    4.29
 -26   4  -3  102.49    4.39
 -26   4  -4  155.94    6.23
 -26  -4  -4  156.42    5.87
 -26  -4  -4  156.35    5.73
 -26   4  -4  148.57    5.77
 -26  -4  -5    3.18    0.50
 -26   4  -5    3.33    0.57
 -26   4  -5    3.59    0.77
 -26  -4  -5    3.67    0.61
 -26   6   5  137.48    4.83
 -26   6   5  145.91    4.81
 -26  -6   4  161.17    5.83
 -26   6   4  163.99    6.00
 -26  -6   3  322.04   11.01
 -26   6   3  336.63   11.37
 -26   6   2   98.87    4.57
 -26  -6   2   98.79    4.56
 -26  -6   2   94.21    4.31
 -26   6   1  385.00   12.94
 -26  -6   1  364.80   12.67
 -26  -6   1  362.07   12.62
 -26   6   0  172.18    6.78
 -26  -6   0  165.03    6.61
 -26   6  -1  256.00    9.16
 -26   6  -1  250.05    9.46
 -26  -6  -1  257.95    9.24
 -26   6  -2   95.48    4.26
 -26   6  -2  110.02    4.88
 -26  -6  -2  105.79    4.55
 -26   6  -3  109.61    4.75
 -26  -6  -3  105.92    4.49
 -26   6  -4   49.65    2.58
 -26  -6  -4   49.86    2.42
 -26   6  -5   87.20    3.22
 -26  -6  -5   87.56    3.15
 -26   8   4   40.68    1.84
 -26   8   4   42.78    1.86
 -26   8   3  373.13   12.07
 -26   8   2   31.35    1.94
 -26   8   2   32.82    2.04
 -26   8   1  209.47    7.44
 -26   8   1  213.33    7.66
 -26  -8   1  198.37    7.36
 -26  -8   1  211.89    7.46
 -26   8   0   66.13    3.10
 -26   8   0   74.47    3.48
 -26  -8   0   73.78    3.34
 -26  -8  -1  320.37   10.76
 -26   8  -2   83.67    3.72
 -26  -8  -2   89.40    3.66
 -26   8  -3  194.69    6.61
 -26  -8  -3  190.57    6.58
 -27  -1   6    0.30    0.35
 -27   1   6   -0.20    0.40
 -27   1   5   57.76    2.79
 -27  -1   5   60.19    2.93
 -27   1   5   56.52    2.90
 -27   1   4   32.04    2.23
 -27  -1   4   31.59    2.28
 -27   1   4   28.44    2.17
 -27   1   3    5.32    1.15
 -27  -1   3    6.08    1.23
 -27   1   3    5.48    1.02
 -27   1   3    5.49    1.14
 -27   1   2   36.27    2.67
 -27  -1   2   41.37    2.85
 -27  -1   2   35.51    2.37
 -27   1   2   41.44    2.72
 -27   1   2   33.27    2.18
 -27   1   2   39.58    2.77
 -27  -1   1   11.27    1.43
 -27   1   1   12.74    1.60
 -27   1   1   10.45    1.27
 -27   1   1   10.73    1.55
 -27  -1   1   12.71    1.51
 -27  -1   0    0.85    0.79
 -27  -1   0    0.97    0.83
 -27   1   0    0.56    0.81
 -27  -1  -1   57.12    3.84
 -27   1  -1   53.03    3.26
 -27   1  -1   55.60    3.21
 -27   1  -1   53.38    3.32
 -27  -1  -1   42.65    2.48
 -27  -1  -1   48.55    2.99
 -27   1  -2   19.33    2.48
 -27  -1  -2   14.83    1.55
 -27   1  -2   18.44    1.83
 -27  -1  -2   15.93    1.33
 -27  -1  -2   21.03    1.91
 -27   1  -3  118.80    6.25
 -27  -1  -3  122.07    5.14
 -27   1  -3  121.97    5.38
 -27  -1  -3  110.11    5.24
 -27  -1  -4    0.64    0.74
 -27  -1  -4    0.30    0.63
 -27   1  -4   -0.43    0.68
 -27  -1  -5  146.56    5.48
 -27   1  -5  150.04    5.70
 -27  -1  -5  157.96    5.71
 -27  -1  -6    0.46    0.26
 -27  -3   6   51.86    2.13
 -27   3   5    7.36    0.86
 -27  -3   5    7.93    0.93
 -27   3   4    5.40    0.87
 -27   3   4    3.60    0.82
 -27  -3   4    4.93    0.97
 -27  -3   3   14.36    1.59
 -27   3   3   16.12    1.61
 -27   3   3   13.25    1.36
 -27   3   3   14.75    1.59
 -27  -3   3   16.10    1.69
 -27  -3   2   33.29    2.48
 -27   3   2   33.47    2.52
 -27   3   2   33.01    2.33
 -27   3   2   35.00    2.49
 -27  -3   2   38.69    2.62
 -27  -3   2   34.60    2.24
 -27  -3   1   74.52    4.65
 -27   3   1   72.58    3.81
 -27   3   1   74.18    3.94
 -27  -3   1   81.37    4.09
 -27  -3   1   73.91    3.61
 -27  -3   1   69.57    3.62
 -27   3   1   74.23    3.79
 -27  -3   0    0.09    0.63
 -27   3   0   -0.27    0.69
 -27  -3   0   -1.74    4.09
 -27   3   0   -0.33    0.80
 -27   3   0    0.20    0.82
 -27   3   0    0.85    0.80
 -27  -3   0    0.53    0.77
 -27  -3   0    1.73    0.71
 -27  -3  -1    4.96    0.98
 -27   3  -1    3.29    0.93
 -27  -3  -1    1.26    4.78
 -27   3  -1    3.06    0.99
 -27   3  -1    5.26    1.71
 -27  -3  -1    5.86    1.39
 -27  -3  -1    3.89    0.86
 -27   3  -2   42.96    2.81
 -27   3  -2   43.65    2.92
 -27  -3  -2   41.57    2.49
 -27  -3  -2   43.32    2.61
 -27   3  -2   44.03    2.64
 -27   3  -3  121.16    5.75
 -27   3  -3  131.77    5.63
 -27  -3  -3  125.85    5.09
 -27  -3  -3  126.82    5.22
 -27   3  -3  128.66    5.32
 -27  -3  -4   88.39    3.74
 -27  -3  -4   91.53    3.93
 -27   3  -4   98.80    4.06
 -27  -3  -5  111.81    4.18
 -27   3  -5  119.66    4.29
 -27  -5   5    4.36    0.58
 -27  -5   4    5.27    0.85
 -27   5   4    5.00    0.83
 -27   5   4    5.31    0.77
 -27  -5   3    8.91    1.16
 -27   5   3    8.83    1.12
 -27   5   2    5.84    1.15
 -27   5   2    6.96    1.16
 -27   5   2    5.40    0.82
 -27  -5   2    5.93    0.94
 -27  -5   2    7.08    1.06
 -27   5   1   15.88    1.68
 -27   5   1   14.76    1.64
 -27   5   1   13.79    1.42
 -27  -5   1   12.78    1.34
 -27  -5   1   15.77    1.53
 -27   5   0   63.42    3.43
 -27   5   0   54.43    3.31
 -27   5   0   65.98    3.57
 -27  -5   0   55.86    3.17
 -27  -5   0   62.09    3.21
 -27   5   0   60.82    2.98
 -27   5  -1  107.86    4.75
 -27  -5  -1  103.29    4.60
 -27  -5  -1  104.63    4.29
 -27   5  -1  105.34    4.32
 -27   5  -2   70.08    3.32
 -27  -5  -2   66.39    3.28
 -27  -5  -2   62.57    2.91
 -27   5  -2   64.33    2.97
 -27   5  -3   17.37    1.51
 -27   5  -3   19.44    1.74
 -27  -5  -3   16.73    1.44
 -27   5  -4   92.93    4.01
 -27  -5  -4   94.51    3.76
 -27   5  -5   96.99    3.62
 -27   7   4    5.79    0.71
 -27   7   4    6.66    0.68
 -27   7   3    8.98    1.01
 -27   7   3    6.10    0.86
 -27   7   2    1.06    0.68
 -27   7   1   28.53    1.96
 -27  -7   1   27.61    1.82
 -27   7   0   78.58    3.58
 -27   7   0   76.99    3.76
 -27   7  -1    9.67    0.99
 -27   7  -2  154.51    5.98
 -27   7  -3   66.03    3.00
 -27   7  -4   60.67    2.42
 -27   9   2    1.43    0.42
 -27   9   0   32.90    1.83
 -27  -9   0   38.94    1.82
 -27   9  -1   16.81    1.19
 -27  -9  -1   19.52    1.18
 -27  -9  -2   11.68    0.81
 -28   0   6  132.37    4.56
 -28   0   5    0.06    0.54
 -28   0   5    0.12    0.53
 -28   0   4  349.00   11.90
 -28   0   4  346.73   12.01
 -28   0   3    0.19    0.77
 -28   0   3    0.34    0.54
 -28   0   3   -0.50    0.90
 -28   0   2  426.80   14.29
 -28   0   2  413.57   14.60
 -28   0   1    0.19    0.78
 -28   0   1   -0.10    0.76
 -28   0   1    0.77    0.91
 -28   0   0  880.92   28.98
 -28   0   0  907.19   29.68
 -28   0   0  946.13   29.40
 -28   0  -1    0.57    0.77
 -28   0  -1    0.26    0.68
 -28   0  -1   -0.11    0.91
 -28   0  -2  431.94   15.59
 -28   0  -2  428.89   14.71
 -28   0  -2  452.65   14.92
 -28   0  -3    0.79    0.79
 -28   0  -3    1.02    0.73
 -28   0  -4  262.98    9.47
 -28   0  -4  287.28    9.67
 -28   0  -5    0.44    0.48
 -28   0  -5   -0.09    0.44
 -28  -2   5   24.81    1.62
 -28   2   5   24.13    1.56
 -28  -2   5   23.81    1.59
 -28  -2   4  301.02   10.20
 -28   2   4  282.14   10.07
 -28  -2   4  286.12   10.15
 -28   2   3   10.80    1.30
 -28  -2   3   10.52    1.38
 -28   2   3    9.35    1.34
 -28  -2   2  306.96   11.18
 -28   2   2  363.34   12.00
 -28   2   2  327.00   11.34
 -28   2   2  344.93   11.95
 -28  -2   2  339.66   11.96
 -28  -2   1   57.82    3.42
 -28   2   1   59.84    3.43
 -28   2   1   53.37    3.03
 -28   2   1   56.13    3.34
 -28  -2   1   64.71    3.52
 -28  -2   1   49.01    2.74
 -28  -2   1   54.76    3.11
 -28   2   1   57.22    3.21
 -28  -2   0  630.36   19.95
 -28   2   0  591.32   19.48
 -28   2   0  602.26   19.82
 -28  -2   0  600.17   19.85
 -28  -2   0  569.02   18.97
 -28  -2   0  597.49   19.40
 -28   2   0  605.71   19.52
 -28   2  -1   22.34    1.97
 -28  -2  -1   22.26    4.86
 -28   2  -1   17.11    1.79
 -28   2  -1   18.46    2.14
 -28  -2  -1   18.91    2.04
 -28  -2  -1   19.33    1.51
 -28  -2  -1   20.95    1.81
 -28   2  -1   19.69    1.79
 -28  -2  -2  673.37   21.54
 -28   2  -2  644.27   20.91
 -28   2  -2  644.91   20.90
 -28  -2  -2  598.76   20.08
 -28  -2  -2  661.56   20.68
 -28   2  -2  646.39   20.68
 -28  -2  -3    6.15    1.03
 -28   2  -3    5.56    1.00
 -28   2  -3    8.90    2.74
 -28   2  -3    6.33    1.19
 -28   2  -4  255.13    8.91
 -28  -2  -4  252.28    8.67
 -28   2  -4  241.63    8.67
 -28   2  -5   31.05    1.74
 -28  -2  -5   29.30    1.56
 -28   2  -5   28.89    1.58
 -28  -4   5  117.63    4.29
 -28   4   4  118.41    4.61
 -28   4   4  111.82    4.45
 -28  -4   4  113.02    4.52
 -28  -4   3  277.09    9.43
 -28   4   3  264.17    9.36
 -28   4   3  257.33    9.10
 -28   4   3  251.20    9.11
 -28  -4   3  267.40    9.26
 -28   4   2  518.34   16.66
 -28   4   2  507.13   16.58
 -28  -4   2  500.36   16.63
 -28  -4   2  497.34   16.38
 -28   4   1   15.59    1.73
 -28   4   1   15.33    1.61
 -28   4   1   15.14    1.54
 -28  -4   1   14.84    1.55
 -28  -4   1   14.84    1.44
 -28   4   0  345.29   11.93
 -28   4   0  317.54   11.71
 -28   4   0  328.13   11.68
 -28  -4   0  330.16   11.71
 -28  -4   0  338.05   11.46
 -28  -4   0  338.29   11.38
 -28   4   0  343.44   11.44
 -28   4  -1  126.77    5.52
 -28  -4  -1  133.84    5.36
 -28  -4  -1  136.53    5.30
 -28   4  -1  131.00    5.27
 -28   4  -2  225.49    8.36
 -28   4  -2  242.73    8.75
 -28  -4  -2  225.41    8.17
 -28  -4  -2  231.44    8.10
 -28   4  -2  227.36    8.12
 -28   4  -3   53.39    2.80
 -28  -4  -3   51.07    2.54
 -28  -4  -3   46.36    2.39
 -28   4  -3   49.35    2.47
 -28  -4  -4  198.99    6.66
 -28  -4  -4  194.81    6.50
 -28   4  -4  191.91    6.57
 -28   4  -5   12.57    0.96
 -28   6   4   24.36    1.38
 -28   6   4   22.40    1.28
 -28   6   3   44.31    2.31
 -28   6   2  219.46    7.90
 -28   6   2  212.99    7.83
 -28   6   1  216.02    7.96
 -28   6   1  216.56    8.00
 -28  -6   1  216.55    7.76
 -28   6   0  132.02    5.40
 -28  -6   0  136.23    5.33
 -28   6  -1  131.13    5.23
 -28  -6  -1  139.26    5.33
 -28   6  -2  111.05    4.51
 -28   6  -2  119.55    4.95
 -28  -6  -2  123.94    4.71
 -28   6  -3  111.01    4.52
 -28  -6  -3  113.55    4.30
 -28   6  -4   80.78    3.11
 -28  -6  -4   75.75    2.89
 -28   8   3  133.30    4.53
 -28   8   2   12.99    0.98
 -28   8   1  194.08    6.81
 -28   8   1  211.36    7.09
 -28   8   0   23.59    1.35
 -28   8  -1  260.19    8.78
 -28   8  -2   40.01    1.97
 -29  -1   5   38.35    1.97
 -29   1   5   38.01    1.99
 -29  -1   4   -0.14    0.66
 -29   1   4    0.37    0.64
 -29  -1   3   31.24    2.22
 -29   1   3   27.78    1.87
 -29   1   3   30.99    2.24
 -29  -1   2    4.96    0.92
 -29   1   2    5.89    1.04
 -29   1   2    5.56    1.12
 -29  -1   1    7.78    1.21
 -29  -1   1    5.80    1.15
 -29   1   1    4.70    1.11
 -29   1   1    4.03    1.05
 -29   1   0   10.94    1.53
 -29  -1   0   12.78    2.00
 -29   1   0   12.11    1.33
 -29   1   0   11.51    1.49
 -29  -1   0   11.70    1.40
 -29  -1  -1   36.34    4.48
 -29   1  -1   38.33    2.71
 -29   1  -1   34.73    2.35
 -29   1  -1   35.53    2.81
 -29  -1  -1   34.97    2.38
 -29   1  -2    9.79    3.48
 -29   1  -2   11.82    1.42
 -29  -1  -2   12.18    1.38
 -29   1  -3   51.20    3.39
 -29   1  -3   54.90    2.96
 -29  -1  -3   55.39    2.89
 -29   1  -4    7.43    0.97
 -29  -1  -4    7.71    0.96
 -29   1  -5  125.31    4.60
 -29  -1  -5  140.68    4.65
 -29  -3   5   14.57    0.98
 -29   3   4   21.82    1.40
 -29   3   4   23.72    1.57
 -29  -3   4   25.15    1.64
 -29  -3   3   11.63    1.32
 -29   3   3   11.57    1.24
 -29   3   3    9.72    1.23
 -29  -3   3   10.15    1.23
 -29   3   2    1.68    0.82
 -29   3   2    2.06    0.65
 -29   3   2    1.46    0.73
 -29  -3   2    1.15    0.75
 -29   3   1    8.63    1.14
 -29   3   1    8.62    1.20
 -29  -3   1    9.73    1.31
 -29  -3   1    8.44    1.03
 -29  -3   0    0.31    0.58
 -29   3   0    0.24    0.66
 -29   3   0   -0.67    0.85
 -29   3   0    0.38    0.72
 -29  -3   0    1.33    0.77
 -29  -3   0    0.81    0.59
 -29   3  -1    9.86    1.35
 -29   3  -1   11.25    1.41
 -29  -3  -1    9.56    2.38
 -29  -3  -1    9.72    1.07
 -29  -3  -1   11.68    1.24
 -29   3  -1   10.89    1.24
 -29  -3  -2    4.01    0.82
 -29   3  -2    4.53    0.84
 -29   3  -2    5.43    1.82
 -29   3  -2    3.75    0.96
 -29  -3  -2    5.15    0.80
 -29   3  -3  100.38    4.53
 -29   3  -3  111.56    4.69
 -29  -3  -3  110.12    4.35
 -29   3  -3  110.67    4.38
 -29  -3  -4    4.59    0.63
 -29   3  -4    3.89    0.63
 -29   3  -4    4.54    0.82
 -29   3  -5   37.27    1.70
 -29   5   4    3.51    0.55
 -29   5   3   12.74    1.18
 -29   5   3   10.32    1.02
 -29   5   2    0.41    0.59
 -29   5   1    1.79    0.76
 -29   5   1    1.39    0.71
 -29   5   1    1.98    1.15
 -29  -5   1    2.08    0.68
 -29   5   0   30.97    2.12
 -29   5   0   28.78    2.06
 -29  -5   0   28.79    1.87
 -29   5  -1    1.75    0.72
 -29   5  -1    1.33    0.83
 -29  -5  -1    2.18    0.67
 -29   5  -2   26.48    2.15
 -29  -5  -2   27.19    1.70
 -29  -5  -3    9.16    0.88
 -29   5  -4   23.53    1.35
 -29  -5  -4   18.39    1.04
 -29   7   3    8.61    0.77
 -29   7   3    6.97    0.68
 -29   7   2   28.82    1.67
 -29   7   2   31.18    1.72
 -29   7   1    0.05    0.49
 -29  -7   1    0.15    0.46
 -29   7   0   12.36    1.06
 -29  -7   0   14.15    1.15
 -29   7  -1    0.34    0.58
 -29   7  -1    0.18    0.59
 -29  -7  -1    0.88    0.49
 -29   7  -2   32.76    1.84
 -29  -7  -2   33.63    1.72
 -29   7  -3   64.33    2.52
 -29  -7  -3   60.29    2.36
 -30   0   5    0.70    0.40
 -30   0   4  213.03    7.59
 -30   0   3    0.90    0.68
 -30   0   2  564.75   18.14
 -30   0   2  565.63   18.60
 -30   0   1    0.58    0.71
 -30   0   1    1.03    0.74
 -30   0   1    0.87    0.81
 -30   0   0  852.91   26.42
 -30   0   0  797.45   26.43
 -30   0   0  833.08   26.16
 -30   0  -1    0.57    0.69
 -30   0  -1   -0.87    1.90
 -30   0  -2  289.45   11.15
 -30   0  -2  294.55   10.20
 -30   0  -3   -0.07    0.62
 -30   0  -4  339.62   11.05
 -30   0  -5    0.26    0.23
 -30   2   5    6.18    0.61
 -30  -2   5    6.55    0.65
 -30   2   4  291.43    9.75
 -30  -2   4  291.19    9.79
 -30   2   3   11.10    1.13
 -30   2   3   10.18    1.22
 -30  -2   3   10.99    1.24
 -30   2   2  493.77   16.03
 -30   2   2  467.47   16.08
 -30  -2   2  501.01   16.21
 -30  -2   1   48.32    3.89
 -30   2   1   47.11    2.83
 -30   2   1   46.95    2.84
 -30  -2   1   45.67    2.82
 -30  -2   0  318.88   11.38
 -30   2   0  299.71   10.47
 -30   2   0  293.81   10.76
 -30  -2   0  294.47   10.75
 -30  -2   0  293.75   10.41
 -30   2   0  312.17   10.55
 -30  -2  -1    5.59    1.02
 -30   2  -1    3.88    0.87
 -30  -2  -1    5.35    4.19
 -30   2  -1    4.52    1.18
 -30   2  -1    6.19    1.05
 -30   2  -1    6.21    2.92
 -30  -2  -1    4.48    2.39
 -30   2  -2  400.26   14.16
 -30   2  -2  423.63   13.90
 -30  -2  -2  424.97   13.73
 -30   2  -2  413.78   13.73
 -30   2  -3   51.69    2.68
 -30  -2  -3   50.39    2.53
 -30   2  -3   49.64    2.52
 -30   2  -4  268.05    8.69
 -30  -2  -4  250.59    8.49
 -30   2  -4  261.11    8.53
 -30   4   4  168.11    5.59
 -30   4   3   63.50    2.91
 -30   4   3   59.68    2.72
 -30  -4   3   65.91    2.83
 -30   4   2  280.64    9.45
 -30   4   2  259.05    9.07
 -30   4   2  269.29    9.15
 -30  -4   2  264.55    9.20
 -30   4   1   86.76    4.00
 -30   4   1   82.79    3.78
 -30   4   1   83.14    3.79
 -30  -4   1   86.13    3.85
 -30  -4   1   86.20    3.60
 -30   4   0  399.39   13.33
 -30   4   0  402.40   13.34
 -30  -4   0  406.87   13.31
 -30  -4   0  382.40   12.86
 -30   4  -1  152.29    5.69
 -30   4  -1  143.47    5.73
 -30  -4  -1  138.74    5.28
 -30  -4  -1  143.34    5.29
 -30   4  -1  135.47    5.25
 -30   4  -2  277.08    9.35
 -30   4  -2  277.97    9.40
 -30  -4  -2  259.00    8.83
 -30  -4  -2  264.06    8.83
 -30   4  -2  261.26    8.84
 -30  -4  -3  109.89    3.94
 -30   4  -3  101.36    3.93
 -30   4  -4   91.37    3.48
 -30   6   3   43.10    1.87
 -30   6   2   74.41    3.13
 -30   6   2   68.39    2.99
 -30   6   1  226.37    7.51
 -30   6   1  207.31    7.42
 -30  -6   1  206.03    7.22
 -30   6   0  161.18    5.76
 -30  -6   0  152.82    5.62
 -30   6  -1   84.64    3.46
 -30  -6  -1   85.33    3.44
 -30   6  -2  135.55    5.00
 -30  -6  -2  178.28    5.40
 -30   6  -3  101.45    3.50
 -30  -6  -3   84.09    3.15
 -30   8   0   24.04    1.31
 -31   1   4    2.88    0.63
 -31   1   3   69.45    3.29
 -31   1   2   30.94    1.94
 -31   1   2   28.48    2.04
 -31  -1   1    2.24    2.13
 -31   1   1    0.55    0.70
 -31   1   1    1.74    0.71
 -31  -1   0    0.22    0.67
 -31  -1   0    2.69    3.12
 -31   1   0    0.08    0.82
 -31   1   0    1.25    0.77
 -31  -1  -1    0.43    0.62
 -31  -1  -1   -0.83    4.11
 -31  -1  -2    0.39    0.60
 -31   1  -2    2.61    3.38
 -31  -1  -3   24.49    1.58
 -31  -1  -4    0.07    0.33
 -31   3   4    9.87    0.78
 -31  -3   4   11.25    0.86
 -31   3   3   32.20    1.78
 -31   3   3   32.70    1.83
 -31  -3   3   34.22    1.91
 -31   3   2    4.16    0.83
 -31   3   2    5.31    0.86
 -31  -3   2    3.85    0.80
 -31   3   1   27.10    1.91
 -31  -3   1   27.24    1.93
 -31   3   0    0.99    0.69
 -31   3   0    0.28    0.58
 -31   3   0    0.83    1.57
 -31  -3   0   -1.15    1.31
 -31  -3  -1    2.41    0.67
 -31   3  -1    1.96    0.65
 -31   3  -1    1.44    0.98
 -31   3  -1    2.28    0.74
 -31  -3  -2    5.33    0.77
 -31   3  -2    5.97    0.80
 -31   3  -2    3.07    2.38
 -31   3  -2    6.32    0.96
 -31   3  -3   13.13    1.10
 -31  -3  -3   10.94    0.91
 -31   3  -3   11.89    0.93
 -31   3  -4   36.85    1.69
 -31   5   3   65.34    2.66
 -31   5   2    4.45    0.65
 -31   5   1    2.25    0.69
 -31   5   0    0.70    0.55
 -31   5   0   -0.19    0.57
 -31  -5   0    0.05    0.39
 -31   5  -1   36.03    2.01
 -31   5  -1   33.52    1.98
 -31   5  -2   17.28    1.44
 -31  -5  -2   16.36    1.07
 -31   7   1   18.13    1.08
 -31   7   1   20.31    1.19
 -32   0   4  107.24    3.99
 -32   0   3    0.18    0.47
 -32   0   2  230.56    8.25
 -32   0   1    0.13    1.41
 -32   0   1   -0.24    0.63
 -32   0   0  333.46   11.61
 -32   0   0  324.76   11.45
 -32   0   0  336.31   11.20
 -32   0  -1    0.13    0.57
 -32   0  -2  253.06    8.63
 -32   0  -3    0.23    0.47
 -32   0  -4  144.94    4.86
 -32   2   4  181.65    6.19
 -32  -2   4  198.12    6.29
 -32   2   3   39.19    2.03
 -32  -2   3   37.69    2.02
 -32   2   2  279.26    9.47
 -32   2   2  286.89    9.66
 -32  -2   2  281.41    9.68
 -32   2   1   40.42    2.36
 -32   2   1   46.74    2.51
 -32  -2   1   40.95    2.42
 -32   2   0  236.85    8.51
 -32  -2   0  228.59    8.44
 -32   2  -1   67.66    3.87
 -32  -2  -1   66.37    3.05
 -32   2  -1   71.39    3.13
 -32   2  -2  342.21   11.62
 -32   2  -2  339.85   11.12
 -32  -2  -2  348.25   11.17
 -32   2  -2  342.30   11.16
 -32   2  -3   10.63    0.90
 -32  -2  -3   11.74    0.90
 -32   2  -3   10.77    0.88
 -32   4   3   42.30    1.84
 -32   4   2  195.02    6.24
 -32   4   2  161.97    5.88
 -32   4   1   25.65    1.55
 -32  -4   1   26.14    1.82
 -32   4   0  398.81   12.70
 -32   4   0  379.46   12.54
 -32   4  -1  187.57    6.79
 -32   4  -1  190.26    6.66
 -32   4  -2  166.45    5.89
 -32   4  -2  168.94    5.89
 -32   4  -3   32.44    1.55
 -32   6   2   77.19    2.84
 -32   6   1  162.96    5.27
 -32   6   1  143.57    5.15
 -32   6   0   93.02    3.48
 -32   6   0   94.91    3.55
 -32   6  -1   42.35    1.93
 -33   1   3   53.57    2.41
 -33   1   2    5.93    1.14
 -33   1   2    7.07    0.88
 -33  -1   1   82.39    4.04
 -33   1   1   82.16    3.64
 -33   1   1   81.91    3.65
 -33  -1   0    1.18    2.86
 -33   1   0    0.44    2.05
 -33   1   0    2.09    1.74
 -33  -1  -1   10.89    1.03
 -33  -1  -2    7.25    0.82
 -33  -1  -3   34.10    1.59
 -33   3   2    2.17    0.53
 -33   3   2    2.17    0.66
 -33  -3   2    2.53    0.62
 -33   3   1   16.37    1.31
 -33   3   1   17.46    1.72
 -33  -3   1   18.35    1.60
 -33   3   0    0.88    0.97
 -33   3  -1   14.63    2.23
 -33   3  -2    2.29    0.43
 -33   3  -2    3.19    0.49
 -33   5   1    2.41    0.50
 -33   5   0    2.80    0.81
 -33   5   0    2.64    0.47
 -33   5  -1   16.60    1.39
 -33   5  -1   16.76    1.02
 -34   0   3    0.03    0.30
 -34   0   2  149.73    5.39
 -34   0   1   -0.16    2.04
 -34   0   1    0.17    0.86
 -34   0   0  346.95   11.58
 -34   0  -1    0.49    0.44
 -34   0  -2  181.43    6.09
 -34   2   2  164.14    5.55
 -34  -2   2  169.37    5.60
 -34   2   1   58.08    2.79
 -34   2   1   57.90    2.89
 -34  -2   1   59.75    2.82
 -34   2  -1    2.16    2.21
 -34   4   0  117.56    4.42
 -34   4  -1   46.64    2.27
 -35   1   2    4.62    0.87
 -35   1   1   27.64    2.03
 -35   1   0    1.51    1.80
   0   0   0    0.00    0.00


TITL tf-12-smart-abs in C2/c
REM C2/c (#15 in standard setting)
CELL 1.54184  28.474140  11.581350   7.466277  90.0000  91.1344  90.0000
ZERR    8.00   0.000678   0.000342   0.000228   0.0000   0.0024   0.0000
LATT  7
SYMM -x, y,-z+1/2
SFAC C H N O Se
UNIT 112.00 64.00 16.00 8.00 8.00
TREF
HKLF 4
END
_computing_structure_solution     'SHELXT 2018/2 (Sheldrick, 2018)'
;
_shelx_hkl_checksum                51795
_shelx_fab_file
;
    2    0    0     67.95      0.00
    4    0    0     60.27      0.00
    6    0    0     50.08      0.00
    8    0    0     39.87      0.00
   10    0    0     31.22      0.00
   12    0    0     24.50      0.00
   14    0    0     19.30      0.00
   16    0    0     15.09      0.00
   18    0    0     11.65      0.00
   20    0    0      9.01      0.00
   22    0    0      7.15      0.00
   24    0    0      5.89      0.00
   26    0    0      4.95      0.00
   28    0    0      4.14      0.00
   30    0    0      3.40      0.00
   32    0    0      2.74      0.00
   34    0    0      2.15      0.00
    1    1    0    -59.33      0.00
    3    1    0    -54.77      0.00
    5    1    0    -47.10      0.00
    7    1    0    -38.46      0.00
    9    1    0    -30.56      0.00
   11    1    0    -24.17      0.00
   13    1    0    -19.16      0.00
   15    1    0    -15.10      0.00
   17    1    0    -11.71      0.00
   19    1    0     -8.99      0.00
   21    1    0     -7.01      0.00
   23    1    0     -5.66      0.00
   25    1    0     -4.71      0.00
   27    1    0     -3.90      0.00
   29    1    0     -3.16      0.00
   31    1    0     -2.49      0.00
   33    1    0     -1.93      0.00
   35    1    0     -1.43      0.00
    0    2    0     34.39      0.00
    2    2    0     33.16      0.00
    4    2    0     29.88      0.00
    6    2    0     25.58      0.00
    8    2    0     21.27      0.00
   10    2    0     17.50      0.00
   12    2    0     14.30      0.00
   14    2    0     11.46      0.00
   16    2    0      8.91      0.00
   18    2    0      6.77      0.00
   20    2    0      5.17      0.00
   22    2    0      4.11      0.00
   24    2    0      3.37      0.00
   26    2    0      2.74      0.00
   28    2    0      2.10      0.00
   30    2    0      1.50      0.00
   32    2    0      1.03      0.00
    1    3    0     -8.81      0.00
    3    3    0     -8.63      0.00
    5    3    0     -8.34      0.00
    7    3    0     -8.01      0.00
    9    3    0     -7.56      0.00
   11    3    0     -6.83      0.00
   13    3    0     -5.75      0.00
   15    3    0     -4.46      0.00
   17    3    0     -3.24      0.00
   19    3    0     -2.35      0.00
   21    3    0     -1.86      0.00
   23    3    0     -1.60      0.00
   25    3    0     -1.33      0.00
   27    3    0     -0.96      0.00
   29    3    0     -0.53      0.00
   31    3    0     -0.18      0.00
   33    3    0      0.03      0.00
    0    4    0     -6.73      0.00
    2    4    0     -6.21      0.00
    4    4    0     -4.81      0.00
    6    4    0     -2.98      0.00
    8    4    0     -1.30      0.00
   10    4    0     -0.20      0.00
   12    4    0      0.18      0.00
   14    4    0      0.03      0.00
   16    4    0     -0.28      0.00
   18    4    0     -0.41      0.00
   20    4    0     -0.29      0.00
   22    4    0     -0.03      0.00
   24    4    0      0.16      0.00
   26    4    0      0.15      0.00
   28    4    0     -0.02      0.00
   30    4    0     -0.21      0.00
   32    4    0     -0.31      0.00
   34    4    0     -0.30      0.00
    1    5    0     11.79      0.00
    3    5    0     10.62      0.00
    5    5    0      8.69      0.00
    7    5    0      6.62      0.00
    9    5    0      4.93      0.00
   15    5    0      2.82      0.00
   17    5    0      2.35      0.00
   19    5    0      1.74      0.00
   21    5    0      1.10      0.00
   23    5    0      0.59      0.00
   25    5    0      0.32      0.00
   27    5    0      0.24      0.00
   29    5    0      0.25      0.00
   31    5    0      0.26      0.00
   33    5    0      0.22      0.00
    0    6    0    -11.35      0.00
    2    6    0    -10.91      0.00
    4    6    0     -9.78      0.00
    6    6    0     -8.32      0.00
    8    6    0     -6.94      0.00
   10    6    0     -5.81      0.00
   12    6    0     -4.91      0.00
   14    6    0     -4.08      0.00
   16    6    0     -3.22      0.00
   18    6    0     -2.33      0.00
   20    6    0     -1.53      0.00
   22    6    0     -0.92      0.00
   24    6    0     -0.53      0.00
   26    6    0     -0.32      0.00
   28    6    0     -0.21      0.00
   30    6    0     -0.13      0.00
   32    6    0     -0.08      0.00
    1    7    0      8.47      0.00
    3    7    0      8.01      0.00
    5    7    0      7.26      0.00
    7    7    0      6.43      0.00
    9    7    0      5.66      0.00
   11    7    0      4.90      0.00
   13    7    0      4.07      0.00
   15    7    0      3.16      0.00
   17    7    0      2.26      0.00
   19    7    0      1.50      0.00
   21    7    0      0.97      0.00
   23    7    0      0.64      0.00
   25    7    0      0.40      0.00
   27    7    0      0.21      0.00
   29    7    0      0.06      0.00
    0    8    0     -5.16      0.00
    2    8    0     -5.02      0.00
    4    8    0     -4.65      0.00
    6    8    0     -4.23      0.00
    8    8    0     -3.84      0.00
   10    8    0     -3.47      0.00
   12    8    0     -3.02      0.00
   14    8    0     -2.45      0.00
   16    8    0     -1.83      0.00
   18    8    0     -1.30      0.00
   20    8    0     -0.95      0.00
   22    8    0     -0.73      0.00
   24    8    0     -0.55      0.00
   26    8    0     -0.34      0.00
   28    8    0     -0.11      0.00
   30    8    0      0.04      0.00
    1    9    0      2.48      0.00
    3    9    0      2.26      0.00
    5    9    0      1.98      0.00
    7    9    0      1.77      0.00
    9    9    0      1.69      0.00
   11    9    0      1.64      0.00
   13    9    0      1.52      0.00
   15    9    0      1.28      0.00
   17    9    0      1.02      0.00
   19    9    0      0.84      0.00
   21    9    0      0.74      0.00
   23    9    0      0.64      0.00
   25    9    0      0.48      0.00
   27    9    0      0.25      0.00
    0   10    0     -1.55      0.00
    2   10    0     -1.44      0.00
    4   10    0     -1.17      0.00
    6   10    0     -0.93      0.00
    8   10    0     -0.85      0.00
   10   10    0     -0.90      0.00
   12   10    0     -0.95      0.00
   14   10    0     -0.88      0.00
   16   10    0     -0.72      0.00
   18   10    0     -0.56      0.00
   20   10    0     -0.47      0.00
   22   10    0     -0.44      0.00
   24   10    0     -0.39      0.00
    1   11    0      1.86      0.00
    3   11    0      1.67      0.00
    5   11    0      1.41      0.00
    7   11    0      1.21      0.00
    9   11    0      1.11      0.00
   11   11    0      1.03      0.00
   13   11    0      0.86      0.00
   15   11    0      0.58      0.00
   17   11    0      0.28      0.00
   19   11    0      0.07      0.00
   21   11    0      0.00      0.00
    0   12    0     -2.09      0.00
    2   12    0     -2.04      0.00
    4   12    0     -1.89      0.00
    6   12    0     -1.72      0.00
    8   12    0     -1.55      0.00
   10   12    0     -1.35      0.00
   12   12    0     -1.05      0.00
   14   12    0     -0.65      0.00
   16   12    0     -0.22      0.00
   18   12    0      0.10      0.00
   20   12    0      0.26      0.00
    1   13    0      1.40      0.00
    3   13    0      1.40      0.00
    5   13    0      1.38      0.00
    7   13    0      1.33      0.00
    9   13    0      1.21      0.00
   11   13    0      0.98      0.00
   13   13    0      0.66      0.00
   15   13    0      0.31      0.00
    0   14    0     -0.34      0.00
    2   14    0     -0.36      0.00
    4   14    0     -0.42      0.00
    6   14    0     -0.48      0.00
    8   14    0     -0.49      0.00
   10   14    0     -0.44      0.00
  -35    1    1      0.70      0.00
  -33    1    1      0.90      0.00
  -31    1    1      0.98      0.00
  -29    1    1      0.97      0.00
  -27    1    1      0.93      0.00
  -25    1    1      0.89      0.00
  -23    1    1      0.84      0.00
  -21    1    1      0.80      0.00
  -19    1    1      0.82      0.00
  -17    1    1      1.01      0.00
  -15    1    1      1.44      0.00
  -13    1    1      2.07      0.00
  -11    1    1      2.78      0.00
   -9    1    1      3.46      0.00
   -7    1    1      4.12      0.00
   -5    1    1      4.84      0.00
   -3    1    1      5.69      0.00
   -1    1    1      6.65      0.00
    1    1    1      7.50      0.00
    3    1    1      8.00      0.00
    5    1    1      7.99      0.00
    7    1    1      7.50      0.00
    9    1    1      6.71      0.00
   11    1    1      5.82      0.00
   13    1    1      4.95      0.00
   15    1    1      4.16      0.00
   17    1    1      3.46      0.00
   19    1    1      2.90      0.00
   21    1    1      2.50      0.00
   23    1    1      2.24      0.00
   25    1    1      2.03      0.00
   27    1    1      1.78      0.00
   29    1    1      1.41      0.00
   31    1    1      0.97      0.00
   33    1    1      0.55      0.00
  -34    2    1     -1.25      0.00
  -32    2    1     -1.48      0.00
  -30    2    1     -1.54      0.00
  -28    2    1     -1.50      0.00
  -26    2    1     -1.43      0.00
  -24    2    1     -1.36      0.00
  -22    2    1     -1.25      0.00
  -20    2    1     -1.14      0.00
  -18    2    1     -1.17      0.00
  -16    2    1     -1.48      0.00
  -14    2    1     -2.09      0.00
  -12    2    1     -2.88      0.00
  -10    2    1     -3.64      0.00
   -8    2    1     -4.30      0.00
   -6    2    1     -4.99      0.00
   -4    2    1     -5.96      0.00
   -2    2    1     -7.31      0.00
    0    2    1     -8.87      0.00
    2    2    1    -10.25      0.00
    4    2    1    -11.05      0.00
    6    2    1    -11.12      0.00
    8    2    1    -10.56      0.00
   10    2    1     -9.64      0.00
   12    2    1     -8.55      0.00
   14    2    1     -7.42      0.00
   16    2    1     -6.30      0.00
   18    2    1     -5.27      0.00
   20    2    1     -4.46      0.00
   22    2    1     -3.92      0.00
   24    2    1     -3.56      0.00
   26    2    1     -3.19      0.00
   28    2    1     -2.65      0.00
   30    2    1     -1.93      0.00
   32    2    1     -1.16      0.00
   34    2    1     -0.52      0.00
  -33    3    1      1.32      0.00
  -31    3    1      1.45      0.00
  -29    3    1      1.44      0.00
  -27    3    1      1.38      0.00
  -25    3    1      1.32      0.00
  -23    3    1      1.20      0.00
  -21    3    1      0.98      0.00
  -19    3    1      0.74      0.00
  -17    3    1      0.64      0.00
  -15    3    1      0.78      0.00
  -13    3    1      1.10      0.00
  -11    3    1      1.40      0.00
   -9    3    1      1.52      0.00
   -7    3    1      1.56      0.00
   -5    3    1      1.87      0.00
   -3    3    1      2.76      0.00
   -1    3    1      4.30      0.00
    1    3    1      6.16      0.00
    3    3    1      7.88      0.00
    5    3    1      9.05      0.00
    7    3    1      9.57      0.00
    9    3    1      9.55      0.00
   11    3    1      9.13      0.00
   13    3    1      8.38      0.00
   15    3    1      7.38      0.00
   17    3    1      6.26      0.00
   19    3    1      5.25      0.00
   21    3    1      4.53      0.00
   23    3    1      4.12      0.00
   25    3    1      3.81      0.00
   27    3    1      3.35      0.00
   29    3    1      2.61      0.00
   31    3    1      1.69      0.00
   33    3    1      0.83      0.00
  -32    4    1     -0.79      0.00
  -30    4    1     -0.79      0.00
  -28    4    1     -0.75      0.00
  -26    4    1     -0.72      0.00
  -24    4    1     -0.65      0.00
  -22    4    1     -0.45      0.00
  -20    4    1     -0.09      0.00
  -18    4    1      0.34      0.00
  -16    4    1      0.67      0.00
  -14    4    1      0.86      0.00
  -12    4    1      1.05      0.00
  -10    4    1      1.40      0.00
   -8    4    1      1.92      0.00
   -6    4    1      2.33      0.00
   -4    4    1      2.22      0.00
   -2    4    1      1.31      0.00
    0    4    1     -0.29      0.00
    2    4    1     -2.21      0.00
    4    4    1     -4.00      0.00
    6    4    1     -5.38      0.00
    8    4    1     -6.29      0.00
   10    4    1     -6.75      0.00
   12    4    1     -6.76      0.00
   14    4    1     -6.30      0.00
   16    4    1     -5.49      0.00
   18    4    1     -4.59      0.00
   20    4    1     -3.91      0.00
   22    4    1     -3.59      0.00
   24    4    1     -3.49      0.00
   26    4    1     -3.31      0.00
   28    4    1     -2.83      0.00
   30    4    1     -2.05      0.00
   32    4    1     -1.19      0.00
   34    4    1     -0.48      0.00
  -33    5    1     -0.09      0.00
  -31    5    1     -0.14      0.00
  -29    5    1     -0.19      0.00
  -27    5    1     -0.17      0.00
  -25    5    1     -0.14      0.00
  -23    5    1     -0.22      0.00
  -21    5    1     -0.54      0.00
  -19    5    1     -1.07      0.00
  -17    5    1     -1.66      0.00
  -15    5    1     -2.16      0.00
  -13    5    1     -2.59      0.00
  -11    5    1     -3.06      0.00
   -9    5    1     -3.66      0.00
   -7    5    1     -4.28      0.00
   -5    5    1     -4.57      0.00
   -3    5    1     -4.25      0.00
   -1    5    1     -3.23      0.00
    1    5    1     -1.76      0.00
    3    5    1     -0.19      0.00
    5    5    1      1.18      0.00
    7    5    1      2.26      0.00
    9    5    1      3.05      0.00
   11    5    1      3.54      0.00
   13    5    1      3.63      0.00
   15    5    1      3.34      0.00
   17    5    1      2.82      0.00
   19    5    1      2.37      0.00
   21    5    1      2.22      0.00
   23    5    1      2.34      0.00
   25    5    1      2.50      0.00
   27    5    1      2.40      0.00
   29    5    1      1.96      0.00
   31    5    1      1.30      0.00
   33    5    1      0.69      0.00
  -32    6    1      0.84      0.00
  -30    6    1      0.95      0.00
  -28    6    1      0.92      0.00
  -26    6    1      0.78      0.00
  -24    6    1      0.69      0.00
  -22    6    1      0.83      0.00
  -20    6    1      1.28      0.00
  -18    6    1      1.94      0.00
  -16    6    1      2.60      0.00
  -14    6    1      3.14      0.00
  -12    6    1      3.58      0.00
  -10    6    1      4.00      0.00
   -8    6    1      4.43      0.00
   -6    6    1      4.69      0.00
   -4    6    1      4.56      0.00
   -2    6    1      3.94      0.00
    0    6    1      2.99      0.00
    2    6    1      2.00      0.00
    4    6    1      1.20      0.00
    6    6    1      0.63      0.00
    8    6    1      0.17      0.00
   10    6    1     -0.25      0.00
   12    6    1     -0.61      0.00
   14    6    1     -0.81      0.00
   16    6    1     -0.81      0.00
   18    6    1     -0.73      0.00
   20    6    1     -0.76      0.00
   22    6    1     -0.98      0.00
   24    6    1     -1.27      0.00
   26    6    1     -1.41      0.00
   28    6    1     -1.27      0.00
   30    6    1     -0.90      0.00
   32    6    1     -0.50      0.00
  -31    7    1     -1.09      0.00
  -29    7    1     -1.10      0.00
  -27    7    1     -0.93      0.00
  -25    7    1     -0.69      0.00
  -23    7    1     -0.62      0.00
  -21    7    1     -0.87      0.00
  -19    7    1     -1.42      0.00
  -17    7    1     -2.08      0.00
  -15    7    1     -2.67      0.00
  -13    7    1     -3.08      0.00
  -11    7    1     -3.36      0.00
   -9    7    1     -3.57      0.00
   -7    7    1     -3.66      0.00
   -5    7    1     -3.53      0.00
   -3    7    1     -3.09      0.00
   -1    7    1     -2.45      0.00
    1    7    1     -1.88      0.00
    3    7    1     -1.60      0.00
    5    7    1     -1.63      0.00
    7    7    1     -1.78      0.00
    9    7    1     -1.78      0.00
   11    7    1     -1.51      0.00
   13    7    1     -1.05      0.00
   15    7    1     -0.58      0.00
   17    7    1     -0.23      0.00
   19    7    1      0.00      0.00
   21    7    1      0.20      0.00
   23    7    1      0.37      0.00
   25    7    1      0.46      0.00
   27    7    1      0.39      0.00
   29    7    1      0.19      0.00
  -28    8    1      0.58      0.00
  -26    8    1      0.33      0.00
  -24    8    1      0.11      0.00
  -22    8    1      0.12      0.00
  -20    8    1      0.40      0.00
  -18    8    1      0.85      0.00
  -16    8    1      1.29      0.00
  -14    8    1      1.59      0.00
  -12    8    1      1.72      0.00
  -10    8    1      1.75      0.00
   -8    8    1      1.71      0.00
   -6    8    1      1.55      0.00
   -4    8    1      1.22      0.00
   -2    8    1      0.77      0.00
    0    8    1      0.42      0.00
    2    8    1      0.39      0.00
    4    8    1      0.77      0.00
    6    8    1      1.37      0.00
    8    8    1      1.86      0.00
   10    8    1      1.96      0.00
   12    8    1      1.61      0.00
   14    8    1      1.00      0.00
   16    8    1      0.39      0.00
   18    8    1     -0.03      0.00
   20    8    1     -0.20      0.00
   22    8    1     -0.19      0.00
   24    8    1     -0.07      0.00
   26    8    1      0.11      0.00
   28    8    1      0.30      0.00
  -25    9    1      0.31      0.00
  -23    9    1      0.46      0.00
  -21    9    1      0.47      0.00
  -19    9    1      0.38      0.00
  -17    9    1      0.28      0.00
  -15    9    1      0.29      0.00
  -13    9    1      0.41      0.00
  -11    9    1      0.60      0.00
   -9    9    1      0.81      0.00
   -7    9    1      1.03      0.00
   -5    9    1      1.30      0.00
   -3    9    1      1.60      0.00
   -1    9    1      1.81      0.00
    1    9    1      1.75      0.00
    3    9    1      1.29      0.00
    5    9    1      0.53      0.00
    7    9    1     -0.28      0.00
    9    9    1     -0.83      0.00
   11    9    1     -0.93      0.00
   13    9    1     -0.63      0.00
   15    9    1     -0.15      0.00
   17    9    1      0.26      0.00
   19    9    1      0.43      0.00
   21    9    1      0.34      0.00
   23    9    1      0.09      0.00
   25    9    1     -0.19      0.00
   27    9    1     -0.40      0.00
  -24   10    1     -0.61      0.00
  -22   10    1     -0.79      0.00
  -20   10    1     -1.01      0.00
  -18   10    1     -1.29      0.00
  -16   10    1     -1.64      0.00
  -14   10    1     -2.03      0.00
  -12   10    1     -2.42      0.00
  -10   10    1     -2.77      0.00
   -8   10    1     -3.05      0.00
   -6   10    1     -3.30      0.00
   -4   10    1     -3.50      0.00
   -2   10    1     -3.59      0.00
    0   10    1     -3.49      0.00
    2   10    1     -3.11      0.00
    4   10    1     -2.46      0.00
    6   10    1     -1.66      0.00
    8   10    1     -0.91      0.00
   10   10    1     -0.39      0.00
   12   10    1     -0.17      0.00
   14   10    1     -0.20      0.00
   16   10    1     -0.32      0.00
   18   10    1     -0.38      0.00
   20   10    1     -0.29      0.00
   22   10    1     -0.07      0.00
   24   10    1      0.19      0.00
  -23   11    1      0.64      0.00
  -21   11    1      1.00      0.00
  -19   11    1      1.48      0.00
  -17   11    1      2.03      0.00
  -15   11    1      2.55      0.00
  -13   11    1      2.98      0.00
  -11   11    1      3.30      0.00
   -9   11    1      3.53      0.00
   -7   11    1      3.72      0.00
   -5   11    1      3.84      0.00
   -3   11    1      3.86      0.00
   -1   11    1      3.74      0.00
    1   11    1      3.46      0.00
    3   11    1      3.06      0.00
    5   11    1      2.57      0.00
    7   11    1      2.03      0.00
    9   11    1      1.50      0.00
   11   11    1      1.03      0.00
   13   11    1      0.66      0.00
   15   11    1      0.40      0.00
   17   11    1      0.23      0.00
   19   11    1      0.09      0.00
   21   11    1     -0.06      0.00
  -18   12    1     -1.61      0.00
  -16   12    1     -2.09      0.00
  -14   12    1     -2.41      0.00
  -12   12    1     -2.55      0.00
  -10   12    1     -2.62      0.00
   -8   12    1     -2.69      0.00
   -4   12    1     -2.76      0.00
   -2   12    1     -2.66      0.00
    0   12    1     -2.48      0.00
    2   12    1     -2.28      0.00
    4   12    1     -2.12      0.00
    6   12    1     -2.00      0.00
    8   12    1     -1.82      0.00
   10   12    1     -1.52      0.00
   12   12    1     -1.10      0.00
   14   12    1     -0.66      0.00
   16   12    1     -0.30      0.00
   18   12    1     -0.07      0.00
  -15   13    1      1.29      0.00
  -13   13    1      1.28      0.00
  -11   13    1      1.19      0.00
   -9   13    1      1.15      0.00
   -7   13    1      1.21      0.00
   -5   13    1      1.30      0.00
   -3   13    1      1.31      0.00
   -1   13    1      1.22      0.00
    1   13    1      1.12      0.00
    3   13    1      1.11      0.00
    5   13    1      1.24      0.00
    7   13    1      1.39      0.00
    9   13    1      1.41      0.00
   11   13    1      1.21      0.00
   13   13    1      0.85      0.00
   15   13    1      0.46      0.00
  -10   14    1      0.04      0.00
   -8   14    1     -0.03      0.00
   -6   14    1     -0.21      0.00
   -4   14    1     -0.38      0.00
   -2   14    1     -0.43      0.00
    0   14    1     -0.39      0.00
    2   14    1     -0.38      0.00
    4   14    1     -0.49      0.00
    6   14    1     -0.69      0.00
    8   14    1     -0.87      0.00
  -34    0    2      0.21      0.00
  -32    0    2     -0.06      0.00
  -30    0    2     -0.51      0.00
  -28    0    2     -1.20      0.00
  -26    0    2     -2.18      0.00
  -24    0    2     -3.35      0.00
  -22    0    2     -4.49      0.00
  -20    0    2     -5.34      0.00
  -18    0    2     -5.86      0.00
  -16    0    2     -6.28      0.00
  -14    0    2     -6.87      0.00
  -12    0    2     -7.60      0.00
  -10    0    2     -8.09      0.00
   -8    0    2     -7.79      0.00
   -6    0    2     -6.49      0.00
   -4    0    2     -4.56      0.00
   -2    0    2     -2.76      0.00
    0    0    2     -1.72      0.00
    4    0    2     -1.65      0.00
    6    0    2     -1.58      0.00
    8    0    2     -1.06      0.00
   10    0    2     -0.36      0.00
   12    0    2      0.09      0.00
   14    0    2      0.04      0.00
   16    0    2     -0.40      0.00
   18    0    2     -0.88      0.00
   20    0    2     -1.14      0.00
   22    0    2     -1.14      0.00
   24    0    2     -1.01      0.00
   26    0    2     -0.87      0.00
   28    0    2     -0.75      0.00
   30    0    2     -0.62      0.00
   32    0    2     -0.46      0.00
   34    0    2     -0.32      0.00
  -35    1    2     -0.19      0.00
  -33    1    2     -0.05      0.00
  -31    1    2      0.20      0.00
  -29    1    2      0.59      0.00
  -27    1    2      1.22      0.00
  -25    1    2      2.10      0.00
  -23    1    2      3.11      0.00
  -21    1    2      4.00      0.00
  -19    1    2      4.59      0.00
  -17    1    2      4.90      0.00
  -15    1    2      5.17      0.00
  -13    1    2      5.52      0.00
  -11    1    2      5.78      0.00
   -9    1    2      5.56      0.00
   -7    1    2      4.55      0.00
   -5    1    2      2.88      0.00
   -3    1    2      1.12      0.00
   -1    1    2     -0.06      0.00
    1    1    2     -0.41      0.00
    3    1    2     -0.17      0.00
    5    1    2      0.09      0.00
    7    1    2     -0.03      0.00
    9    1    2     -0.46      0.00
   11    1    2     -0.85      0.00
   13    1    2     -0.85      0.00
   15    1    2     -0.45      0.00
   17    1    2      0.08      0.00
   19    1    2      0.46      0.00
   21    1    2      0.59      0.00
   23    1    2      0.55      0.00
   25    1    2      0.51      0.00
   27    1    2      0.49      0.00
   29    1    2      0.46      0.00
   31    1    2      0.37      0.00
   33    1    2      0.24      0.00
  -34    2    2      0.01      0.00
  -32    2    2     -0.01      0.00
  -30    2    2      0.01      0.00
  -28    2    2     -0.04      0.00
  -26    2    2     -0.28      0.00
  -24    2    2     -0.76      0.00
  -22    2    2     -1.37      0.00
  -20    2    2     -1.87      0.00
  -18    2    2     -2.10      0.00
  -16    2    2     -2.04      0.00
  -14    2    2     -1.77      0.00
  -12    2    2     -1.31      0.00
  -10    2    2     -0.54      0.00
   -8    2    2      0.64      0.00
   -6    2    2      2.14      0.00
   -4    2    2      3.56      0.00
   -2    2    2      4.44      0.00
    0    2    2      4.55      0.00
    2    2    2      4.06      0.00
    4    2    2      3.41      0.00
    6    2    2      3.00      0.00
    8    2    2      2.87      0.00
   10    2    2      2.81      0.00
   12    2    2      2.54      0.00
   14    2    2      2.00      0.00
   16    2    2      1.40      0.00
   18    2    2      0.96      0.00
   20    2    2      0.76      0.00
   22    2    2      0.67      0.00
   24    2    2      0.52      0.00
   26    2    2      0.28      0.00
   28    2    2      0.04      0.00
   30    2    2     -0.06      0.00
   32    2    2     -0.02      0.00
  -33    3    2     -0.12      0.00
  -31    3    2     -0.39      0.00
  -29    3    2     -0.77      0.00
  -27    3    2     -1.12      0.00
  -25    3    2     -1.29      0.00
  -23    3    2     -1.21      0.00
  -21    3    2     -0.99      0.00
  -19    3    2     -0.83      0.00
  -17    3    2     -0.93      0.00
  -15    3    2     -1.39      0.00
  -13    3    2     -2.25      0.00
  -11    3    2     -3.44      0.00
   -9    3    2     -4.87      0.00
   -7    3    2     -6.29      0.00
   -5    3    2     -7.40      0.00
   -3    3    2     -7.89      0.00
   -1    3    2     -7.68      0.00
    1    3    2     -6.93      0.00
    3    3    2     -6.04      0.00
    5    3    2     -5.31      0.00
    7    3    2     -4.81      0.00
    9    3    2     -4.37      0.00
   11    3    2     -3.81      0.00
   13    3    2     -3.12      0.00
   15    3    2     -2.47      0.00
   17    3    2     -2.06      0.00
   19    3    2     -1.90      0.00
   21    3    2     -1.81      0.00
   23    3    2     -1.57      0.00
   25    3    2     -1.10      0.00
   27    3    2     -0.57      0.00
   29    3    2     -0.19      0.00
   31    3    2     -0.06      0.00
   33    3    2     -0.11      0.00
  -32    4    2      0.68      0.00
  -30    4    2      1.16      0.00
  -28    4    2      1.73      0.00
  -26    4    2      2.28      0.00
  -24    4    2      2.67      0.00
  -22    4    2      2.87      0.00
  -20    4    2      2.94      0.00
  -18    4    2      3.03      0.00
  -16    4    2      3.35      0.00
  -14    4    2      4.02      0.00
  -12    4    2      5.05      0.00
  -10    4    2      6.29      0.00
   -8    4    2      7.47      0.00
   -6    4    2      8.26      0.00
   -4    4    2      8.45      0.00
   -2    4    2      8.01      0.00
    0    4    2      7.16      0.00
    2    4    2      6.22      0.00
    4    4    2      5.43      0.00
    6    4    2      4.83      0.00
    8    4    2      4.28      0.00
   10    4    2      3.64      0.00
   12    4    2      2.95      0.00
   14    4    2      2.37      0.00
   16    4    2      2.08      0.00
   18    4    2      2.07      0.00
   20    4    2      2.12      0.00
   22    4    2      1.97      0.00
   24    4    2      1.50      0.00
   26    4    2      0.84      0.00
   28    4    2      0.26      0.00
   30    4    2     -0.03      0.00
   32    4    2     -0.04      0.00
  -31    5    2     -1.32      0.00
  -29    5    2     -1.76      0.00
  -27    5    2     -2.25      0.00
  -25    5    2     -2.78      0.00
  -23    5    2     -3.27      0.00
  -21    5    2     -3.68      0.00
  -19    5    2     -3.98      0.00
  -17    5    2     -4.25      0.00
  -15    5    2     -4.62      0.00
  -13    5    2     -5.16      0.00
  -11    5    2     -5.85      0.00
   -9    5    2     -6.51      0.00
   -7    5    2     -6.89      0.00
   -5    5    2     -6.81      0.00
   -3    5    2     -6.27      0.00
   -1    5    2     -5.44      0.00
    1    5    2     -4.59      0.00
    3    5    2     -3.87      0.00
    5    5    2     -3.30      0.00
    7    5    2     -2.77      0.00
    9    5    2     -2.19      0.00
   11    5    2     -1.60      0.00
   13    5    2     -1.16      0.00
   15    5    2     -1.02      0.00
   17    5    2     -1.15      0.00
   19    5    2     -1.37      0.00
   21    5    2     -1.41      0.00
   23    5    2     -1.15      0.00
   25    5    2     -0.63      0.00
   27    5    2     -0.11      0.00
   29    5    2      0.21      0.00
   31    5    2      0.26      0.00
  -32    6    2      1.20      0.00
  -30    6    2      1.43      0.00
  -28    6    2      1.65      0.00
  -26    6    2      1.98      0.00
  -24    6    2      2.46      0.00
  -22    6    2      3.04      0.00
  -20    6    2      3.61      0.00
  -18    6    2      4.05      0.00
  -16    6    2      4.34      0.00
  -14    6    2      4.55      0.00
  -12    6    2      4.72      0.00
  -10    6    2      4.83      0.00
   -8    6    2      4.76      0.00
   -6    6    2      4.41      0.00
   -4    6    2      3.78      0.00
   -2    6    2      3.01      0.00
    0    6    2      2.28      0.00
    2    6    2      1.68      0.00
    4    6    2      1.21      0.00
    6    6    2      0.75      0.00
    8    6    2      0.26      0.00
   10    6    2     -0.21      0.00
   12    6    2     -0.51      0.00
   14    6    2     -0.55      0.00
   16    6    2     -0.35      0.00
   18    6    2     -0.07      0.00
   20    6    2      0.11      0.00
   22    6    2      0.06      0.00
   24    6    2     -0.17      0.00
   26    6    2     -0.43      0.00
   28    6    2     -0.58      0.00
   30    6    2     -0.54      0.00
  -29    7    2     -0.90      0.00
  -27    7    2     -0.93      0.00
  -25    7    2     -1.16      0.00
  -23    7    2     -1.63      0.00
  -21    7    2     -2.24      0.00
  -19    7    2     -2.80      0.00
  -17    7    2     -3.14      0.00
  -15    7    2     -3.24      0.00
  -13    7    2     -3.15      0.00
  -11    7    2     -2.92      0.00
   -9    7    2     -2.55      0.00
   -7    7    2     -1.99      0.00
   -5    7    2     -1.27      0.00
   -3    7    2     -0.51      0.00
   -1    7    2      0.15      0.00
    1    7    2      0.62      0.00
    3    7    2      0.94      0.00
    5    7    2      1.23      0.00
    7    7    2      1.54      0.00
    9    7    2      1.84      0.00
   11    7    2      2.01      0.00
   13    7    2      1.96      0.00
   15    7    2      1.73      0.00
   17    7    2      1.47      0.00
   19    7    2      1.30      0.00
   21    7    2      1.26      0.00
   23    7    2      1.28      0.00
   25    7    2      1.27      0.00
   27    7    2      1.15      0.00
   29    7    2      0.92      0.00
  -28    8    2      0.16      0.00
  -26    8    2      0.11      0.00
  -24    8    2      0.29      0.00
  -22    8    2      0.67      0.00
  -20    8    2      1.10      0.00
  -18    8    2      1.37      0.00
  -16    8    2      1.42      0.00
  -14    8    2      1.25      0.00
  -12    8    2      0.95      0.00
  -10    8    2      0.55      0.00
   -8    8    2      0.00      0.00
   -6    8    2     -0.69      0.00
   -4    8    2     -1.43      0.00
   -2    8    2     -2.07      0.00
    0    8    2     -2.49      0.00
    2    8    2     -2.68      0.00
    4    8    2     -2.76      0.00
    6    8    2     -2.83      0.00
    8    8    2     -2.91      0.00
   10    8    2     -2.91      0.00
   12    8    2     -2.77      0.00
   14    8    2     -2.51      0.00
   16    8    2     -2.25      0.00
   18    8    2     -2.09      0.00
   20    8    2     -2.05      0.00
   22    8    2     -2.02      0.00
   24    8    2     -1.88      0.00
   26    8    2     -1.59      0.00
   28    8    2     -1.20      0.00
  -27    9    2      0.35      0.00
  -25    9    2      0.45      0.00
  -23    9    2      0.39      0.00
  -21    9    2      0.25      0.00
  -19    9    2      0.17      0.00
  -17    9    2      0.22      0.00
  -15    9    2      0.40      0.00
  -13    9    2      0.61      0.00
  -11    9    2      0.83      0.00
   -9    9    2      1.10      0.00
   -7    9    2      1.51      0.00
   -5    9    2      2.04      0.00
   -3    9    2      2.58      0.00
   -1    9    2      2.97      0.00
    1    9    2      3.14      0.00
    3    9    2      3.13      0.00
    5    9    2      3.07      0.00
    7    9    2      3.03      0.00
    9    9    2      2.97      0.00
   11    9    2      2.81      0.00
   13    9    2      2.55      0.00
   15    9    2      2.26      0.00
   17    9    2      2.05      0.00
   19    9    2      1.96      0.00
   21    9    2      1.91      0.00
   23    9    2      1.76      0.00
   25    9    2      1.46      0.00
   27    9    2      1.05      0.00
  -24   10    2     -0.73      0.00
  -22   10    2     -0.82      0.00
  -20   10    2     -0.91      0.00
  -18   10    2     -1.05      0.00
  -16   10    2     -1.20      0.00
  -14   10    2     -1.29      0.00
  -12   10    2     -1.28      0.00
  -10   10    2     -1.21      0.00
   -8   10    2     -1.21      0.00
   -6   10    2     -1.36      0.00
   -4   10    2     -1.63      0.00
   -2   10    2     -1.89      0.00
    0   10    2     -2.03      0.00
    2   10    2     -2.05      0.00
    4   10    2     -2.03      0.00
    6   10    2     -2.05      0.00
    8   10    2     -2.10      0.00
   10   10    2     -2.09      0.00
   12   10    2     -1.94      0.00
   14   10    2     -1.69      0.00
   16   10    2     -1.44      0.00
   18   10    2     -1.27      0.00
   20   10    2     -1.16      0.00
   22   10    2     -1.04      0.00
   24   10    2     -0.81      0.00
  -21   11    2      0.85      0.00
  -19   11    2      0.96      0.00
  -17   11    2      1.05      0.00
  -15   11    2      1.05      0.00
  -13   11    2      0.93      0.00
  -11   11    2      0.71      0.00
   -9   11    2      0.49      0.00
   -7   11    2      0.37      0.00
   -5   11    2      0.36      0.00
   -3   11    2      0.39      0.00
   -1   11    2      0.39      0.00
    1   11    2      0.35      0.00
    3   11    2      0.34      0.00
    5   11    2      0.43      0.00
    7   11    2      0.62      0.00
    9   11    2      0.80      0.00
   11   11    2      0.86      0.00
   13   11    2      0.76      0.00
   15   11    2      0.57      0.00
   17   11    2      0.40      0.00
   19   11    2      0.30      0.00
  -18   12    2     -0.38      0.00
  -16   12    2     -0.30      0.00
  -14   12    2     -0.17      0.00
  -12   12    2     -0.02      0.00
  -10   12    2      0.11      0.00
   -8   12    2      0.18      0.00
   -6   12    2      0.23      0.00
   -4   12    2      0.31      0.00
   -2   12    2      0.48      0.00
    0   12    2      0.71      0.00
    2   12    2      0.90      0.00
    4   12    2      0.93      0.00
    6   12    2      0.78      0.00
    8   12    2      0.56      0.00
   10   12    2      0.38      0.00
   12   12    2      0.33      0.00
   14   12    2      0.38      0.00
   16   12    2      0.42      0.00
   18   12    2      0.39      0.00
  -13   13    2     -0.51      0.00
  -11   13    2     -0.47      0.00
   -9   13    2     -0.33      0.00
   -7   13    2     -0.19      0.00
   -5   13    2     -0.18      0.00
   -3   13    2     -0.37      0.00
   -1   13    2     -0.74      0.00
    1   13    2     -1.14      0.00
    3   13    2     -1.42      0.00
    5   13    2     -1.49      0.00
    7   13    2     -1.39      0.00
    9   13    2     -1.23      0.00
   11   13    2     -1.12      0.00
   13   13    2     -1.05      0.00
   -6   14    2     -0.09      0.00
   -4   14    2     -0.02      0.00
   -2   14    2      0.29      0.00
    0   14    2      0.74      0.00
    2   14    2      1.14      0.00
    4   14    2      1.37      0.00
  -33    1    3      0.42      0.00
  -31    1    3      0.51      0.00
  -29    1    3      0.51      0.00
  -27    1    3      0.42      0.00
  -25    1    3      0.28      0.00
  -23    1    3      0.08      0.00
  -21    1    3     -0.18      0.00
  -19    1    3     -0.47      0.00
  -17    1    3     -0.77      0.00
  -15    1    3     -1.11      0.00
  -13    1    3     -1.53      0.00
  -11    1    3     -2.11      0.00
   -9    1    3     -2.85      0.00
   -7    1    3     -3.68      0.00
   -5    1    3     -4.47      0.00
   -3    1    3     -5.05      0.00
   -1    1    3     -5.32      0.00
    1    1    3     -5.27      0.00
    3    1    3     -4.94      0.00
    5    1    3     -4.41      0.00
    7    1    3     -3.78      0.00
    9    1    3     -3.13      0.00
   11    1    3     -2.57      0.00
   13    1    3     -2.15      0.00
   15    1    3     -1.88      0.00
   17    1    3     -1.65      0.00
   19    1    3     -1.38      0.00
   21    1    3     -1.04      0.00
   23    1    3     -0.68      0.00
   25    1    3     -0.37      0.00
   27    1    3     -0.19      0.00
   29    1    3     -0.14      0.00
   31    1    3     -0.18      0.00
   33    1    3     -0.22      0.00
  -32    2    3     -0.75      0.00
  -30    2    3     -0.90      0.00
  -28    2    3     -0.93      0.00
  -26    2    3     -0.86      0.00
  -24    2    3     -0.67      0.00
  -22    2    3     -0.37      0.00
  -20    2    3      0.02      0.00
  -18    2    3      0.45      0.00
  -16    2    3      0.88      0.00
  -14    2    3      1.36      0.00
  -12    2    3      2.03      0.00
  -10    2    3      2.96      0.00
   -8    2    3      4.13      0.00
   -6    2    3      5.34      0.00
   -4    2    3      6.37      0.00
   -2    2    3      7.02      0.00
    0    2    3      7.25      0.00
    2    2    3      7.09      0.00
    4    2    3      6.61      0.00
    6    2    3      5.89      0.00
    8    2    3      5.02      0.00
   10    2    3      4.16      0.00
   12    2    3      3.45      0.00
   14    2    3      2.95      0.00
   16    2    3      2.60      0.00
   18    2    3      2.23      0.00
   20    2    3      1.73      0.00
   22    2    3      1.14      0.00
   24    2    3      0.58      0.00
   26    2    3      0.20      0.00
   28    2    3      0.07      0.00
   30    2    3      0.11      0.00
   32    2    3      0.20      0.00
  -31    3    3      0.95      0.00
  -29    3    3      1.25      0.00
  -27    3    3      1.47      0.00
  -25    3    3      1.57      0.00
  -23    3    3      1.49      0.00
  -21    3    3      1.25      0.00
  -19    3    3      0.91      0.00
  -17    3    3      0.57      0.00
  -15    3    3      0.24      0.00
  -13    3    3     -0.20      0.00
  -11    3    3     -0.87      0.00
   -9    3    3     -1.83      0.00
   -7    3    3     -2.93      0.00
   -5    3    3     -3.95      0.00
   -3    3    3     -4.71      0.00
   -1    3    3     -5.17      0.00
    1    3    3     -5.36      0.00
    3    3    3     -5.35      0.00
    5    3    3     -5.12      0.00
    7    3    3     -4.64      0.00
    9    3    3     -3.99      0.00
   11    3    3     -3.31      0.00
   13    3    3     -2.77      0.00
   15    3    3     -2.40      0.00
   17    3    3     -2.08      0.00
   19    3    3     -1.66      0.00
   21    3    3     -1.08      0.00
   23    3    3     -0.46      0.00
   25    3    3     -0.01      0.00
   27    3    3      0.17      0.00
   29    3    3      0.11      0.00
   31    3    3     -0.04      0.00
  -32    4    3     -0.67      0.00
  -30    4    3     -1.17      0.00
  -28    4    3     -1.74      0.00
  -26    4    3     -2.27      0.00
  -24    4    3     -2.62      0.00
  -22    4    3     -2.74      0.00
  -20    4    3     -2.66      0.00
  -18    4    3     -2.50      0.00
  -16    4    3     -2.34      0.00
  -14    4    3     -2.15      0.00
  -12    4    3     -1.80      0.00
  -10    4    3     -1.21      0.00
   -8    4    3     -0.45      0.00
   -6    4    3      0.29      0.00
   -4    4    3      0.85      0.00
   -2    4    3      1.22      0.00
    0    4    3      1.52      0.00
    2    4    3      1.86      0.00
    4    4    3      2.20      0.00
    6    4    3      2.38      0.00
    8    4    3      2.28      0.00
   10    4    3      1.95      0.00
   12    4    3      1.56      0.00
   14    4    3      1.27      0.00
   16    4    3      1.07      0.00
   18    4    3      0.83      0.00
   20    4    3      0.46      0.00
   22    4    3      0.00      0.00
   24    4    3     -0.37      0.00
   26    4    3     -0.48      0.00
   28    4    3     -0.33      0.00
   30    4    3     -0.09      0.00
   32    4    3      0.07      0.00
  -31    5    3      0.74      0.00
  -29    5    3      1.43      0.00
  -27    5    3      2.25      0.00
  -25    5    3      3.03      0.00
  -23    5    3      3.59      0.00
  -21    5    3      3.88      0.00
  -19    5    3      3.98      0.00
  -17    5    3      4.03      0.00
  -15    5    3      4.05      0.00
  -13    5    3      3.96      0.00
  -11    5    3      3.66      0.00
   -9    5    3      3.18      0.00
   -7    5    3      2.68      0.00
   -5    5    3      2.36      0.00
   -3    5    3      2.22      0.00
   -1    5    3      2.10      0.00
    1    5    3      1.79      0.00
    3    5    3      1.23      0.00
    5    5    3      0.60      0.00
    7    5    3      0.15      0.00
    9    5    3      0.02      0.00
   11    5    3      0.13      0.00
   13    5    3      0.29      0.00
   15    5    3      0.38      0.00
   17    5    3      0.44      0.00
   19    5    3      0.56      0.00
   21    5    3      0.77      0.00
   23    5    3      0.95      0.00
   25    5    3      0.93      0.00
   27    5    3      0.67      0.00
   29    5    3      0.29      0.00
  -30    6    3     -0.67      0.00
  -28    6    3     -1.43      0.00
  -26    6    3     -2.34      0.00
  -24    6    3     -3.19      0.00
  -22    6    3     -3.82      0.00
  -20    6    3     -4.24      0.00
  -18    6    3     -4.54      0.00
  -16    6    3     -4.80      0.00
  -14    6    3     -4.99      0.00
  -12    6    3     -5.00      0.00
  -10    6    3     -4.79      0.00
   -8    6    3     -4.48      0.00
   -6    6    3     -4.27      0.00
   -4    6    3     -4.25      0.00
   -2    6    3     -4.33      0.00
    0    6    3     -4.25      0.00
    2    6    3     -3.83      0.00
    4    6    3     -3.13      0.00
    6    6    3     -2.40      0.00
    8    6    3     -1.90      0.00
   10    6    3     -1.71      0.00
   12    6    3     -1.70      0.00
   14    6    3     -1.70      0.00
   16    6    3     -1.65      0.00
   18    6    3     -1.59      0.00
   20    6    3     -1.58      0.00
   22    6    3     -1.58      0.00
   24    6    3     -1.47      0.00
   26    6    3     -1.16      0.00
   28    6    3     -0.70      0.00
   30    6    3     -0.27      0.00
  -29    7    3      0.27      0.00
  -27    7    3      0.93      0.00
  -23    7    3      2.47      0.00
  -21    7    3      3.06      0.00
  -19    7    3      3.55      0.00
  -17    7    3      4.00      0.00
  -15    7    3      4.44      0.00
  -13    7    3      4.77      0.00
  -11    7    3      4.90      0.00
   -9    7    3      4.84      0.00
   -7    7    3      4.74      0.00
   -5    7    3      4.74      0.00
   -3    7    3      4.87      0.00
   -1    7    3      4.95      0.00
    1    7    3      4.78      0.00
    3    7    3      4.29      0.00
    5    7    3      3.61      0.00
    7    7    3      2.99      0.00
    9    7    3      2.61      0.00
   11    7    3      2.44      0.00
   13    7    3      2.35      0.00
   15    7    3      2.24      0.00
   17    7    3      2.08      0.00
   19    7    3      1.92      0.00
   21    7    3      1.80      0.00
   23    7    3      1.65      0.00
   25    7    3      1.40      0.00
   27    7    3      1.03      0.00
   29    7    3      0.61      0.00
  -28    8    3      0.29      0.00
  -26    8    3     -0.18      0.00
  -24    8    3     -0.73      0.00
  -22    8    3     -1.24      0.00
  -20    8    3     -1.68      0.00
  -18    8    3     -2.09      0.00
  -16    8    3     -2.54      0.00
  -14    8    3     -2.98      0.00
  -12    8    3     -3.33      0.00
  -10    8    3     -3.51      0.00
   -8    8    3     -3.57      0.00
   -6    8    3     -3.61      0.00
   -4    8    3     -3.71      0.00
   -2    8    3     -3.83      0.00
    0    8    3     -3.84      0.00
    2    8    3     -3.63      0.00
    4    8    3     -3.23      0.00
    6    8    3     -2.78      0.00
    8    8    3     -2.42      0.00
   10    8    3     -2.22      0.00
   12    8    3     -2.11      0.00
   14    8    3     -1.98      0.00
   16    8    3     -1.78      0.00
   18    8    3     -1.54      0.00
   20    8    3     -1.34      0.00
   22    8    3     -1.17      0.00
   24    8    3     -1.02      0.00
   26    8    3     -0.82      0.00
  -25    9    3     -0.31      0.00
  -23    9    3     -0.09      0.00
  -21    9    3      0.08      0.00
  -19    9    3      0.20      0.00
  -17    9    3      0.36      0.00
  -15    9    3      0.58      0.00
  -13    9    3      0.85      0.00
  -11    9    3      1.08      0.00
   -9    9    3      1.25      0.00
   -7    9    3      1.38      0.00
   -5    9    3      1.49      0.00
   -3    9    3      1.61      0.00
   -1    9    3      1.70      0.00
    1    9    3      1.70      0.00
    3    9    3      1.60      0.00
    5    9    3      1.46      0.00
    7    9    3      1.34      0.00
    9    9    3      1.27      0.00
   11    9    3      1.23      0.00
   13    9    3      1.14      0.00
   15    9    3      0.97      0.00
   17    9    3      0.74      0.00
   19    9    3      0.51      0.00
   21    9    3      0.34      0.00
   23    9    3      0.24      0.00
   25    9    3      0.19      0.00
  -22   10    3      0.54      0.00
  -20   10    3      0.75      0.00
  -18   10    3      0.98      0.00
  -16   10    3      1.14      0.00
  -14   10    3      1.18      0.00
  -12   10    3      1.11      0.00
  -10   10    3      0.94      0.00
   -8   10    3      0.73      0.00
   -6   10    3      0.52      0.00
   -4   10    3      0.34      0.00
   -2   10    3      0.22      0.00
    0   10    3      0.14      0.00
    2   10    3      0.09      0.00
    4   10    3      0.02      0.00
    6   10    3     -0.07      0.00
    8   10    3     -0.18      0.00
   10   10    3     -0.24      0.00
   12   10    3     -0.24      0.00
   14   10    3     -0.15      0.00
   16   10    3     -0.02      0.00
   18   10    3      0.12      0.00
   20   10    3      0.22      0.00
   22   10    3      0.28      0.00
  -19   11    3     -1.20      0.00
  -17   11    3     -1.64      0.00
  -15   11    3     -1.96      0.00
  -13   11    3     -2.10      0.00
  -11   11    3     -2.02      0.00
   -9   11    3     -1.77      0.00
   -7   11    3     -1.44      0.00
   -5   11    3     -1.15      0.00
   -3   11    3     -0.97      0.00
   -1   11    3     -0.90      0.00
    1   11    3     -0.88      0.00
    3   11    3     -0.82      0.00
    5   11    3     -0.70      0.00
    7   11    3     -0.54      0.00
    9   11    3     -0.42      0.00
   11   11    3     -0.36      0.00
   13   11    3     -0.36      0.00
   15   11    3     -0.37      0.00
   17   11    3     -0.34      0.00
   19   11    3     -0.29      0.00
  -16   12    3      1.60      0.00
  -14   12    3      1.87      0.00
  -12   12    3      1.93      0.00
  -10   12    3      1.75      0.00
   -8   12    3      1.40      0.00
   -6   12    3      1.03      0.00
   -4   12    3      0.79      0.00
   -2   12    3      0.74      0.00
    0   12    3      0.80      0.00
    2   12    3      0.87      0.00
    4   12    3      0.84      0.00
    6   12    3      0.74      0.00
    8   12    3      0.62      0.00
   10   12    3      0.54      0.00
   12   12    3      0.50      0.00
   14   12    3      0.43      0.00
   16   12    3      0.29      0.00
  -11   13    3     -1.14      0.00
   -9   13    3     -0.93      0.00
   -7   13    3     -0.64      0.00
   -5   13    3     -0.41      0.00
   -3   13    3     -0.36      0.00
   -1   13    3     -0.46      0.00
    1   13    3     -0.60      0.00
    3   13    3     -0.66      0.00
    5   13    3     -0.60      0.00
    7   13    3     -0.47      0.00
    9   13    3     -0.36      0.00
  -32    0    4     -0.06      0.00
  -30    0    4      0.14      0.00
  -28    0    4      0.29      0.00
  -26    0    4      0.24      0.00
  -24    0    4     -0.06      0.00
  -22    0    4     -0.48      0.00
  -20    0    4     -0.85      0.00
  -18    0    4     -1.06      0.00
  -16    0    4     -1.18      0.00
  -14    0    4     -1.35      0.00
  -12    0    4     -1.63      0.00
  -10    0    4     -1.94      0.00
   -8    0    4     -2.18      0.00
   -6    0    4     -2.31      0.00
   -4    0    4     -2.40      0.00
    2    0    4     -2.46      0.00
    4    0    4     -2.16      0.00
    6    0    4     -1.75      0.00
    8    0    4     -1.46      0.00
   10    0    4     -1.44      0.00
   12    0    4     -1.65      0.00
   14    0    4     -1.87      0.00
   16    0    4     -1.88      0.00
   18    0    4     -1.66      0.00
   20    0    4     -1.36      0.00
   22    0    4     -1.10      0.00
   24    0    4     -0.91      0.00
   26    0    4     -0.65      0.00
   28    0    4     -0.24      0.00
   30    0    4      0.24      0.00
   32    0    4      0.59      0.00
  -31    1    4      0.17      0.00
  -29    1    4     -0.01      0.00
  -27    1    4     -0.10      0.00
  -25    1    4      0.04      0.00
  -23    1    4      0.39      0.00
  -21    1    4      0.78      0.00
  -19    1    4      1.09      0.00
  -17    1    4      1.32      0.00
  -15    1    4      1.56      0.00
  -13    1    4      1.91      0.00
  -11    1    4      2.33      0.00
   -9    1    4      2.72      0.00
   -7    1    4      2.98      0.00
   -5    1    4      3.13      0.00
   -3    1    4      3.24      0.00
   -1    1    4      3.33      0.00
    1    1    4      3.30      0.00
    3    1    4      3.07      0.00
    5    1    4      2.66      0.00
    7    1    4      2.25      0.00
    9    1    4      2.06      0.00
   11    1    4      2.13      0.00
   13    1    4      2.29      0.00
   15    1    4      2.33      0.00
   17    1    4      2.13      0.00
   19    1    4      1.77      0.00
   21    1    4      1.44      0.00
   23    1    4      1.22      0.00
   25    1    4      1.02      0.00
   27    1    4      0.71      0.00
   29    1    4      0.25      0.00
   31    1    4     -0.20      0.00
  -32    2    4     -0.63      0.00
  -30    2    4     -0.56      0.00
  -28    2    4     -0.44      0.00
  -26    2    4     -0.42      0.00
  -24    2    4     -0.59      0.00
  -22    2    4     -0.90      0.00
  -20    2    4     -1.25      0.00
  -18    2    4     -1.60      0.00
  -16    2    4     -1.99      0.00
  -14    2    4     -2.50      0.00
  -12    2    4     -3.12      0.00
  -10    2    4     -3.73      0.00
   -8    2    4     -4.23      0.00
   -6    2    4     -4.57      0.00
   -4    2    4     -4.79      0.00
   -2    2    4     -4.94      0.00
    0    2    4     -4.98      0.00
    2    2    4     -4.82      0.00
    4    2    4     -4.45      0.00
    6    2    4     -3.99      0.00
    8    2    4     -3.63      0.00
   10    2    4     -3.47      0.00
   12    2    4     -3.45      0.00
   14    2    4     -3.35      0.00
   16    2    4     -3.03      0.00
   18    2    4     -2.54      0.00
   20    2    4     -2.05      0.00
   22    2    4     -1.73      0.00
   24    2    4     -1.55      0.00
   26    2    4     -1.35      0.00
   28    2    4     -0.99      0.00
   30    2    4     -0.51      0.00
  -31    3    4      0.95      0.00
  -29    3    4      0.96      0.00
  -27    3    4      0.95      0.00
  -25    3    4      1.02      0.00
  -23    3    4      1.22      0.00
  -21    3    4      1.51      0.00
  -19    3    4      1.85      0.00
  -17    3    4      2.25      0.00
  -15    3    4      2.76      0.00
  -13    3    4      3.38      0.00
  -11    3    4      4.06      0.00
   -9    3    4      4.68      0.00
   -7    3    4      5.18      0.00
   -5    3    4      5.56      0.00
   -3    3    4      5.86      0.00
   -1    3    4      6.05      0.00
    1    3    4      6.07      0.00
    3    3    4      5.86      0.00
    5    3    4      5.48      0.00
    7    3    4      5.08      0.00
    9    3    4      4.76      0.00
   11    3    4      4.52      0.00
   13    3    4      4.22      0.00
   15    3    4      3.75      0.00
   17    3    4      3.12      0.00
   19    3    4      2.50      0.00
   21    3    4      2.07      0.00
   23    3    4      1.87      0.00
   25    3    4      1.75      0.00
   27    3    4      1.51      0.00
   29    3    4      1.09      0.00
   31    3    4      0.59      0.00
  -30    4    4     -1.10      0.00
  -28    4    4     -1.23      0.00
  -26    4    4     -1.35      0.00
  -24    4    4     -1.50      0.00
  -22    4    4     -1.71      0.00
  -20    4    4     -1.94      0.00
  -18    4    4     -2.21      0.00
  -16    4    4     -2.54      0.00
  -14    4    4     -2.93      0.00
  -12    4    4     -3.39      0.00
  -10    4    4     -3.87      0.00
   -8    4    4     -4.34      0.00
   -6    4    4     -4.79      0.00
   -4    4    4     -5.21      0.00
   -2    4    4     -5.58      0.00
    0    4    4     -5.81      0.00
    2    4    4     -5.85      0.00
    4    4    4     -5.67      0.00
    6    4    4     -5.37      0.00
    8    4    4     -5.02      0.00
   10    4    4     -4.65      0.00
   12    4    4     -4.22      0.00
   14    4    4     -3.65      0.00
   16    4    4     -2.98      0.00
   18    4    4     -2.37      0.00
   20    4    4     -1.97      0.00
   22    4    4     -1.81      0.00
   24    4    4     -1.79      0.00
   26    4    4     -1.69      0.00
   28    4    4     -1.38      0.00
   30    4    4     -0.91      0.00
  -29    5    4      1.09      0.00
  -27    5    4      1.31      0.00
  -25    5    4      1.46      0.00
  -23    5    4      1.57      0.00
  -21    5    4      1.67      0.00
  -19    5    4      1.76      0.00
  -17    5    4      1.85      0.00
  -15    5    4      1.95      0.00
  -13    5    4      2.07      0.00
  -11    5    4      2.23      0.00
   -9    5    4      2.46      0.00
   -7    5    4      2.78      0.00
   -5    5    4      3.19      0.00
   -3    5    4      3.61      0.00
   -1    5    4      3.96      0.00
    1    5    4      4.16      0.00
    3    5    4      4.17      0.00
    5    5    4      4.03      0.00
    7    5    4      3.78      0.00
    9    5    4      3.43      0.00
   11    5    4      2.97      0.00
   13    5    4      2.43      0.00
   15    5    4      1.86      0.00
   17    5    4      1.42      0.00
   19    5    4      1.23      0.00
   21    5    4      1.28      0.00
   23    5    4      1.45      0.00
   25    5    4      1.55      0.00
   27    5    4      1.43      0.00
   29    5    4      1.09      0.00
  -28    6    4     -0.99      0.00
  -26    6    4     -1.11      0.00
  -24    6    4     -1.09      0.00
  -22    6    4     -0.98      0.00
  -20    6    4     -0.83      0.00
  -18    6    4     -0.71      0.00
  -16    6    4     -0.58      0.00
  -14    6    4     -0.44      0.00
  -12    6    4     -0.30      0.00
  -10    6    4     -0.22      0.00
   -8    6    4     -0.27      0.00
   -6    6    4     -0.46      0.00
   -4    6    4     -0.76      0.00
   -2    6    4     -1.04      0.00
    0    6    4     -1.23      0.00
    2    6    4     -1.30      0.00
    4    6    4     -1.28      0.00
    6    6    4     -1.18      0.00
    8    6    4     -0.99      0.00
   10    6    4     -0.70      0.00
   12    6    4     -0.33      0.00
   14    6    4      0.02      0.00
   16    6    4      0.22      0.00
   18    6    4      0.15      0.00
   20    6    4     -0.16      0.00
   22    6    4     -0.58      0.00
   24    6    4     -0.93      0.00
   26    6    4     -1.07      0.00
   28    6    4     -0.99      0.00
  -27    7    4      0.73      0.00
  -25    7    4      0.59      0.00
  -21    7    4     -0.16      0.00
  -19    7    4     -0.54      0.00
  -17    7    4     -0.86      0.00
  -15    7    4     -1.17      0.00
  -13    7    4     -1.49      0.00
  -11    7    4     -1.81      0.00
   -9    7    4     -2.06      0.00
   -7    7    4     -2.17      0.00
   -5    7    4     -2.15      0.00
   -3    7    4     -2.07      0.00
   -1    7    4     -2.02      0.00
    1    7    4     -2.01      0.00
    3    7    4     -2.00      0.00
    5    7    4     -1.96      0.00
    7    7    4     -1.90      0.00
    9    7    4     -1.88      0.00
   11    7    4     -1.93      0.00
   13    7    4     -1.99      0.00
   15    7    4     -1.93      0.00
   17    7    4     -1.68      0.00
   19    7    4     -1.22      0.00
   21    7    4     -0.68      0.00
   23    7    4     -0.18      0.00
   25    7    4      0.16      0.00
   27    7    4      0.36      0.00
  -26    8    4     -0.35      0.00
  -22    8    4      0.67      0.00
  -20    8    4      1.28      0.00
  -18    8    4      1.80      0.00
  -16    8    4      2.23      0.00
  -14    8    4      2.64      0.00
  -12    8    4      3.08      0.00
  -10    8    4      3.51      0.00
   -8    8    4      3.86      0.00
   -6    8    4      4.10      0.00
   -4    8    4      4.25      0.00
   -2    8    4      4.37      0.00
    0    8    4      4.46      0.00
    2    8    4      4.48      0.00
    4    8    4      4.37      0.00
    6    8    4      4.13      0.00
    8    8    4      3.82      0.00
   10    8    4      3.52      0.00
   12    8    4      3.26      0.00
   14    8    4      2.98      0.00
   16    8    4      2.62      0.00
   18    8    4      2.16      0.00
   20    8    4      1.67      0.00
   22    8    4      1.22      0.00
   24    8    4      0.86      0.00
  -23    9    4     -0.58      0.00
  -21    9    4     -1.22      0.00
  -19    9    4     -1.83      0.00
  -17    9    4     -2.35      0.00
  -15    9    4     -2.80      0.00
  -13    9    4     -3.25      0.00
  -11    9    4     -3.69      0.00
   -9    9    4     -4.10      0.00
   -7    9    4     -4.44      0.00
   -5    9    4     -4.70      0.00
   -3    9    4     -4.92      0.00
   -1    9    4     -5.09      0.00
    1    9    4     -5.18      0.00
    3    9    4     -5.12      0.00
    5    9    4     -4.87      0.00
    7    9    4     -4.47      0.00
    9    9    4     -4.02      0.00
   11    9    4     -3.58      0.00
   13    9    4     -3.15      0.00
   15    9    4     -2.72      0.00
   17    9    4     -2.27      0.00
   19    9    4     -1.86      0.00
   21    9    4     -1.53      0.00
   23    9    4     -1.27      0.00
  -20   10    4      1.18      0.00
  -18   10    4      1.66      0.00
  -16   10    4      2.09      0.00
  -14   10    4      2.48      0.00
  -12   10    4      2.84      0.00
  -10   10    4      3.16      0.00
   -8   10    4      3.42      0.00
   -6   10    4      3.63      0.00
   -4   10    4      3.83      0.00
   -2   10    4      4.03      0.00
    0   10    4      4.19      0.00
    2   10    4      4.24      0.00
    4   10    4      4.13      0.00
    6   10    4      3.87      0.00
    8   10    4      3.53      0.00
   10   10    4      3.17      0.00
   12   10    4      2.79      0.00
   14   10    4      2.38      0.00
   16   10    4      1.93      0.00
   18   10    4      1.51      0.00
   20   10    4      1.17      0.00
  -17   11    4     -1.00      0.00
  -15   11    4     -1.31      0.00
  -13   11    4     -1.57      0.00
  -11   11    4     -1.76      0.00
   -9   11    4     -1.88      0.00
   -7   11    4     -1.96      0.00
   -5   11    4     -2.07      0.00
   -3   11    4     -2.24      0.00
   -1   11    4     -2.45      0.00
    1   11    4     -2.61      0.00
    3   11    4     -2.67      0.00
    5   11    4     -2.61      0.00
    7   11    4     -2.48      0.00
    9   11    4     -2.34      0.00
   13   11    4     -1.95      0.00
   15   11    4     -1.61      0.00
   17   11    4     -1.17      0.00
  -10   12    4      0.57      0.00
   -8   12    4      0.54      0.00
   -6   12    4      0.55      0.00
   -4   12    4      0.67      0.00
   -2   12    4      0.89      0.00
    0   12    4      1.12      0.00
    2   12    4      1.27      0.00
    4   12    4      1.30      0.00
    6   12    4      1.29      0.00
    8   12    4      1.30      0.00
   10   12    4      1.34      0.00
   12   12    4      1.36      0.00
   -5   13    4      0.28      0.00
   -3   13    4      0.10      0.00
   -1   13    4     -0.14      0.00
    1   13    4     -0.32      0.00
    3   13    4     -0.37      0.00
    5   13    4     -0.34      0.00
  -29    1    5      0.85      0.00
  -27    1    5      0.90      0.00
  -25    1    5      0.92      0.00
  -23    1    5      0.99      0.00
  -21    1    5      1.14      0.00
  -19    1    5      1.39      0.00
  -17    1    5      1.72      0.00
  -15    1    5      2.09      0.00
  -13    1    5      2.47      0.00
  -11    1    5      2.83      0.00
   -9    1    5      3.16      0.00
   -7    1    5      3.43      0.00
   -5    1    5      3.58      0.00
   -3    1    5      3.58      0.00
   -1    1    5      3.40      0.00
    1    1    5      3.07      0.00
    3    1    5      2.71      0.00
    5    1    5      2.40      0.00
    7    1    5      2.17      0.00
    9    1    5      1.97      0.00
   11    1    5      1.73      0.00
   13    1    5      1.41      0.00
   15    1    5      1.04      0.00
   17    1    5      0.68      0.00
   19    1    5      0.40      0.00
   21    1    5      0.21      0.00
   23    1    5      0.09      0.00
   25    1    5      0.00      0.00
   27    1    5     -0.04      0.00
   29    1    5     -0.02      0.00
  -30    2    5     -1.02      0.00
  -28    2    5     -1.16      0.00
  -26    2    5     -1.26      0.00
  -24    2    5     -1.38      0.00
  -22    2    5     -1.60      0.00
  -20    2    5     -1.98      0.00
  -18    2    5     -2.50      0.00
  -16    2    5     -3.10      0.00
  -14    2    5     -3.68      0.00
  -12    2    5     -4.20      0.00
  -10    2    5     -4.64      0.00
   -8    2    5     -5.02      0.00
   -6    2    5     -5.33      0.00
   -4    2    5     -5.48      0.00
   -2    2    5     -5.39      0.00
    0    2    5     -5.03      0.00
    2    2    5     -4.49      0.00
    4    2    5     -3.91      0.00
    6    2    5     -3.42      0.00
    8    2    5     -3.03      0.00
   10    2    5     -2.63      0.00
   12    2    5     -2.14      0.00
   14    2    5     -1.56      0.00
   16    2    5     -0.98      0.00
   18    2    5     -0.52      0.00
   20    2    5     -0.23      0.00
   22    2    5     -0.05      0.00
   24    2    5      0.08      0.00
   26    2    5      0.20      0.00
   28    2    5      0.25      0.00
  -29    3    5      0.81      0.00
  -27    3    5      0.98      0.00
  -25    3    5      1.15      0.00
  -23    3    5      1.38      0.00
  -21    3    5      1.73      0.00
  -19    3    5      2.25      0.00
  -17    3    5      2.88      0.00
  -15    3    5      3.50      0.00
  -13    3    5      4.00      0.00
  -11    3    5      4.34      0.00
   -9    3    5      4.58      0.00
   -7    3    5      4.82      0.00
   -5    3    5      5.06      0.00
   -3    3    5      5.19      0.00
   -1    3    5      5.07      0.00
    1    3    5      4.65      0.00
    3    3    5      4.03      0.00
    5    3    5      3.37      0.00
    7    3    5      2.79      0.00
    9    3    5      2.27      0.00
   11    3    5      1.73      0.00
   13    3    5      1.13      0.00
   15    3    5      0.54      0.00
   17    3    5      0.09      0.00
   19    3    5     -0.13      0.00
   21    3    5     -0.19      0.00
   23    3    5     -0.21      0.00
   25    3    5     -0.29      0.00
   27    3    5     -0.41      0.00
   29    3    5     -0.45      0.00
  -28    4    5     -0.59      0.00
  -26    4    5     -0.80      0.00
  -24    4    5     -0.95      0.00
  -22    4    5     -1.11      0.00
  -20    4    5     -1.37      0.00
  -18    4    5     -1.78      0.00
  -16    4    5     -2.26      0.00
  -14    4    5     -2.68      0.00
  -12    4    5     -2.90      0.00
  -10    4    5     -2.96      0.00
   -8    4    5     -3.00      0.00
   -6    4    5     -3.13      0.00
   -4    4    5     -3.34      0.00
   -2    4    5     -3.47      0.00
    0    4    5     -3.33      0.00
    2    4    5     -2.88      0.00
    4    4    5     -2.25      0.00
    6    4    5     -1.60      0.00
    8    4    5     -1.04      0.00
   10    4    5     -0.53      0.00
   12    4    5     -0.02      0.00
   14    4    5      0.46      0.00
   16    4    5      0.77      0.00
   18    4    5      0.82      0.00
   20    4    5      0.64      0.00
   22    4    5      0.39      0.00
   24    4    5      0.25      0.00
   26    4    5      0.27      0.00
   28    4    5      0.36      0.00
  -27    5    5      0.66      0.00
  -25    5    5      0.76      0.00
  -23    5    5      0.67      0.00
  -21    5    5      0.52      0.00
  -19    5    5      0.47      0.00
  -17    5    5      0.60      0.00
  -15    5    5      0.82      0.00
  -13    5    5      1.00      0.00
  -11    5    5      1.03      0.00
   -9    5    5      0.97      0.00
   -7    5    5      0.95      0.00
   -5    5    5      1.06      0.00
   -3    5    5      1.22      0.00
   -1    5    5      1.23      0.00
    1    5    5      0.99      0.00
    3    5    5      0.52      0.00
    5    5    5     -0.02      0.00
    7    5    5     -0.48      0.00
    9    5    5     -0.85      0.00
   11    5    5     -1.18      0.00
   13    5    5     -1.49      0.00
   15    5    5     -1.68      0.00
   17    5    5     -1.63      0.00
   19    5    5     -1.30      0.00
   21    5    5     -0.81      0.00
   23    5    5     -0.37      0.00
   25    5    5     -0.13      0.00
   27    5    5     -0.09      0.00
  -26    6    5     -0.70      0.00
  -24    6    5     -0.52      0.00
  -22    6    5     -0.10      0.00
  -20    6    5      0.38      0.00
  -18    6    5      0.70      0.00
  -16    6    5      0.77      0.00
  -14    6    5      0.70      0.00
  -12    6    5      0.60      0.00
  -10    6    5      0.58      0.00
   -8    6    5      0.61      0.00
   -6    6    5      0.60      0.00
   -4    6    5      0.58      0.00
   -2    6    5      0.62      0.00
    0    6    5      0.81      0.00
    2    6    5      1.15      0.00
    4    6    5      1.51      0.00
    6    6    5      1.77      0.00
    8    6    5      1.89      0.00
   10    6    5      1.96      0.00
   12    6    5      2.06      0.00
   14    6    5      2.17      0.00
   16    6    5      2.16      0.00
   18    6    5      1.90      0.00
   20    6    5      1.42      0.00
   22    6    5      0.86      0.00
   24    6    5      0.40      0.00
   26    6    5      0.12      0.00
  -25    7    5      0.32      0.00
  -23    7    5     -0.06      0.00
  -21    7    5     -0.61      0.00
  -19    7    5     -1.14      0.00
  -17    7    5     -1.45      0.00
  -15    7    5     -1.50      0.00
  -13    7    5     -1.40      0.00
  -11    7    5     -1.26      0.00
   -9    7    5     -1.17      0.00
   -7    7    5     -1.15      0.00
   -5    7    5     -1.22      0.00
   -3    7    5     -1.38      0.00
   -1    7    5     -1.66      0.00
    1    7    5     -2.00      0.00
    3    7    5     -2.27      0.00
    5    7    5     -2.36      0.00
    7    7    5     -2.26      0.00
    9    7    5     -2.07      0.00
   11    7    5     -1.96      0.00
   13    7    5     -1.98      0.00
   15    7    5     -2.04      0.00
   17    7    5     -1.99      0.00
   19    7    5     -1.74      0.00
   21    7    5     -1.32      0.00
   23    7    5     -0.86      0.00
  -22    8    5      0.56      0.00
  -20    8    5      0.91      0.00
  -12    8    5      0.96      0.00
  -10    8    5      0.80      0.00
   -8    8    5      0.73      0.00
   -6    8    5      0.78      0.00
   -4    8    5      0.99      0.00
   -2    8    5      1.31      0.00
    0    8    5      1.68      0.00
    2    8    5      1.95      0.00
    4    8    5      2.00      0.00
    6    8    5      1.83      0.00
    8    8    5      1.53      0.00
   10    8    5      1.29      0.00
   12    8    5      1.22      0.00
   14    8    5      1.30      0.00
   16    8    5      1.40      0.00
   18    8    5      1.39      0.00
   20    8    5      1.22      0.00
   22    8    5      0.95      0.00
  -21    9    5     -0.50      0.00
  -19    9    5     -0.49      0.00
  -17    9    5     -0.41      0.00
  -15    9    5     -0.27      0.00
  -13    9    5     -0.11      0.00
  -11    9    5      0.02      0.00
   -9    9    5      0.07      0.00
   -7    9    5      0.01      0.00
   -5    9    5     -0.16      0.00
   -3    9    5     -0.44      0.00
   -1    9    5     -0.75      0.00
    1    9    5     -0.97      0.00
    3    9    5     -1.00      0.00
    5    9    5     -0.84      0.00
    7    9    5     -0.57      0.00
    9    9    5     -0.35      0.00
   11    9    5     -0.29      0.00
   13    9    5     -0.38      0.00
   15    9    5     -0.53      0.00
   17    9    5     -0.62      0.00
   19    9    5     -0.61      0.00
  -18   10    5     -0.26      0.00
  -16   10    5     -0.48      0.00
  -14   10    5     -0.64      0.00
  -12   10    5     -0.70      0.00
  -10   10    5     -0.65      0.00
   -8   10    5     -0.51      0.00
   -6   10    5     -0.30      0.00
   -4   10    5     -0.07      0.00
   -2   10    5      0.12      0.00
    0   10    5      0.19      0.00
    2   10    5      0.10      0.00
    4   10    5     -0.12      0.00
    6   10    5     -0.38      0.00
    8   10    5     -0.55      0.00
   10   10    5     -0.54      0.00
   12   10    5     -0.38      0.00
   14   10    5     -0.18      0.00
   16   10    5     -0.03      0.00
  -13   11    5      0.90      0.00
  -11   11    5      0.80      0.00
   -9   11    5      0.58      0.00
   -7   11    5      0.30      0.00
   -5   11    5      0.04      0.00
   -3   11    5     -0.11      0.00
   -1   11    5     -0.07      0.00
    1   11    5      0.18      0.00
    3   11    5      0.56      0.00
    5   11    5      0.94      0.00
    7   11    5      1.16      0.00
    9   11    5      1.13      0.00
   11   11    5      0.90      0.00
   13   11    5      0.60      0.00
   -6   12    5      0.11      0.00
   -4   12    5      0.31      0.00
   -2   12    5      0.30      0.00
    0   12    5      0.04      0.00
    2   12    5     -0.42      0.00
    4   12    5     -0.91      0.00
    6   12    5     -1.25      0.00
  -28    0    6     -1.28      0.00
  -26    0    6     -1.59      0.00
  -24    0    6     -1.88      0.00
  -22    0    6     -2.07      0.00
  -20    0    6     -2.14      0.00
  -18    0    6     -2.15      0.00
  -16    0    6     -2.22      0.00
  -14    0    6     -2.40      0.00
  -12    0    6     -2.63      0.00
  -10    0    6     -2.84      0.00
   -8    0    6     -3.00      0.00
   -6    0    6     -3.22      0.00
   -4    0    6     -3.61      0.00
   -2    0    6     -4.15      0.00
    0    0    6     -4.70      0.00
    2    0    6     -5.08      0.00
    4    0    6     -5.20      0.00
    6    0    6     -5.14      0.00
    8    0    6     -5.01      0.00
   10    0    6     -4.87      0.00
   12    0    6     -4.65      0.00
   14    0    6     -4.24      0.00
   16    0    6     -3.67      0.00
   18    0    6     -3.07      0.00
   20    0    6     -2.58      0.00
   22    0    6     -2.23      0.00
   24    0    6     -1.91      0.00
   26    0    6     -1.48      0.00
  -27    1    6      1.08      0.00
  -25    1    6      1.38      0.00
  -23    1    6      1.64      0.00
  -21    1    6      1.78      0.00
  -19    1    6      1.82      0.00
  -17    1    6      1.86      0.00
  -15    1    6      2.00      0.00
  -13    1    6      2.25      0.00
  -11    1    6      2.51      0.00
   -9    1    6      2.70      0.00
   -7    1    6      2.84      0.00
   -5    1    6      3.05      0.00
   -3    1    6      3.39      0.00
   -1    1    6      3.81      0.00
    1    1    6      4.18      0.00
    3    1    6      4.38      0.00
    5    1    6      4.40      0.00
    7    1    6      4.34      0.00
    9    1    6      4.27      0.00
   11    1    6      4.16      0.00
   13    1    6      3.92      0.00
   15    1    6      3.51      0.00
   17    1    6      2.99      0.00
   19    1    6      2.53      0.00
   21    1    6      2.20      0.00
   23    1    6      1.95      0.00
   25    1    6      1.64      0.00
   27    1    6      1.18      0.00
  -26    2    6     -0.47      0.00
  -24    2    6     -0.76      0.00
  -22    2    6     -0.96      0.00
  -20    2    6     -1.02      0.00
  -18    2    6     -1.01      0.00
  -16    2    6     -1.07      0.00
  -14    2    6     -1.28      0.00
  -12    2    6     -1.58      0.00
  -10    2    6     -1.86      0.00
   -8    2    6     -2.01      0.00
   -6    2    6     -2.06      0.00
   -4    2    6     -2.10      0.00
   -2    2    6     -2.19      0.00
    0    2    6     -2.32      0.00
    2    2    6     -2.43      0.00
    4    2    6     -2.48      0.00
    6    2    6     -2.52      0.00
    8    2    6     -2.58      0.00
   10    2    6     -2.64      0.00
   12    2    6     -2.61      0.00
   14    2    6     -2.43      0.00
   16    2    6     -2.14      0.00
   18    2    6     -1.86      0.00
   20    2    6     -1.70      0.00
   22    2    6     -1.63      0.00
   24    2    6     -1.53      0.00
   26    2    6     -1.26      0.00
  -27    3    6     -0.15      0.00
  -25    3    6      0.06      0.00
  -23    3    6      0.25      0.00
  -21    3    6      0.28      0.00
  -19    3    6      0.16      0.00
  -17    3    6      0.00      0.00
  -15    3    6     -0.02      0.00
  -13    3    6      0.14      0.00
  -11    3    6      0.42      0.00
   -9    3    6      0.66      0.00
   -7    3    6      0.76      0.00
   -5    3    6      0.71      0.00
   -3    3    6      0.58      0.00
   -1    3    6      0.45      0.00
    1    3    6      0.37      0.00
    3    3    6      0.37      0.00
    5    3    6      0.45      0.00
    7    3    6      0.60      0.00
    9    3    6      0.77      0.00
   11    3    6      0.88      0.00
   13    3    6      0.86      0.00
   15    3    6      0.75      0.00
   17    3    6      0.65      0.00
   19    3    6      0.68      0.00
   21    3    6      0.85      0.00
   23    3    6      1.02      0.00
   25    3    6      1.04      0.00
  -26    4    6      0.05      0.00
  -24    4    6     -0.09      0.00
  -22    4    6     -0.09      0.00
  -20    4    6      0.13      0.00
  -18    4    6      0.50      0.00
  -16    4    6      0.86      0.00
  -14    4    6      1.05      0.00
  -12    4    6      1.02      0.00
  -10    4    6      0.84      0.00
   -8    4    6      0.66      0.00
   -6    4    6      0.59      0.00
   -4    4    6      0.67      0.00
   -2    4    6      0.84      0.00
    0    4    6      1.02      0.00
    2    4    6      1.12      0.00
    4    4    6      1.08      0.00
    6    4    6      0.91      0.00
    8    4    6      0.70      0.00
   10    4    6      0.56      0.00
   12    4    6      0.55      0.00
   14    4    6      0.62      0.00
   16    4    6      0.67      0.00
   18    4    6      0.55      0.00
   20    4    6      0.24      0.00
   22    4    6     -0.15      0.00
   24    4    6     -0.45      0.00
  -23    5    6      0.32      0.00
  -21    5    6      0.17      0.00
  -19    5    6     -0.20      0.00
  -17    5    6     -0.68      0.00
  -15    5    6     -1.15      0.00
  -13    5    6     -1.45      0.00
  -11    5    6     -1.54      0.00
   -9    5    6     -1.46      0.00
   -7    5    6     -1.33      0.00
   -5    5    6     -1.27      0.00
   -3    5    6     -1.33      0.00
   -1    5    6     -1.48      0.00
    1    5    6     -1.64      0.00
    3    5    6     -1.68      0.00
    5    5    6     -1.59      0.00
    7    5    6     -1.43      0.00
    9    5    6     -1.30      0.00
   11    5    6     -1.29      0.00
   13    5    6     -1.39      0.00
   15    5    6     -1.48      0.00
   17    5    6     -1.40      0.00
   19    5    6     -1.09      0.00
   21    5    6     -0.65      0.00
   23    5    6     -0.22      0.00
  -22    6    6     -0.44      0.00
  -20    6    6     -0.30      0.00
  -18    6    6     -0.04      0.00
  -16    6    6      0.32      0.00
  -14    6    6      0.67      0.00
  -12    6    6      0.94      0.00
  -10    6    6      1.06      0.00
   -8    6    6      1.03      0.00
   -6    6    6      0.96      0.00
   -4    6    6      0.95      0.00
   -2    6    6      1.04      0.00
    0    6    6      1.21      0.00
    2    6    6      1.37      0.00
    4    6    6      1.42      0.00
    6    6    6      1.37      0.00
    8    6    6      1.30      0.00
   10    6    6      1.29      0.00
   12    6    6      1.36      0.00
   14    6    6      1.44      0.00
   16    6    6      1.39      0.00
   18    6    6      1.17      0.00
   20    6    6      0.81      0.00
  -21    7    6      0.32      0.00
  -19    7    6      0.35      0.00
  -17    7    6      0.35      0.00
  -15    7    6      0.28      0.00
  -13    7    6      0.16      0.00
  -11    7    6      0.05      0.00
   -9    7    6     -0.02      0.00
   -7    7    6     -0.02      0.00
   -5    7    6     -0.03      0.00
   -3    7    6     -0.11      0.00
   -1    7    6     -0.28      0.00
    1    7    6     -0.50      0.00
    3    7    6     -0.68      0.00
    5    7    6     -0.79      0.00
    7    7    6     -0.83      0.00
    9    7    6     -0.85      0.00
   11    7    6     -0.87      0.00
   13    7    6     -0.85      0.00
   15    7    6     -0.75      0.00
   17    7    6     -0.54      0.00
   19    7    6     -0.27      0.00
   21    7    6     -0.05      0.00
  -18    8    6     -0.20      0.00
  -16    8    6     -0.41      0.00
  -14    8    6     -0.58      0.00
  -10    8    6     -0.68      0.00
   -8    8    6     -0.66      0.00
   -6    8    6     -0.62      0.00
   -4    8    6     -0.53      0.00
   -2    8    6     -0.40      0.00
    0    8    6     -0.22      0.00
    2    8    6     -0.02      0.00
    4    8    6      0.15      0.00
    6    8    6      0.29      0.00
    8    8    6      0.39      0.00
   10    8    6      0.42      0.00
   12    8    6      0.35      0.00
   14    8    6      0.16      0.00
   16    8    6     -0.11      0.00
   18    8    6     -0.35      0.00
  -17    9    6     -0.09      0.00
  -15    9    6      0.15      0.00
   -9    9    6      0.56      0.00
   -7    9    6      0.53      0.00
   -5    9    6      0.45      0.00
   -3    9    6      0.36      0.00
   -1    9    6      0.27      0.00
    1    9    6      0.20      0.00
    3    9    6      0.11      0.00
    5    9    6     -0.01      0.00
    7    9    6     -0.14      0.00
    9    9    6     -0.24      0.00
   11    9    6     -0.23      0.00
   13    9    6     -0.06      0.00
   15    9    6      0.22      0.00
  -12   10    6     -0.01      0.00
  -10   10    6     -0.10      0.00
   -8   10    6     -0.10      0.00
   -6   10    6     -0.03      0.00
   -4   10    6      0.06      0.00
   -2   10    6      0.10      0.00
    0   10    6      0.07      0.00
    2   10    6      0.02      0.00
    4   10    6      0.00      0.00
    6   10    6      0.07      0.00
    8   10    6      0.20      0.00
   10   10    6      0.30      0.00
   -3   11    6     -0.28      0.00
   -1   11    6     -0.27      0.00
    1   11    6     -0.18      0.00
    5   11    6     -0.04      0.00
  -23    1    7     -0.56      0.00
  -21    1    7     -0.81      0.00
  -19    1    7     -1.05      0.00
  -17    1    7     -1.23      0.00
  -15    1    7     -1.37      0.00
  -13    1    7     -1.45      0.00
  -11    1    7     -1.49      0.00
   -9    1    7     -1.47      0.00
   -7    1    7     -1.42      0.00
   -5    1    7     -1.35      0.00
   -3    1    7     -1.26      0.00
   -1    1    7     -1.14      0.00
    1    1    7     -1.00      0.00
    3    1    7     -0.83      0.00
    5    1    7     -0.66      0.00
    7    1    7     -0.55      0.00
    9    1    7     -0.52      0.00
   11    1    7     -0.56      0.00
   13    1    7     -0.61      0.00
   15    1    7     -0.59      0.00
   17    1    7     -0.46      0.00
   19    1    7     -0.24      0.00
   21    1    7     -0.04      0.00
   23    1    7      0.09      0.00
  -22    2    7      1.20      0.00
  -20    2    7      1.60      0.00
  -18    2    7      1.91      0.00
  -16    2    7      2.12      0.00
  -14    2    7      2.25      0.00
  -12    2    7      2.34      0.00
  -10    2    7      2.38      0.00
   -8    2    7      2.38      0.00
   -6    2    7      2.32      0.00
   -4    2    7      2.20      0.00
   -2    2    7      2.02      0.00
    0    2    7      1.79      0.00
    2    2    7      1.52      0.00
    4    2    7      1.22      0.00
    6    2    7      0.98      0.00
    8    2    7      0.86      0.00
   10    2    7      0.89      0.00
   12    2    7      0.99      0.00
   14    2    7      1.02      0.00
   16    2    7      0.88      0.00
   18    2    7      0.57      0.00
   20    2    7      0.21      0.00
   22    2    7     -0.07      0.00
  -23    3    7     -1.11      0.00
  -21    3    7     -1.58      0.00
  -19    3    7     -1.91      0.00
  -17    3    7     -2.07      0.00
  -15    3    7     -2.13      0.00
  -13    3    7     -2.19      0.00
  -11    3    7     -2.29      0.00
   -9    3    7     -2.41      0.00
   -7    3    7     -2.50      0.00
   -5    3    7     -2.48      0.00
   -3    3    7     -2.35      0.00
   -1    3    7     -2.12      0.00
    1    3    7     -1.82      0.00
    3    3    7     -1.48      0.00
    5    3    7     -1.17      0.00
    7    3    7     -0.98      0.00
    9    3    7     -0.95      0.00
   11    3    7     -1.04      0.00
   13    3    7     -1.14      0.00
   15    3    7     -1.09      0.00
   17    3    7     -0.84      0.00
   19    3    7     -0.45      0.00
   21    3    7     -0.09      0.00
  -16    4    7      1.38      0.00
  -14    4    7      1.29      0.00
  -12    4    7      1.33      0.00
  -10    4    7      1.52      0.00
   -8    4    7      1.78      0.00
   -6    4    7      1.97      0.00
   -4    4    7      2.01      0.00
   -2    4    7      1.88      0.00
    0    4    7      1.64      0.00
    2    4    7      1.32      0.00
    4    4    7      1.01      0.00
    6    4    7      0.76      0.00
    8    4    7      0.67      0.00
   10    4    7      0.74      0.00
   12    4    7      0.90      0.00
   14    4    7      1.00      0.00
   16    4    7      0.91      0.00
   18    4    7      0.64      0.00
   20    4    7      0.31      0.00
  -21    5    7     -0.74      0.00
  -19    5    7     -0.77      0.00
  -17    5    7     -0.61      0.00
  -15    5    7     -0.39      0.00
  -13    5    7     -0.30      0.00
  -11    5    7     -0.41      0.00
   -9    5    7     -0.70      0.00
   -7    5    7     -1.00      0.00
   -5    5    7     -1.20      0.00
   -3    5    7     -1.21      0.00
   -1    5    7     -1.06      0.00
    1    5    7     -0.79      0.00
    3    5    7     -0.46      0.00
    5    5    7     -0.15      0.00
    7    5    7      0.04      0.00
    9    5    7      0.02      0.00
   13    5    7     -0.46      0.00
   15    5    7     -0.64      0.00
   17    5    7     -0.62      0.00
  -18    6    7      0.22      0.00
  -16    6    7      0.06      0.00
  -14    6    7     -0.06      0.00
  -12    6    7     -0.03      0.00
  -10    6    7      0.15      0.00
   -8    6    7      0.38      0.00
   -6    6    7      0.56      0.00
   -4    6    7      0.60      0.00
   -2    6    7      0.47      0.00
    0    6    7      0.20      0.00
    2    6    7     -0.19      0.00
    4    6    7     -0.63      0.00
    6    6    7     -0.98      0.00
    8    6    7     -1.10      0.00
   10    6    7     -0.92      0.00
   12    6    7     -0.50      0.00
   14    6    7     -0.03      0.00
   16    6    7      0.30      0.00
   18    6    7      0.37      0.00
  -17    7    7     -0.17      0.00
  -15    7    7     -0.21      0.00
  -13    7    7     -0.30      0.00
  -11    7    7     -0.44      0.00
   -9    7    7     -0.57      0.00
   -7    7    7     -0.62      0.00
   -5    7    7     -0.54      0.00
   -3    7    7     -0.34      0.00
   -1    7    7     -0.01      0.00
    1    7    7      0.46      0.00
    3    7    7      1.03      0.00
    5    7    7      1.58      0.00
    7    7    7      1.92      0.00
    9    7    7      1.89      0.00
   11    7    7      1.47      0.00
   13    7    7      0.82      0.00
   15    7    7      0.21      0.00
  -12    8    7      0.89      0.00
  -10    8    7      1.05      0.00
   -6    8    7      0.92      0.00
   -4    8    7      0.66      0.00
   -2    8    7      0.29      0.00
    0    8    7     -0.20      0.00
    2    8    7     -0.79      0.00
    4    8    7     -1.43      0.00
    6    8    7     -1.94      0.00
    8    8    7     -2.12      0.00
   10    8    7     -1.87      0.00
   -9    9    7     -1.10      0.00
   -5    9    7     -0.84      0.00
   -3    9    7     -0.56      0.00
   -1    9    7     -0.20      0.00
    1    9    7      0.25      0.00
    3    9    7      0.76      0.00
    5    9    7      1.23      0.00
  -16    0    8      2.32      0.00
  -14    0    8      2.85      0.00
  -12    0    8      3.22      0.00
  -10    0    8      3.43      0.00
   -8    0    8      3.43      0.00
   -6    0    8      3.20      0.00
   -4    0    8      2.80      0.00
   -2    0    8      2.41      0.00
    0    0    8      2.22      0.00
    2    0    8      2.31      0.00
    4    0    8      2.60      0.00
    6    0    8      2.84      0.00
    8    0    8      2.86      0.00
   10    0    8      2.62      0.00
   12    0    8      2.22      0.00
   14    0    8      1.81      0.00
   16    0    8      1.45      0.00
   18    0    8      1.11      0.00
  -17    1    8     -1.90      0.00
  -15    1    8     -2.35      0.00
  -13    1    8     -2.64      0.00
  -11    1    8     -2.80      0.00
   -9    1    8     -2.85      0.00
   -7    1    8     -2.77      0.00
   -5    1    8     -2.54      0.00
   -3    1    8     -2.25      0.00
   -1    1    8     -2.06      0.00
    1    1    8     -2.08      0.00
    3    1    8     -2.29      0.00
    5    1    8     -2.55      0.00
    7    1    8     -2.66      0.00
    9    1    8     -2.51      0.00
   11    1    8     -2.18      0.00
   13    1    8     -1.78      0.00
   15    1    8     -1.42      0.00
  -18    2    8      1.39      0.00
  -16    2    8      1.62      0.00
  -14    2    8      1.64      0.00
  -12    2    8      1.53      0.00
  -10    2    8      1.42      0.00
   -8    2    8      1.38      0.00
   -6    2    8      1.37      0.00
   -4    2    8      1.37      0.00
   -2    2    8      1.39      0.00
    0    2    8      1.48      0.00
    2    2    8      1.66      0.00
    4    2    8      1.84      0.00
    6    2    8      1.92      0.00
    8    2    8      1.81      0.00
   10    2    8      1.56      0.00
   12    2    8      1.25      0.00
   14    2    8      0.98      0.00
   16    2    8      0.76      0.00
  -17    3    8     -0.92      0.00
  -15    3    8     -0.73      0.00
  -13    3    8     -0.39      0.00
  -11    3    8     -0.05      0.00
   -9    3    8      0.13      0.00
   -7    3    8      0.11      0.00
   -5    3    8     -0.05      0.00
   -3    3    8     -0.26      0.00
   -1    3    8     -0.46      0.00
    1    3    8     -0.61      0.00
    3    3    8     -0.69      0.00
    5    3    8     -0.66      0.00
    7    3    8     -0.52      0.00
    9    3    8     -0.33      0.00
   11    3    8     -0.16      0.00
   13    3    8     -0.09      0.00
   15    3    8     -0.10      0.00
  -16    4    8      0.11      0.00
  -14    4    8     -0.26      0.00
  -12    4    8     -0.67      0.00
  -10    4    8     -0.97      0.00
   -8    4    8     -1.08      0.00
   -6    4    8     -1.01      0.00
   -4    4    8     -0.86      0.00
   -2    4    8     -0.72      0.00
    0    4    8     -0.66      0.00
    2    4    8     -0.70      0.00
    4    4    8     -0.86      0.00
    6    4    8     -1.07      0.00
    8    4    8     -1.25      0.00
   10    4    8     -1.29      0.00
   12    4    8     -1.14      0.00
   14    4    8     -0.84      0.00
  -15    5    8      0.43      0.00
  -13    5    8      0.72      0.00
  -11    5    8      0.98      0.00
   -9    5    8      1.16      0.00
   -3    5    8      1.45      0.00
   -1    5    8      1.58      0.00
    1    5    8      1.78      0.00
    3    5    8      2.03      0.00
    5    5    8      2.30      0.00
    7    5    8      2.48      0.00
    9    5    8      2.46      0.00
   11    5    8      2.19      0.00
   13    5    8      1.70      0.00
  -10    6    8     -0.67      0.00
   -8    6    8     -0.83      0.00
   -6    6    8     -1.05      0.00
   -4    6    8     -1.34      0.00
   -2    6    8     -1.66      0.00
    0    6    8     -1.98      0.00
    2    6    8     -2.27      0.00
    4    6    8     -2.52      0.00
    6    6    8     -2.67      0.00
    8    6    8     -2.64      0.00
   10    6    8     -2.38      0.00
   -3    7    8      0.99      0.00
   -1    7    8      1.32      0.00
    1    7    8      1.58      0.00
    3    7    8      1.75      0.00
    5    7    8      1.82      0.00
   -9    1    9      0.83      0.00
   -7    1    9      0.68      0.00
   -5    1    9      0.36      0.00
   -3    1    9      0.03      0.00
   -1    1    9     -0.14      0.00
    1    1    9     -0.06      0.00
    3    1    9      0.25      0.00
    5    1    9      0.63      0.00
    7    1    9      0.89      0.00
    9    1    9      0.92      0.00
   -8    2    9     -0.99      0.00
   -6    2    9     -0.59      0.00
   -4    2    9     -0.09      0.00
   -2    2    9      0.28      0.00
    0    2    9      0.29      0.00
    2    2    9     -0.07      0.00
    4    2    9     -0.63      0.00
    6    2    9     -1.13      0.00
    8    2    9     -1.33      0.00
   -7    3    9      0.41      0.00
   -5    3    9      0.00      0.00
   -3    3    9     -0.35      0.00
   -1    3    9     -0.43      0.00
    1    3    9     -0.17      0.00
    3    3    9      0.32      0.00
    5    3    9      0.81      0.00
   -4    4    9      0.35      0.00
   -2    4    9      0.34      0.00
    0    4    9      0.15      0.00
    2    4    9     -0.17      0.00
   36    0    0      1.55      0.00
   34    2    0      0.69      0.00
   35    3    0      0.11      0.00
   11    5    0      3.83      0.00
   13    5    0      3.23      0.00
   31    7    0     -0.02      0.00
   26   10    0     -0.29      0.00
   23   11    0      0.04      0.00
   17   13    0      0.03      0.00
   35    1    1      0.24      0.00
  -35    3    1      0.99      0.00
   35    3    1      0.22      0.00
  -34    4    1     -0.65      0.00
   31    7    1     -0.02      0.00
  -30    8    1      0.69      0.00
   30    8    1      0.43      0.00
  -27    9    1      0.10      0.00
  -26   10    1     -0.44      0.00
   26   10    1      0.37      0.00
   23   11    1     -0.23      0.00
  -20   12    1     -1.05      0.00
   -6   12    1     -2.75      0.00
   20   12    1      0.07      0.00
   10   14    1     -0.87      0.00
    2    0    2     -1.50      0.00
   35    1    2      0.15      0.00
   34    2    2      0.06      0.00
  -34    4    2      0.34      0.00
  -33    5    2     -0.92      0.00
   33    5    2      0.12      0.00
   32    6    2     -0.35      0.00
  -31    7    2     -0.89      0.00
  -23   11    2      0.72      0.00
   21   11    2      0.24      0.00
  -15   13    2     -0.43      0.00
   15   13    2     -0.95      0.00
   -8   14    2      0.06      0.00
    6   14    2      1.40      0.00
    8   14    2      1.30      0.00
  -34    2    3     -0.49      0.00
  -33    3    3      0.60      0.00
   33    3    3     -0.13      0.00
   31    5    3      0.00      0.00
  -25    7    3      1.72      0.00
   28    8    3     -0.60      0.00
  -24   10    3      0.39      0.00
  -21   11    3     -0.75      0.00
   21   11    3     -0.23      0.00
  -18   12    3      1.20      0.00
  -13   13    3     -1.15      0.00
   11   13    3     -0.29      0.00
    0   14    3      0.35      0.00
   -2    0    4     -2.49      0.00
    0    0    4     -2.55      0.00
  -33    1    4      0.29      0.00
   32    2    4     -0.09      0.00
  -23    7    4      0.26      0.00
  -24    8    4      0.07      0.00
   26    8    4      0.54      0.00
  -22   10    4      0.68      0.00
  -19   11    4     -0.69      0.00
   11   11    4     -2.18      0.00
  -14   12    4      0.46      0.00
  -12   12    4      0.56      0.00
   14   12    4      1.24      0.00
   -7   13    4      0.33      0.00
    7   13    4     -0.33      0.00
  -31    1    5      0.73      0.00
   30    2    5      0.19      0.00
   25    7    5     -0.47      0.00
  -24    8    5      0.24      0.00
  -18    8    5      1.16      0.00
  -16    8    5      1.23      0.00
  -14    8    5      1.14      0.00
   21    9    5     -0.51      0.00
   18   10    5      0.01      0.00
  -15   11    5      0.85      0.00
   -8   12    5     -0.17      0.00
    8   12    5     -1.31      0.00
  -28    2    6     -0.23      0.00
  -25    5    6      0.29      0.00
  -24    6    6     -0.46      0.00
   22    6    6      0.44      0.00
  -20    8    6     -0.03      0.00
  -12    8    6     -0.66      0.00
  -13    9    6      0.37      0.00
  -11    9    6      0.51      0.00
   17    9    6      0.47      0.00
  -14   10    6      0.14      0.00
   12   10    6      0.25      0.00
   -7   11    6     -0.11      0.00
   -5   11    6     -0.21      0.00
    3   11    6     -0.07      0.00
    7   11    6     -0.13      0.00
  -25    1    7     -0.34      0.00
  -24    2    7      0.76      0.00
  -22    4    7      1.12      0.00
  -20    4    7      1.40      0.00
  -18    4    7      1.47      0.00
   22    4    7      0.07      0.00
   11    5    7     -0.18      0.00
   19    5    7     -0.44      0.00
  -20    6    7      0.30      0.00
   17    7    7     -0.16      0.00
  -14    8    7      0.65      0.00
   -8    8    7      1.06      0.00
   12    8    7     -1.27      0.00
   14    8    7     -0.59      0.00
  -11    9    7     -0.98      0.00
   -7    9    7     -1.04      0.00
    7    9    7      1.50      0.00
    9    9    7      1.45      0.00
    0   10    7      0.06      0.00
  -20    0    8      0.92      0.00
  -18    0    8      1.65      0.00
  -19    1    8     -1.29      0.00
   17    1    8     -1.11      0.00
   18    2    8      0.58      0.00
   17    3    8     -0.14      0.00
   16    4    8     -0.49      0.00
   -7    5    8      1.28      0.00
   -5    5    8      1.36      0.00
  -12    6    8     -0.55      0.00
   12    6    8     -1.90      0.00
   -9    7    8      0.23      0.00
   -7    7    8      0.39      0.00
   -5    7    8      0.66      0.00
    7    7    8      1.76      0.00
    0    8    8     -0.61      0.00
  -11    1    9      0.76      0.00
  -10    2    9     -1.10      0.00
   10    2    9     -1.16      0.00
   -9    3    9      0.70      0.00
    7    3    9      1.08      0.00
   -6    4    9      0.21      0.00
    4    4    9     -0.46      0.00
    0    0    0      0.00      0.00
# SQUEEZE RESULTS (Version = 291119)
# Note: Data are Listed for all Voids in the P1 Unit Cell
# i.e. Centre of Gravity, Solvent Accessible Volume,
# Recovered number of Electrons in the Void and
# Details about the Squeezed Material
loop_
  _platon_squeeze_void_nr
  _platon_squeeze_void_average_x
  _platon_squeeze_void_average_y
  _platon_squeeze_void_average_z
  _platon_squeeze_void_volume
  _platon_squeeze_void_count_electrons
  _platon_squeeze_void_content
   1  0.000  0.500 -0.043       139        34 ' '
   2  0.500  1.000 -0.039       139        34 ' '
# Missing Reflections Below sin(th)/lambda = 0.25
loop_
  _platon_missing_refln_index_h
  _platon_missing_refln_index_k
  _platon_missing_refln_index_l
  _platon_missing_refln_theta
    2    0    2    12.390
_platon_squeeze_void_probe_radius                  1.20
_platon_squeeze_details
)
TITL tf-12-smart-abs  C 1 2/c 1    R = 0.05
CELL   28.4741   11.5814    7.4663     90.00     91.13     90.00
SPGR C2/c
# Solvent Accessible Volume =       272
# Electrons Found in S.A.V. =        68
# Note: Atoms in Void are Labelled as Cxxx and Qxxx for all Others
C101 0.500 0.109 0.243 !       4.92 eA-3
C102 1.002 0.460 0.595 !       2.85 eA-3
C103 0.990 0.436 0.129 !       2.59 eA-3
Q104 0.267 0.311 0.755 !       0.55 eA-3
)
;
_shelx_fab_checksum                18649
_platon_squeeze_details            ?
_platon_squeeze_special_details    ?
loop_
  _platon_squeeze_void_nr
  _platon_squeeze_void_average_x
  _platon_squeeze_void_average_y
  _platon_squeeze_void_average_z
  _platon_squeeze_void_volume
  _platon_squeeze_void_count_electrons
  _platon_squeeze_void_content
 1 0.000 0.500 -0.043 139 34 ' '
 2 0.500 1.000 -0.039 139 34 ' '

_platon_squeeze_void_probe_radius  1.20
_olex2_submission_special_instructions  'No special instructions were received'
_oxdiff_exptl_absorpt_empirical_details
;
Empirical correction (ABSPACK) includes:
- Absorption correction using spherical harmonics
- Frame scaling
;
_oxdiff_exptl_absorpt_empirical_full_max  1.337
_oxdiff_exptl_absorpt_empirical_full_min  0.772
