 
data_shelx
 
_audit_creation_method            'SHELXL-2016/6'
_shelx_SHELXL_version_number      '2016/6'
_chemical_name_systematic         ?
_chemical_name_common             ?
_chemical_melting_point           ?
_chemical_formula_moiety          ?
_chemical_formula_sum
 'C21 H23 N3 O2 Se' 
_chemical_formula_weight          428.38
_chemical_oxdiff_usercomment 'Toms Benzyl Ebselen from THF/DMAP'

loop_
 _atom_type_symbol
 _atom_type_description
 _atom_type_scat_dispersion_real
 _atom_type_scat_dispersion_imag
 _atom_type_scat_source
 'C'  'C'   0.0181   0.0091
 'International Tables Vol C Tables 4.2.6.8 and 6.1.1.4'
 'H'  'H'   0.0000   0.0000
 'International Tables Vol C Tables 4.2.6.8 and 6.1.1.4'
 'N'  'N'   0.0311   0.0180
 'International Tables Vol C Tables 4.2.6.8 and 6.1.1.4'
 'O'  'O'   0.0492   0.0322
 'International Tables Vol C Tables 4.2.6.8 and 6.1.1.4'
 'Se'  'Se'  -0.7943   1.1372
 'International Tables Vol C Tables 4.2.6.8 and 6.1.1.4'
 
_space_group_crystal_system       triclinic
_space_group_IT_number            2
_space_group_name_H-M_alt         'P -1'
_space_group_name_Hall            '-P 1'
 
_shelx_space_group_comment
;
The symmetry employed for this shelxl refinement is uniquely defined
by the following loop, which should always be used as a source of
symmetry information in preference to the above space-group names.
They are only intended as comments.
;
 
loop_
 _space_group_symop_operation_xyz
 'x, y, z'
 '-x, -y, -z'
 
_cell_length_a                    9.6639(8)
_cell_length_b                    10.1764(7)
_cell_length_c                    10.5599(7)
_cell_angle_alpha                 84.394(6)
_cell_angle_beta                  76.459(7)
_cell_angle_gamma                 77.948(7)
_cell_volume                      986.08(13)
_cell_formula_units_Z             2
_cell_measurement_temperature   130.01(10) 
_cell_measurement_reflns_used   2557
_cell_measurement_theta_min     4.2870
_cell_measurement_theta_max     76.2500
 
_exptl_crystal_description        prism
_exptl_crystal_colour             colourless
_exptl_crystal_density_meas       ?
_exptl_crystal_density_method     ?
_exptl_crystal_density_diffrn     1.443          
_exptl_crystal_F_000              440
_exptl_transmission_factor_min    ?
_exptl_transmission_factor_max    ?
_exptl_crystal_size_max                             0.229
_exptl_crystal_size_mid                             0.130
_exptl_crystal_size_min                             0.056
_exptl_absorpt_coefficient_mu     2.744
_shelx_estimated_absorpt_T_min    ?
_shelx_estimated_absorpt_T_max    ?
_exptl_absorpt_correction_T_min                   0.73859
_exptl_absorpt_correction_T_max                   1.00000
_exptl_absorpt_correction_type            multi-scan
_exptl_absorpt_process_details
;
CrysAlisPro 1.171.38.43 (Rigaku Oxford Diffraction, 2015)
Empirical absorption correction using spherical harmonics,
 implemented in SCALE3 ABSPACK scaling algorithm.
;
_oxdiff_exptl_absorpt_empirical_full_min           0.539
_oxdiff_exptl_absorpt_empirical_full_max           1.581
_oxdiff_exptl_absorpt_empirical_details
;
Empirical correction (ABSPACK) includes:
- Absorption correction using spherical harmonics
- Frame scaling
;
_diffrn_ambient_temperature 130.01(10) 
_diffrn_ambient_environment N~2~
_diffrn_source 'micro-focus sealed X-ray tube'
_diffrn_source_type 'SuperNova (Cu) X-ray Source'
_diffrn_radiation_probe x-ray
_diffrn_radiation_type 'Cu K\a'
_diffrn_radiation_wavelength 1.54184
_diffrn_radiation_monochromator mirror
_diffrn_measurement_device 'four-circle diffractometer'
_diffrn_measurement_device_type 'SuperNova, Dual, Cu at zero, Atlas'
_diffrn_detector 'CCD plate'
_diffrn_detector_type Atlas
_diffrn_measurement_method '\w scans'
_diffrn_detector_area_resol_mean 10.2273
_diffrn_reflns_number             7070
_diffrn_reflns_av_unetI/netI      0.0565
_diffrn_reflns_av_R_equivalents   0.0430
_diffrn_reflns_limit_h_min        -11
_diffrn_reflns_limit_h_max        12
_diffrn_reflns_limit_k_min        -11
_diffrn_reflns_limit_k_max        12
_diffrn_reflns_limit_l_min        -13
_diffrn_reflns_limit_l_max        12
_diffrn_reflns_theta_min          4.312
_diffrn_reflns_theta_max          76.756
_diffrn_reflns_theta_full         67.684
_diffrn_measured_fraction_theta_max   0.971
_diffrn_measured_fraction_theta_full  0.995
_diffrn_reflns_Laue_measured_fraction_max    0.971
_diffrn_reflns_Laue_measured_fraction_full   0.995
_diffrn_reflns_point_group_measured_fraction_max   0.971
_diffrn_reflns_point_group_measured_fraction_full  0.995
_reflns_number_total              4036
_reflns_number_gt                 3241
_reflns_threshold_expression      'I > 2\s(I)'
_reflns_Friedel_coverage          0.000
_reflns_Friedel_fraction_max      .
_reflns_Friedel_fraction_full     .
 
_reflns_special_details
;
 Reflections were merged by SHELXL according to the crystal
 class for the calculation of statistics and refinement.
 
 _reflns_Friedel_fraction is defined as the number of unique
 Friedel pairs measured divided by the number that would be
 possible theoretically, ignoring centric projections and
 systematic absences.
;
 
_computing_data_collection     'CrysAlisPro 1.171.38.43 (Rigaku OD, 2015)'
_computing_cell_refinement     'CrysAlisPro 1.171.38.43 (Rigaku OD, 2015)'
_computing_data_reduction      'CrysAlisPro 1.171.38.43 (Rigaku OD, 2015)'
_computing_structure_solution     ?
_computing_structure_refinement 'SHELXL-2016/6 (Sheldrick, 2016)'
_computing_molecular_graphics     ?
_computing_publication_material   ?
_refine_special_details           ?
_refine_ls_structure_factor_coef  Fsqd
_refine_ls_matrix_type            full
_refine_ls_weighting_scheme       calc
_refine_ls_weighting_details
'w=1/[\s^2^(Fo^2^)+(0.0445P)^2^+2.7389P] where P=(Fo^2^+2Fc^2^)/3'
_atom_sites_solution_primary      ?
_atom_sites_solution_secondary    ?
_atom_sites_solution_hydrogens    mixed
_refine_ls_hydrogen_treatment     mixed
_refine_ls_extinction_method      none
_refine_ls_extinction_coef        .
_refine_ls_number_reflns          4036
_refine_ls_number_parameters      254
_refine_ls_number_restraints      262
_refine_ls_R_factor_all           0.0766
_refine_ls_R_factor_gt            0.0565
_refine_ls_wR_factor_ref          0.1441
_refine_ls_wR_factor_gt           0.1317
_refine_ls_goodness_of_fit_ref    1.016
_refine_ls_restrained_S_all       0.992
_refine_ls_shift/su_max           0.000
_refine_ls_shift/su_mean          0.000
 
loop_
 _atom_site_label
 _atom_site_type_symbol
 _atom_site_fract_x
 _atom_site_fract_y
 _atom_site_fract_z
 _atom_site_U_iso_or_equiv
 _atom_site_adp_type
 _atom_site_occupancy
 _atom_site_site_symmetry_order  
 _atom_site_calc_flag
 _atom_site_refinement_flags_posn
 _atom_site_refinement_flags_adp
 _atom_site_refinement_flags_occupancy
 _atom_site_disorder_assembly
 _atom_site_disorder_group
Se1 Se 0.48708(5) 0.26949(5) 0.46073(5) 0.04170(16) Uani 1 1 d . U . . .
C2 C 0.3134(5) 0.2368(5) 0.7047(5) 0.0440(10) Uani 1 1 d . U . . .
O2 O 0.6770(5) -0.0941(4) 0.9324(5) 0.0761(14) Uani 1 1 d D . . . .
C5 C 0.0667(5) 0.4184(8) 0.6781(5) 0.0698(17) Uani 1 1 d . U . . .
H5 H -0.018499 0.481646 0.669435 0.084 Uiso 1 1 calc R U . . .
N1 N 0.5481(4) 0.1479(4) 0.6008(4) 0.0446(9) Uani 1 1 d . U . . .
C18 C 0.3116(4) 0.4379(5) 0.0989(4) 0.0444(10) Uani 1 1 d . U . . .
H18 H 0.281235 0.395292 0.036835 0.053 Uiso 1 1 calc R U . . .
C4 C 0.0674(5) 0.3405(6) 0.7922(5) 0.0575(13) Uani 1 1 d . U . . .
H4 H -0.017391 0.348891 0.860331 0.069 Uiso 1 1 calc R U . . .
C8 C 0.6854(6) 0.0506(5) 0.5813(6) 0.0661(17) Uani 1 1 d . U . . .
H8A H 0.668953 -0.035822 0.557766 0.079 Uiso 1 1 calc R U . . .
H8B H 0.718541 0.034289 0.664378 0.079 Uiso 1 1 calc R U . . .
O1 O 0.4676(5) 0.0640(4) 0.8069(5) 0.0966(19) Uani 1 1 d . U . . .
C6 C 0.1875(5) 0.4069(7) 0.5752(5) 0.0653(16) Uani 1 1 d . U . . .
H6 H 0.186054 0.462025 0.497322 0.078 Uiso 1 1 calc R U . . .
C17 C 0.3242(4) 0.5733(5) 0.0780(4) 0.0440(9) Uani 1 1 d . U . . .
C16 C 0.3668(5) 0.6286(6) 0.1768(5) 0.0510(11) Uani 1 1 d . U . . .
H16 H 0.375951 0.720327 0.169076 0.061 Uiso 1 1 calc R U . . .
N2 N 0.3855(4) 0.4192(5) 0.3033(4) 0.0520(10) Uani 1 1 d . U . . .
C9 C 0.8030(4) 0.0968(4) 0.4765(4) 0.0327(8) Uani 1 1 d . U . . .
C21 C 0.2433(5) 0.5911(5) -0.1275(5) 0.0484(11) Uani 1 1 d . U . . .
H21A H 0.304980 0.503886 -0.151816 0.073 Uiso 1 1 calc R U . . .
H21B H 0.245245 0.652600 -0.205100 0.073 Uiso 1 1 calc R U . . .
H21C H 0.143578 0.579000 -0.090665 0.073 Uiso 1 1 calc R U . . .
C13 C 0.9580(6) 0.0808(8) 0.2627(5) 0.0718(17) Uani 1 1 d . U . . .
H13 H 0.985032 0.041637 0.180259 0.086 Uiso 1 1 calc R U . . .
C19 C 0.3434(5) 0.3668(6) 0.2093(4) 0.0489(11) Uani 1 1 d . U . . .
H19 H 0.335202 0.274793 0.220146 0.059 Uiso 1 1 calc R U . . .
C3 C 0.1896(5) 0.2512(5) 0.8075(6) 0.0556(13) Uani 1 1 d . U . . .
H3 H 0.191120 0.199033 0.886985 0.067 Uiso 1 1 calc R U . . .
C15 C 0.3951(5) 0.5495(6) 0.2843(5) 0.0547(12) Uani 1 1 d . U . . .
H15 H 0.423346 0.589626 0.349414 0.066 Uiso 1 1 calc R U . . .
C1 C 0.3109(4) 0.3126(5) 0.5891(4) 0.0426(9) Uani 1 1 d . U . . .
C20 C 0.3091(6) 0.7878(6) -0.0477(5) 0.0565(12) Uani 1 1 d . U . . .
H20A H 0.230301 0.840078 0.014640 0.085 Uiso 1 1 calc R U . . .
H20B H 0.302483 0.821194 -0.136750 0.085 Uiso 1 1 calc R U . . .
H20C H 0.402611 0.797274 -0.032301 0.085 Uiso 1 1 calc R U . . .
N3 N 0.2971(4) 0.6473(4) -0.0310(4) 0.0467(9) Uani 1 1 d . U . . .
C10 C 0.8802(5) 0.1853(6) 0.5014(6) 0.0598(14) Uani 1 1 d . U . . .
H10 H 0.856119 0.222961 0.584408 0.072 Uiso 1 1 calc R U . . .
C14 C 0.8430(6) 0.0456(7) 0.3554(6) 0.075(2) Uani 1 1 d . U . . .
H14 H 0.790586 -0.015547 0.334537 0.090 Uiso 1 1 calc R U . . .
C12 C 1.0302(5) 0.1676(5) 0.2871(6) 0.0621(14) Uani 1 1 d . U . . .
H12 H 1.107405 0.193400 0.222164 0.075 Uiso 1 1 calc R U . . .
C11 C 0.9930(7) 0.2204(7) 0.4069(8) 0.090(2) Uani 1 1 d . U . . .
H11 H 1.045725 0.282383 0.425522 0.108 Uiso 1 1 calc R U . . .
C7 C 0.4479(6) 0.1406(5) 0.7110(5) 0.0547(13) Uani 1 1 d . U . . .
H2B H 0.637(8) -0.086(7) 1.009(2) 0.09(2) Uiso 1 1 d D . . . .
H2A H 0.623(5) -0.040(5) 0.894(5) 0.053(18) Uiso 1 1 d D . . . .
 
loop_
 _atom_site_aniso_label
 _atom_site_aniso_U_11
 _atom_site_aniso_U_22
 _atom_site_aniso_U_33
 _atom_site_aniso_U_23
 _atom_site_aniso_U_13
 _atom_site_aniso_U_12
Se1 0.0251(2) 0.0588(3) 0.0385(2) -0.0153(2) 0.00017(16) -0.00425(18)
C2 0.0298(19) 0.040(2) 0.057(2) -0.0160(18) 0.0101(17) -0.0106(16)
O2 0.061(3) 0.051(2) 0.087(3) -0.007(2) 0.033(2) 0.001(2)
C5 0.026(2) 0.128(5) 0.052(3) -0.037(3) -0.0080(19) 0.008(3)
N1 0.0295(17) 0.043(2) 0.050(2) 0.0010(16) 0.0113(15) -0.0042(14)
C18 0.0273(19) 0.065(3) 0.040(2) -0.0221(19) -0.0090(16) 0.0042(18)
C4 0.028(2) 0.078(3) 0.064(3) -0.037(2) 0.009(2) -0.011(2)
C8 0.044(3) 0.039(3) 0.084(4) 0.015(2) 0.026(3) 0.0078(19)
O1 0.078(3) 0.058(2) 0.090(3) 0.037(2) 0.055(2) 0.025(2)
C6 0.028(2) 0.121(5) 0.042(2) -0.029(3) -0.0108(18) 0.011(2)
C17 0.0224(17) 0.065(3) 0.042(2) -0.0225(18) -0.0048(15) 0.0042(17)
C16 0.032(2) 0.072(3) 0.050(2) -0.028(2) -0.0130(19) 0.004(2)
N2 0.0320(18) 0.082(3) 0.039(2) -0.0242(19) -0.0077(15) 0.0059(18)
C9 0.0246(17) 0.032(2) 0.0355(19) 0.0002(15) -0.0012(14) -0.0001(14)
C21 0.040(2) 0.062(3) 0.043(2) -0.015(2) -0.0135(19) 0.001(2)
C13 0.046(3) 0.125(5) 0.034(2) -0.016(3) 0.005(2) -0.004(3)
C19 0.031(2) 0.074(3) 0.038(2) -0.018(2) -0.0051(17) 0.002(2)
C3 0.040(2) 0.047(3) 0.069(3) -0.018(2) 0.019(2) -0.0140(19)
C15 0.036(2) 0.082(3) 0.047(2) -0.032(2) -0.0135(19) 0.004(2)
C1 0.0237(17) 0.063(3) 0.042(2) -0.0249(18) 0.0005(15) -0.0089(16)
C20 0.046(3) 0.066(3) 0.060(3) -0.015(2) -0.015(2) -0.005(2)
N3 0.0353(18) 0.059(2) 0.047(2) -0.0186(17) -0.0129(16) 0.0004(16)
C10 0.040(2) 0.070(3) 0.070(3) -0.040(3) 0.000(2) -0.010(2)
C14 0.050(3) 0.108(5) 0.074(3) -0.054(4) 0.012(3) -0.037(3)
C12 0.032(2) 0.052(3) 0.078(3) 0.023(2) 0.014(2) 0.0062(19)
C11 0.053(3) 0.067(4) 0.145(6) -0.045(4) 0.022(4) -0.032(3)
C7 0.044(2) 0.037(2) 0.064(3) 0.003(2) 0.021(2) -0.0051(18)
 
_geom_special_details
;
 All esds (except the esd in the dihedral angle between two l.s. planes)
 are estimated using the full covariance matrix.  The cell esds are taken
 into account individually in the estimation of esds in distances, angles
 and torsion angles; correlations between esds in cell parameters are only
 used when they are defined by crystal symmetry.  An approximate (isotropic)
 treatment of cell esds is used for estimating esds involving l.s. planes.
;
 
loop_
 _geom_bond_atom_site_label_1
 _geom_bond_atom_site_label_2
 _geom_bond_distance
 _geom_bond_site_symmetry_2
 _geom_bond_publ_flag
Se1 C1 1.911(4) . ?
Se1 N1 1.953(4) . ?
C2 C1 1.381(7) . ?
C2 C3 1.408(6) . ?
C2 C7 1.465(7) . ?
O2 H2B 0.819(10) . ?
O2 H2A 0.820(10) . ?
C5 C4 1.377(9) . ?
C5 C6 1.390(7) . ?
C5 H5 0.9500 . ?
N1 C7 1.336(6) . ?
N1 C8 1.466(6) . ?
C18 C19 1.374(7) . ?
C18 C17 1.400(7) . ?
C18 H18 0.9500 . ?
C4 C3 1.363(8) . ?
C4 H4 0.9500 . ?
C8 C9 1.506(6) . ?
C8 H8A 0.9900 . ?
C8 H8B 0.9900 . ?
O1 C7 1.243(7) . ?
C6 C1 1.393(7) . ?
C6 H6 0.9500 . ?
C17 N3 1.360(7) . ?
C17 C16 1.410(6) . ?
C16 C15 1.373(8) . ?
C16 H16 0.9500 . ?
N2 C15 1.340(7) . ?
N2 C19 1.348(6) . ?
C9 C10 1.362(6) . ?
C9 C14 1.368(6) . ?
C21 N3 1.458(6) . ?
C21 H21A 0.9800 . ?
C21 H21B 0.9800 . ?
C21 H21C 0.9800 . ?
C13 C12 1.312(9) . ?
C13 C14 1.382(8) . ?
C13 H13 0.9500 . ?
C19 H19 0.9500 . ?
C3 H3 0.9500 . ?
C15 H15 0.9500 . ?
C20 N3 1.449(7) . ?
C20 H20A 0.9800 . ?
C20 H20B 0.9800 . ?
C20 H20C 0.9800 . ?
C10 C11 1.376(8) . ?
C10 H10 0.9500 . ?
C14 H14 0.9500 . ?
C12 C11 1.363(10) . ?
C12 H12 0.9500 . ?
C11 H11 0.9500 . ?
 
loop_
 _geom_angle_atom_site_label_1
 _geom_angle_atom_site_label_2
 _geom_angle_atom_site_label_3
 _geom_angle
 _geom_angle_site_symmetry_1
 _geom_angle_site_symmetry_3
 _geom_angle_publ_flag
C1 Se1 N1 83.08(19) . . ?
C1 C2 C3 120.1(5) . . ?
C1 C2 C7 116.5(4) . . ?
C3 C2 C7 123.3(5) . . ?
H2B O2 H2A 103(6) . . ?
C4 C5 C6 121.7(5) . . ?
C4 C5 H5 119.2 . . ?
C6 C5 H5 119.2 . . ?
C7 N1 C8 119.9(4) . . ?
C7 N1 Se1 116.3(3) . . ?
C8 N1 Se1 122.8(3) . . ?
C19 C18 C17 119.8(4) . . ?
C19 C18 H18 120.1 . . ?
C17 C18 H18 120.1 . . ?
C3 C4 C5 120.0(5) . . ?
C3 C4 H4 120.0 . . ?
C5 C4 H4 120.0 . . ?
N1 C8 C9 113.0(4) . . ?
N1 C8 H8A 109.0 . . ?
C9 C8 H8A 109.0 . . ?
N1 C8 H8B 109.0 . . ?
C9 C8 H8B 109.0 . . ?
H8A C8 H8B 107.8 . . ?
C5 C6 C1 118.3(6) . . ?
C5 C6 H6 120.8 . . ?
C1 C6 H6 120.8 . . ?
N3 C17 C18 122.2(4) . . ?
N3 C17 C16 121.9(5) . . ?
C18 C17 C16 116.0(5) . . ?
C15 C16 C17 119.9(5) . . ?
C15 C16 H16 120.1 . . ?
C17 C16 H16 120.1 . . ?
C15 N2 C19 115.9(5) . . ?
C10 C9 C14 117.2(4) . . ?
C10 C9 C8 121.1(5) . . ?
C14 C9 C8 121.7(5) . . ?
N3 C21 H21A 109.5 . . ?
N3 C21 H21B 109.5 . . ?
H21A C21 H21B 109.5 . . ?
N3 C21 H21C 109.5 . . ?
H21A C21 H21C 109.5 . . ?
H21B C21 H21C 109.5 . . ?
C12 C13 C14 120.8(5) . . ?
C12 C13 H13 119.6 . . ?
C14 C13 H13 119.6 . . ?
N2 C19 C18 124.2(5) . . ?
N2 C19 H19 117.9 . . ?
C18 C19 H19 117.9 . . ?
C4 C3 C2 119.6(6) . . ?
C4 C3 H3 120.2 . . ?
C2 C3 H3 120.2 . . ?
N2 C15 C16 124.1(4) . . ?
N2 C15 H15 117.9 . . ?
C16 C15 H15 117.9 . . ?
C2 C1 C6 120.2(4) . . ?
C2 C1 Se1 112.8(3) . . ?
C6 C1 Se1 127.0(4) . . ?
N3 C20 H20A 109.5 . . ?
N3 C20 H20B 109.5 . . ?
H20A C20 H20B 109.5 . . ?
N3 C20 H20C 109.5 . . ?
H20A C20 H20C 109.5 . . ?
H20B C20 H20C 109.5 . . ?
C17 N3 C20 120.4(4) . . ?
C17 N3 C21 121.0(4) . . ?
C20 N3 C21 118.4(4) . . ?
C9 C10 C11 120.3(5) . . ?
C9 C10 H10 119.8 . . ?
C11 C10 H10 119.8 . . ?
C9 C14 C13 121.5(5) . . ?
C9 C14 H14 119.3 . . ?
C13 C14 H14 119.3 . . ?
C13 C12 C11 119.1(5) . . ?
C13 C12 H12 120.5 . . ?
C11 C12 H12 120.5 . . ?
C12 C11 C10 121.1(5) . . ?
C12 C11 H11 119.4 . . ?
C10 C11 H11 119.4 . . ?
O1 C7 N1 124.2(5) . . ?
O1 C7 C2 124.8(4) . . ?
N1 C7 C2 111.0(5) . . ?
 
loop_
 _geom_torsion_atom_site_label_1
 _geom_torsion_atom_site_label_2
 _geom_torsion_atom_site_label_3
 _geom_torsion_atom_site_label_4
 _geom_torsion
 _geom_torsion_site_symmetry_1
 _geom_torsion_site_symmetry_2
 _geom_torsion_site_symmetry_3
 _geom_torsion_site_symmetry_4
 _geom_torsion_publ_flag
C6 C5 C4 C3 1.4(9) . . . . ?
C7 N1 C8 C9 -161.4(5) . . . . ?
Se1 N1 C8 C9 30.1(7) . . . . ?
C4 C5 C6 C1 0.7(9) . . . . ?
C19 C18 C17 N3 178.5(4) . . . . ?
C19 C18 C17 C16 -1.4(6) . . . . ?
N3 C17 C16 C15 -179.0(4) . . . . ?
C18 C17 C16 C15 0.9(6) . . . . ?
N1 C8 C9 C10 80.5(7) . . . . ?
N1 C8 C9 C14 -103.8(7) . . . . ?
C15 N2 C19 C18 0.2(6) . . . . ?
C17 C18 C19 N2 0.9(7) . . . . ?
C5 C4 C3 C2 -1.7(8) . . . . ?
C1 C2 C3 C4 -0.1(7) . . . . ?
C7 C2 C3 C4 -178.1(5) . . . . ?
C19 N2 C15 C16 -0.8(7) . . . . ?
C17 C16 C15 N2 0.2(7) . . . . ?
C3 C2 C1 C6 2.2(7) . . . . ?
C7 C2 C1 C6 -179.7(5) . . . . ?
C3 C2 C1 Se1 -176.9(4) . . . . ?
C7 C2 C1 Se1 1.2(5) . . . . ?
C5 C6 C1 C2 -2.5(8) . . . . ?
C5 C6 C1 Se1 176.4(4) . . . . ?
C18 C17 N3 C20 179.0(4) . . . . ?
C16 C17 N3 C20 -1.1(6) . . . . ?
C18 C17 N3 C21 4.4(6) . . . . ?
C16 C17 N3 C21 -175.6(4) . . . . ?
C14 C9 C10 C11 0.2(9) . . . . ?
C8 C9 C10 C11 176.1(6) . . . . ?
C10 C9 C14 C13 0.8(10) . . . . ?
C8 C9 C14 C13 -175.1(6) . . . . ?
C12 C13 C14 C9 -1.8(11) . . . . ?
C14 C13 C12 C11 1.8(10) . . . . ?
C13 C12 C11 C10 -0.8(11) . . . . ?
C9 C10 C11 C12 -0.2(11) . . . . ?
C8 N1 C7 O1 7.6(9) . . . . ?
Se1 N1 C7 O1 176.8(5) . . . . ?
C8 N1 C7 C2 -173.7(5) . . . . ?
Se1 N1 C7 C2 -4.5(6) . . . . ?
C1 C2 C7 O1 -179.2(6) . . . . ?
C3 C2 C7 O1 -1.2(9) . . . . ?
C1 C2 C7 N1 2.1(7) . . . . ?
C3 C2 C7 N1 -179.8(5) . . . . ?
 
loop_
 _geom_hbond_atom_site_label_D 
 _geom_hbond_atom_site_label_H 
 _geom_hbond_atom_site_label_A 
 _geom_hbond_distance_DH 
 _geom_hbond_distance_HA 
 _geom_hbond_distance_DA 
 _geom_hbond_angle_DHA 
 _geom_hbond_site_symmetry_A 
C8 H8A Se1  0.99 3.11 4.060(6) 160.5 2_656
C6 H6 N2  0.95 2.47 3.062(7) 120.8 .
C19 H19 O2  0.95 2.60 3.340(7) 135.3 2_656
C15 H15 Se1  0.95 2.95 3.901(5) 176.1 2_666
O2 H2B O1  0.819(10) 1.977(13) 2.795(6) 178(8) 2_657
O2 H2A O1  0.820(10) 2.005(17) 2.814(8) 169(6) .
 
_refine_diff_density_max    1.082
_refine_diff_density_min   -0.818
_refine_diff_density_rms    0.098

_shelx_res_file
;
TITL jmwtf62 in P1
    shelx.res
    created by SHELXL-2016/6 at 14:17:51 on 15-Jan-2018
CELL  1.54184   9.6639  10.1764  10.5599   84.394   76.459   77.948
ZERR     2.00   0.0008   0.0007   0.0007    0.006    0.007    0.007
LATT   1
SFAC  C    H    N    O    SE
UNIT  42 46 6 4 2
MERG   2
omit 3 -9 6
omit  4 -8 8
omit 2 -9 7
omit 1 -9 7
omit 3 -8 9
omit -4 -10 6
DFIX 0.82 .01 o2 h2a o2 h2b
delu
rigu
EQIV $1 -x+1, -y, -z+1
HTAB C8 Se1_$1
HTAB C6 N2
HTAB C19 O2_$1
EQIV $2 -x+1, -y+1, -z+1
HTAB C15 Se1_$2
EQIV $3 -x+1, -y, -z+2
HTAB O2 O1_$3
HTAB O2 O1
FMAP   2
PLAN   20
ACTA
HTAB    2.00000
BOND   $H
CONF
L.S.  10
TEMP  -143.00
WGHT    0.044500    2.738900
FVAR       5.25259
SE1   5    0.487076    0.269489    0.460726    11.00000    0.02510    0.05877 =
         0.03853   -0.01527    0.00017   -0.00425
C2    1    0.313440    0.236849    0.704688    11.00000    0.02979    0.03952 =
         0.05732   -0.01596    0.01007   -0.01058
O2    4    0.677014   -0.094130    0.932378    11.00000    0.06083    0.05098 =
         0.08676   -0.00738    0.03350    0.00129
C5    1    0.066701    0.418432    0.678053    11.00000    0.02561    0.12780 =
         0.05195   -0.03668   -0.00805    0.00834
AFIX  43
H5    2   -0.018499    0.481646    0.669435    11.00000   -1.20000
AFIX   0
N1    3    0.548093    0.147901    0.600795    11.00000    0.02946    0.04268 =
         0.04969    0.00105    0.01133   -0.00416
C18   1    0.311640    0.437914    0.098872    11.00000    0.02728    0.06466 =
         0.04034   -0.02210   -0.00902    0.00424
AFIX  43
H18   2    0.281235    0.395292    0.036835    11.00000   -1.20000
AFIX   0
C4    1    0.067362    0.340460    0.792208    11.00000    0.02780    0.07780 =
         0.06439   -0.03660    0.00860   -0.01077
AFIX  43
H4    2   -0.017391    0.348891    0.860331    11.00000   -1.20000
AFIX   0
C8    1    0.685448    0.050580    0.581307    11.00000    0.04386    0.03932 =
         0.08404    0.01541    0.02611    0.00782
AFIX  23
H8A   2    0.668953   -0.035822    0.557766    11.00000   -1.20000
H8B   2    0.718541    0.034289    0.664378    11.00000   -1.20000
AFIX   0
O1    4    0.467640    0.063953    0.806887    11.00000    0.07811    0.05843 =
         0.09027    0.03709    0.05546    0.02545
C6    1    0.187527    0.406947    0.575183    11.00000    0.02823    0.12104 =
         0.04213   -0.02913   -0.01085    0.01084
AFIX  43
H6    2    0.186054    0.462025    0.497322    11.00000   -1.20000
AFIX   0
C17   1    0.324192    0.573283    0.078005    11.00000    0.02236    0.06515 =
         0.04184   -0.02248   -0.00479    0.00421
C16   1    0.366824    0.628567    0.176837    11.00000    0.03176    0.07193 =
         0.05000   -0.02820   -0.01300    0.00434
AFIX  43
H16   2    0.375951    0.720327    0.169076    11.00000   -1.20000
AFIX   0
N2    3    0.385455    0.419238    0.303275    11.00000    0.03195    0.08167 =
         0.03913   -0.02422   -0.00775    0.00590
C9    1    0.802967    0.096801    0.476510    11.00000    0.02459    0.03250 =
         0.03547    0.00025   -0.00122   -0.00010
C21   1    0.243325    0.591094   -0.127546    11.00000    0.04022    0.06198 =
         0.04309   -0.01491   -0.01352    0.00068
AFIX 137
H21A  2    0.304980    0.503886   -0.151816    11.00000   -1.50000
H21B  2    0.245245    0.652600   -0.205100    11.00000   -1.50000
H21C  2    0.143578    0.579000   -0.090665    11.00000   -1.50000
AFIX   0
C13   1    0.957965    0.080796    0.262687    11.00000    0.04605    0.12499 =
         0.03440   -0.01628    0.00490   -0.00443
AFIX  43
H13   2    0.985032    0.041637    0.180259    11.00000   -1.20000
AFIX   0
C19   1    0.343405    0.366834    0.209308    11.00000    0.03105    0.07436 =
         0.03761   -0.01769   -0.00505    0.00199
AFIX  43
H19   2    0.335202    0.274793    0.220146    11.00000   -1.20000
AFIX   0
C3    1    0.189557    0.251212    0.807482    11.00000    0.04013    0.04734 =
         0.06932   -0.01811    0.01894   -0.01404
AFIX  43
H3    2    0.191120    0.199033    0.886985    11.00000   -1.20000
AFIX   0
C15   1    0.395127    0.549477    0.284348    11.00000    0.03649    0.08195 =
         0.04692   -0.03206   -0.01351    0.00369
AFIX  43
H15   2    0.423346    0.589626    0.349414    11.00000   -1.20000
AFIX   0
C1    1    0.310905    0.312596    0.589126    11.00000    0.02367    0.06336 =
         0.04160   -0.02493    0.00051   -0.00890
C20   1    0.309099    0.787836   -0.047696    11.00000    0.04553    0.06590 =
         0.05982   -0.01517   -0.01545   -0.00466
AFIX 137
H20A  2    0.230301    0.840078    0.014640    11.00000   -1.50000
H20B  2    0.302483    0.821194   -0.136750    11.00000   -1.50000
H20C  2    0.402611    0.797274   -0.032301    11.00000   -1.50000
AFIX   0
N3    3    0.297125    0.647310   -0.030952    11.00000    0.03530    0.05948 =
         0.04650   -0.01861   -0.01294    0.00035
C10   1    0.880210    0.185278    0.501396    11.00000    0.04047    0.06982 =
         0.06976   -0.04015    0.00041   -0.00963
AFIX  43
H10   2    0.856119    0.222961    0.584408    11.00000   -1.20000
AFIX   0
C14   1    0.842996    0.045583    0.355382    11.00000    0.04973    0.10787 =
         0.07418   -0.05437    0.01157   -0.03698
AFIX  43
H14   2    0.790586   -0.015547    0.334537    11.00000   -1.20000
AFIX   0
C12   1    1.030209    0.167638    0.287103    11.00000    0.03204    0.05165 =
         0.07779    0.02340    0.01356    0.00624
AFIX  43
H12   2    1.107405    0.193400    0.222164    11.00000   -1.20000
AFIX   0
C11   1    0.992968    0.220361    0.406905    11.00000    0.05289    0.06742 =
         0.14481   -0.04532    0.02152   -0.03155
AFIX  43
H11   2    1.045725    0.282383    0.425522    11.00000   -1.20000
AFIX   0
C7    1    0.447856    0.140609    0.711021    11.00000    0.04434    0.03705 =
         0.06363    0.00349    0.02128   -0.00513
H2B   2    0.636518   -0.085581    1.009238    11.00000    0.08735
H2A   2    0.622939   -0.040258    0.894216    11.00000    0.05258
HKLF    4




REM  jmwtf62 in P1
REM R1 =  0.0565 for    3241 Fo > 4sig(Fo)  and  0.0766 for all    4036 data
REM    254 parameters refined using    262 restraints

END

WGHT      0.0504      2.1758

REM Instructions for potential hydrogen bonds
HTAB C8 Se1_$1
HTAB C6 N2
HTAB C19 O2_$1
HTAB C15 Se1_$2
HTAB O2 O1_$3
HTAB O2 O1

REM Highest difference peak  1.082,  deepest hole -0.818,  1-sigma level  0.098
Q1    1   0.5032  0.3625  0.4883  11.00000  0.05    1.08
Q2    1   0.4783  0.1810  0.4328  11.00000  0.05    1.02
Q3    1   0.4296  0.0577  0.7790  11.00000  0.05    0.61
Q4    1   0.4879  0.5122  0.4651  11.00000  0.05    0.59
Q5    1   0.4953  0.0768  0.8366  11.00000  0.05    0.57
Q6    1   0.5264 -0.0881  0.6067  11.00000  0.05    0.56
Q7    1   0.4866  0.4196  0.4240  11.00000  0.05    0.53
Q8    1   0.5651  0.0318  0.4357  11.00000  0.05    0.42
Q9    1   0.5305 -0.0036  0.6416  11.00000  0.05    0.41
Q10   1   0.5633  0.2061  0.4613  11.00000  0.05    0.40
Q11   1   0.4319  0.0661  0.5966  11.00000  0.05    0.39
Q12   1   0.6163 -0.1815  0.6275  11.00000  0.05    0.37
Q13   1   0.4309  0.6166  0.4431  11.00000  0.05    0.37
Q14   1   0.4119  0.2653  0.5205  11.00000  0.05    0.37
Q15   1   0.9791  0.1904  0.4737  11.00000  0.05    0.37
Q16   1   0.6084  0.1080  0.5789  11.00000  0.05    0.35
Q17   1   0.5207 -0.0417  0.5141  11.00000  0.05    0.35
Q18   1   0.5889  0.2789  0.5317  11.00000  0.05    0.35
Q19   1   0.5412  0.2532  0.7167  11.00000  0.05    0.34
Q20   1   0.4726  0.6235  0.4190  11.00000  0.05    0.33
;
_shelx_res_checksum   78468

_shelx_hkl_file
;
 -11  -1  -8 107.675 90.1192  10
 -11   0  -7 1370.46 173.169  10
 -11   0  -6 7218.58 371.893  10
 -11   0  -5 477.516 152.022  10
 -11   0  -1 92.7686 98.2046   8
 -11   1  -6 398.664 115.328  10
 -11   1  -5 5901.82 303.378  10
 -11   1  -2 3599.09 254.449   8
 -11   1  -1 3360.36 226.102   8
 -11   2  -5 3135.34 199.280   8
 -11   2  -4 2002.09 182.658   8
 -11   2  -3 1862.49 182.043   8
 -11   2  -2 46.6237 89.1725   8
 -11   2  -1 1044.32 127.509   8
 -11   3  -3 1380.25 126.141   8
 -10  -2  -9 2423.79 199.220   7
 -10  -2  -8 3887.20 280.952   7
 -10  -2  -7 724.400 214.031   7
 -10  -1  -9 518.603 137.088   7
 -10  -1  -8 98.7233 145.224   7
 -10  -1  -7 9388.30 446.903   7
 -10  -1  -6 8176.32 439.895   7
 -10  -1  -5 5215.78 365.115   7
 -10   0  -9 771.602 139.089   7
 -10   0  -9 1321.55 181.098  10
 -10   0  -8 1276.75 198.459   7
 -10   0  -7 5081.44 345.702   7
 -10   0  -6 3184.78 312.218   7
 -10   0  -5 67.5319 182.553   7
 -10   1  -8 573.453 154.372   7
 -10   1  -8 568.102 167.315  10
 -10   1  -7 793.608 193.238   7
 -10   1  -7 916.953 216.454  10
 -10   1  -6-20.6710 171.564   7
 -10   1  -3 6525.59 437.191  10
 -10   1   0 9442.08 462.522   8
 -10   1   1 3973.89 271.523   8
 -10   2  -8 962.404 156.522  10
 -10   2  -7 2552.59 266.769  10
 -10   2  -6 739.397 198.535  10
 -10   2  -5 4425.38 363.271  10
 -10   2  -4 208.514 166.676  10
 -10   2  -1 135.267 157.015   8
 -10   2   0 1022.48 185.658   8
 -10   2   1 2921.42 233.187   8
 -10   3  -7-20.9118 101.407  10
 -10   3  -6 243.043 100.183   8
 -10   3  -6 207.248 132.005  10
 -10   3  -5 475.978 162.213  10
 -10   3  -4 3246.25 276.806  10
 -10   3  -3 3453.19 298.604   8
 -10   3  -2 8569.66 441.216   8
 -10   3  -1 4029.40 303.110   8
 -10   3   0 2529.04 233.382   8
 -10   3   1 3545.17 231.122   8
 -10   4  -5 2379.84 194.137  10
 -10   4  -5 2395.68 168.999   8
 -10   4  -4 1599.94 172.936   8
 -10   4  -3 610.300 140.934   8
 -10   4  -2 393.188 131.346   8
 -10   4  -1-12.3843 104.995   8
 -10   4   0 3047.79 214.288   8
 -10   5  -2 601.899 96.6266   8
  -9  -8  -8-72.5954 101.684   3
  -9  -8  -7-51.0239 116.819   3
  -9  -8  -6-146.009 129.747   3
  -9  -7  -9 1129.44 153.866   3
  -9  -7  -8 3375.24 264.789   3
  -9  -7  -7 5752.29 346.095   3
  -9  -7  -6 5443.81 349.030   3
  -9  -7  -5 2172.06 241.584   3
  -9  -6 -10 1835.49 163.982   3
  -9  -6  -9 844.801 181.086   3
  -9  -6  -8 922.850 206.465   3
  -9  -6  -7 2128.42 276.957   3
  -9  -6  -6 230.988 181.104   3
  -9  -6  -5 2243.70 273.882   3
  -9  -6  -4 4981.27 355.899   3
  -9  -5 -10 1300.53 165.421   3
  -9  -5  -9 2807.16 270.548   3
  -9  -5  -8 6060.44 401.963   3
  -9  -5  -7 1815.69 283.230   3
  -9  -5  -6 6211.66 436.592   3
  -9  -5  -5 4134.31 367.180   3
  -9  -5  -4 8074.42 469.351   3
  -9  -4  -9 3373.98 303.551   3
  -9  -4  -8 724.130 240.474   3
  -9  -4  -7 135.543 212.323   3
  -9  -4  -6 182.536 210.797   3
  -9  -4  -5 928.500 248.051   3
  -9  -4  -4 1796.38 278.876   3
  -9  -3 -10-75.5992 135.001   7
  -9  -3  -9 23.7635 155.222   7
  -9  -3  -9-9.39493 169.850   3
  -9  -3  -8 1209.23 242.406   7
  -9  -3  -8 1517.57 276.775   3
  -9  -3  -7 3325.81 330.691   7
  -9  -3  -7 3560.24 372.009   3
  -9  -3  -6 4490.65 417.214   3
  -9  -3  -5 9209.73 544.906   3
  -9  -3  -4 10400.3 560.414   3
  -9  -2 -10 2655.77 245.108   7
  -9  -2  -9 3174.58 303.335   7
  -9  -2  -8 1846.70 294.247   7
  -9  -2  -7 155.683 233.325   3
  -9  -2  -7 108.773 217.755   7
  -9  -2  -6 1075.01 272.587   3
  -9  -2  -6 979.095 245.051   7
  -9  -2  -5 1084.85 255.177   7
  -9  -1 -10 859.993 181.521   7
  -9  -1  -9 326.446 200.276   7
  -9  -1  -8 311.830 219.027   7
  -9  -1  -7 12023.4 609.423   7
  -9  -1  -6 2331.97 338.246   7
  -9  -1  -5 11040.8 585.886   7
  -9  -1  -4 12236.4 607.245   7
  -9   0 -10 1306.47 186.606   7
  -9   0 -10 1336.02 177.698  10
  -9   0  -9 1168.38 228.367   7
  -9   0  -8 2487.40 310.445   7
  -9   0  -7 18492.7 748.701   7
  -9   0  -6-21.1446 222.942   7
  -9   0  -5 2724.39 359.889   7
  -9   0  -4 716.169 254.171   7
  -9   0  -3 77.3176 220.020   7
  -9   1 -10 123.667 117.527   7
  -9   1  -9 405.049 173.720  10
  -9   1  -9 355.532 174.247   7
  -9   1  -8 405.140 214.607   7
  -9   1  -7-114.688 225.190   7
  -9   1  -6 11170.9 606.208   7
  -9   1  -5 9917.40 578.947   7
  -9   1  -4 8843.54 553.773   7
  -9   1  -3 7129.21 500.779   7
  -9   2  -9 3134.24 266.876  10
  -9   2  -9 2682.33 236.269   7
  -9   2  -8 1173.37 234.559   7
  -9   2  -8 1407.66 251.259  10
  -9   2  -7 2812.35 325.426   7
  -9   2  -7 3352.06 381.496  10
  -9   2  -6 3586.66 374.903   7
  -9   2  -5 5106.90 449.044   7
  -9   2  -4 1009.84 291.482   7
  -9   2   1 4629.78 379.425   8
  -9   2   2 3873.08 311.129   8
  -9   3  -8-173.997 157.271   7
  -9   3  -8 61.1380 140.048  10
  -9   3  -7 52.8720 175.398  10
  -9   3  -7 90.3019 186.087   7
  -9   3  -6 2485.68 333.565  10
  -9   3  -6 2124.82 302.946   7
  -9   3  -5 1411.85 289.424  10
  -9   3  -4 1506.42 291.150  10
  -9   3  -3 4671.98 420.923  10
  -9   3   0 11078.5 572.836   8
  -9   3   1 3557.62 323.153   8
  -9   3   2 3456.72 286.263   8
  -9   4  -8 1462.74 173.040  10
  -9   4  -7 607.098 172.933  10
  -9   4  -6 5560.81 405.434  10
  -9   4  -5 2220.84 296.508  10
  -9   4  -5 1944.51 230.691   8
  -9   4  -4 253.712 176.831  10
  -9   4  -4 422.718 175.034   8
  -9   4  -3 1159.12 232.862   8
  -9   4  -3 1232.46 232.364  10
  -9   4  -2 622.475 210.481   8
  -9   4  -1 86.1832 174.294   8
  -9   4   0 236.461 164.936   8
  -9   4   1 573.370 168.954   8
  -9   4   2 1664.44 200.678   8
  -9   5  -6 2.98287 120.480  10
  -9   5  -5 381.783 157.171  10
  -9   5  -4 1234.67 208.886  10
  -9   5  -4 1198.58 177.065   8
  -9   5  -3 3001.15 267.260   8
  -9   5  -3 2760.30 263.640  10
  -9   5  -2 4490.27 329.788   8
  -9   5  -1 7321.08 403.664   8
  -9   5   0 3139.00 270.368   8
  -9   5   1 2759.75 233.912   8
  -9   5   2 5363.47 265.912   8
  -9   6  -3 1289.49 144.614   8
  -9   6  -2 1385.04 161.890   8
  -9   6  -1 147.036 106.535   8
  -9   6   0 314.082 102.295   8
  -9   6   1 697.259 106.785   8
  -8  -9  -8 4789.58 231.211   3
  -8  -9  -7 2321.20 196.728   3
  -8  -9  -6 2080.63 198.214   3
  -8  -8  -9 4.42217 117.220   3
  -8  -8  -8 69.3086 140.448   3
  -8  -8  -7 826.647 193.877   3
  -8  -8  -6 380.694 175.933   3
  -8  -8  -5 1207.56 209.120   3
  -8  -7 -10 2313.16 197.065   3
  -8  -7  -9 1809.84 235.460   3
  -8  -7  -8 2975.64 309.301   3
  -8  -7  -7 4121.00 364.406   3
  -8  -7  -6 4989.99 388.658   3
  -8  -7  -5 1894.37 273.616   3
  -8  -6 -10 1808.06 216.900   3
  -8  -6  -9 327.292 196.752   3
  -8  -6  -8 1924.52 299.260   3
  -8  -6  -7 263.233 222.618   3
  -8  -6  -6 87.3651 203.226   3
  -8  -6  -5 164.237 199.712   3
  -8  -6  -4 3061.11 330.469   3
  -8  -5 -11 110.637 93.6581   3
  -8  -5 -10 1008.07 205.332   3
  -8  -5  -9 6113.84 420.089   3
  -8  -5  -8 7163.29 486.462   3
  -8  -5  -7 7510.15 510.003   3
  -8  -5  -6 13631.0 658.118   3
  -8  -5  -5 6997.49 485.405   3
  -8  -5  -4 3081.84 346.391   3
  -8  -5  -3 6585.57 429.115   3
  -8  -4 -11 657.202 148.372   7
  -8  -4 -10 2894.94 284.369   3
  -8  -4 -10 2940.06 282.433   7
  -8  -4  -9 6068.02 432.330   3
  -8  -4  -9 5702.60 403.659   7
  -8  -4  -8 1289.20 293.943   3
  -8  -4  -8 978.442 241.127   7
  -8  -4  -7 774.264 269.106   3
  -8  -4  -6 4958.73 445.118   3
  -8  -4  -5 509.496 237.344   3
  -8  -4  -4 5982.29 447.090   3
  -8  -4  -3 1692.21 267.852   3
  -8  -3 -11 1499.57 202.469   7
  -8  -3 -10 3865.51 343.497   7
  -8  -3 -10 4199.87 327.982   3
  -8  -3  -9 2615.51 325.083   7
  -8  -3  -9 3036.44 334.269   3
  -8  -3  -8 2513.94 344.861   7
  -8  -3  -8 3237.95 377.573   3
  -8  -3  -7 8494.00 559.708   3
  -8  -3  -7 8353.35 542.825   7
  -8  -3  -6 7836.84 530.274   7
  -8  -3  -6 8312.47 546.619   3
  -8  -3  -5 11314.8 611.904   3
  -8  -3  -4 16779.3 707.371   3
  -8  -3  -3 8449.31 1136.23   1
  -8  -3  -3 6784.58 455.889   3
  -8  -3  -2 12997.4 589.127   3
  -8  -3  -2 14125.5 1413.69   1
  -8  -3  -1 15811.0 1466.03   1
  -8  -3  -1 13392.8 1678.69  22
  -8  -2 -11 5214.41 328.493   7
  -8  -2 -10 3461.80 342.374   7
  -8  -2  -9 7759.45 470.176   3
  -8  -2  -9 8269.84 527.190   7
  -8  -2  -8 961.584 302.954   7
  -8  -2  -8 641.327 266.583   3
  -8  -2  -7 489.810 260.656   7
  -8  -2  -7 417.387 255.197   3
  -8  -2  -6 567.802 253.482   3
  -8  -2  -6 489.583 261.550   7
  -8  -2  -5-6.19521 191.537   7
  -8  -2  -5-43.8916 205.789   3
  -8  -2  -4 941.952 253.779   3
  -8  -2  -3 9847.49 1210.49   1
  -8  -2  -3 7971.22 501.461   3
  -8  -2  -2 19693.3 1668.45   1
  -8  -2  -1 25659.5 2285.11  22
  -8  -1 -11 117.942 159.638   7
  -8  -1 -10 191.099 213.517   7
  -8  -1  -9 648.804 271.437   7
  -8  -1  -8 1330.18 282.049   3
  -8  -1  -8 1567.07 331.869   7
  -8  -1  -7 8041.33 536.940   3
  -8  -1  -7 8232.46 564.114   7
  -8  -1  -6 4843.29 451.474   7
  -8  -1  -6 5149.39 463.551   3
  -8  -1  -5 7420.71 516.165   3
  -8  -1  -5 6759.14 510.135   7
  -8  -1  -4 25341.1 887.290   7
  -8  -1  -4 26303.9 899.159   3
  -8  -1  -3 12104.5 611.322   7
  -8  -1  -3 13722.7 1391.37   1
  -8  -1  -2 24503.4 1846.86   1
  -8  -1  -1 8978.72 1373.21  22
  -8   0 -11 2788.89 247.456   7
  -8   0 -10 2584.61 312.432   7
  -8   0  -9 2678.64 352.386   7
  -8   0  -8 3011.08 385.807   7
  -8   0  -7 5337.53 503.009   7
  -8   0  -6 2169.34 376.286   7
  -8   0  -5 663.865 281.620   7
  -8   0  -4 517.501 244.759   7
  -8   0  -3 369.230 237.341   7
  -8   0  -2 2052.42 640.283   1
  -8   0  -2 1279.79 265.354   7
  -8   1 -11 62.5153 110.973   7
  -8   1 -10 511.391 164.571  10
  -8   1 -10 426.880 190.866   7
  -8   1  -9 110.441 226.533   7
  -8   1  -8 864.070 285.230   7
  -8   1  -7 49.2801 266.468   7
  -8   1  -6 14982.3 746.642   7
  -8   1  -5 4102.80 450.018   7
  -8   1  -4 16709.2 787.861   7
  -8   1  -3 13162.3 692.606   7
  -8   1  -2 34562.2 1062.88   7
  -8   1   2 5917.72 431.611   8
  -8   2 -10 1037.35 190.006   7
  -8   2  -9 3538.86 349.466   7
  -8   2  -9 4112.72 368.453  10
  -8   2  -8 3483.77 382.163   7
  -8   2  -7 3783.56 424.698   7
  -8   2  -6 9416.08 607.079   7
  -8   2  -5 1615.77 341.417   7
  -8   2  -4 4764.21 461.144   7
  -8   2  -3-142.589 272.669   7
  -8   2   2 20249.9 788.937   8
  -8   3  -9 225.205 165.395   7
  -8   3  -9 136.612 147.983  10
  -8   3  -8 245.500 206.255   7
  -8   3  -8 451.124 221.224  10
  -8   3  -7 477.799 263.639   7
  -8   3  -7 724.843 284.509  10
  -8   3  -6 2592.50 401.014  10
  -8   3  -6 2144.82 351.182   7
  -8   3  -5 6054.45 507.111   7
  -8   3  -4 5948.28 521.951   7
  -8   3  -3 11329.6 677.824   7
  -8   3  -3 12612.8 758.181  10
  -8   3  -2 9822.68 644.843  10
  -8   3   1 7412.81 515.956   8
  -8   3   2 8880.00 532.275   8
  -8   3   3 275.858 162.438   8
  -8   4  -9 1562.63 183.798  10
  -8   4  -8 1698.16 229.509   7
  -8   4  -8 2208.46 278.781  10
  -8   4  -7 1301.96 286.127  10
  -8   4  -7 798.407 230.922   7
  -8   4  -6 4486.11 457.252  10
  -8   4  -6 3912.93 393.306   7
  -8   4  -5 2538.79 348.637   7
  -8   4  -5 2693.17 392.290  10
  -8   4  -4 1403.25 320.574  10
  -8   4  -3 1130.84 292.968  10
  -8   4  -2 474.415 226.603  10
  -8   4   0 144.627 189.746   8
  -8   4   1 4394.50 408.760   8
  -8   4   2 13817.3 630.708   8
  -8   4   3 4201.32 332.518   8
  -8   4   4 11304.1 428.209   8
  -8   5  -8 14.1673 118.341  10
  -8   5  -7 455.816 190.110  10
  -8   5  -6-60.6198 189.271  10
  -8   5  -5 1358.69 283.742  10
  -8   5  -5 1276.01 197.486   8
  -8   5  -4 2725.84 300.733   8
  -8   5  -4 2790.66 373.615  10
  -8   5  -3 2149.12 322.674  10
  -8   5  -3 2072.97 290.826   8
  -8   5  -2 2701.63 331.951   8
  -8   5  -2 2656.00 331.846  10
  -8   5  -1 8402.63 535.320   8
  -8   5   0 4960.70 419.001   8
  -8   5   1 4279.97 375.247   8
  -8   5   2 1897.09 254.214   8
  -8   5   3 25.2242 122.097   8
  -8   6  -7 1560.58 190.594  10
  -8   6  -6 550.015 179.118  10
  -8   6  -5 4346.28 372.572  10
  -8   6  -4 467.541 144.874   8
  -8   6  -4 522.578 203.426  10
  -8   6  -3 888.405 184.943   8
  -8   6  -3 775.030 213.991  10
  -8   6  -2 673.498 197.123  10
  -8   6  -2 757.125 191.311   8
  -8   6  -1 34.4830 153.220   8
  -8   6   0-77.7028 163.579   8
  -8   6   1 329.968 163.161   8
  -8   6   2 570.256 155.428   8
  -8   7  -5 75.6356 105.508  10
  -8   7  -4 40.2087 120.329  10
  -8   7  -3-148.443 120.769  10
  -8   7  -2 1134.04 163.325   8
  -8   7  -1 3833.71 267.250   8
  -8   7   0 2639.50 229.804   8
  -8   7   1 676.453 135.856   8
  -7 -10  -7 1761.68 156.830   3
  -7  -9  -9 1510.99 167.422   3
  -7  -9  -8 374.551 154.728   3
  -7  -9  -7 6320.96 360.726   3
  -7  -9  -6 6797.84 380.849   3
  -7  -8 -10 556.793 132.942   3
  -7  -8  -9 202.497 156.410   3
  -7  -8  -8-26.0845 183.316   3
  -7  -8  -7 956.288 238.215   3
  -7  -8  -6 973.304 240.359   3
  -7  -8  -5 2616.94 307.078   3
  -7  -7 -10 2765.26 259.238   3
  -7  -7  -9 6479.01 420.314   3
  -7  -7  -8 8138.34 496.924   3
  -7  -7  -7 7923.44 503.502   3
  -7  -7  -6 5441.32 438.623   3
  -7  -7  -5 3177.36 336.715   3
  -7  -7  -4 169.066 183.429   3
  -7  -6 -11 1212.84 161.439   3
  -7  -6 -10 1327.64 235.411   3
  -7  -6  -9 171.260 215.462   3
  -7  -6  -8 2530.97 350.169   3
  -7  -6  -7-13.3802 230.514   3
  -7  -6  -6 230.785 229.566   3
  -7  -6  -5 4632.29 413.090   3
  -7  -6  -4 7193.53 468.053   3
  -7  -5 -11 1076.08 179.008   7
  -7  -5 -11 1170.84 180.687   3
  -7  -5 -10 2524.16 299.622   3
  -7  -5  -9 1990.42 314.686   3
  -7  -5  -8 1767.40 323.966   3
  -7  -5  -7 10375.9 609.001   3
  -7  -5  -6 8254.25 542.131   3
  -7  -5  -5 14964.3 683.530   3
  -7  -5  -4 2318.23 309.026   3
  -7  -5  -4 2732.51 679.098   1
  -7  -4 -12 810.148 138.745   7
  -7  -4 -11 584.577 193.819   7
  -7  -4 -11 875.268 172.772   3
  -7  -4 -10 3956.35 354.806   3
  -7  -4  -9 3553.14 384.091   3
  -7  -4  -8 2451.26 353.435   3
  -7  -4  -7 1695.29 315.279   3
  -7  -4  -6 420.101 229.597   3
  -7  -4  -5-80.2682 304.783   1
  -7  -4  -5 46.3910 194.623   3
  -7  -4  -4 1012.71 507.189   1
  -7  -4  -4 1133.37 251.769   3
  -7  -4  -3 7660.33 998.233   1
  -7  -4  -2 20029.0 1508.12   1
  -7  -4  -1 12363.7 1459.11  22
  -7  -4  -1 13667.3 1242.06   1
  -7  -4   0 5094.99 958.571  22
  -7  -4   1 1793.81 604.765  22
  -7  -3 -12 35.5942 125.429   7
  -7  -3 -11-23.8155 196.912   7
  -7  -3 -10 458.170 196.258   3
  -7  -3  -9 4300.06 405.843   3
  -7  -3  -8 7355.97 520.417   3
  -7  -3  -7 15319.0 719.777   3
  -7  -3  -6 20097.4 805.092   3
  -7  -3  -6 21134.9 1734.18   1
  -7  -3  -5 15810.6 1466.19   1
  -7  -3  -5 14990.4 678.853   3
  -7  -3  -4 14225.2 1351.69   1
  -7  -3  -3 856.305 450.418   1
  -7  -3  -2 12391.2 1231.25   1
  -7  -3  -2 10077.9 1319.71  22
  -7  -3  -1 7922.26 1217.12  22
  -7  -3   0 241.579 408.679  22
  -7  -3   1 2210.92 690.524  22
  -7  -3   2-316.223 372.554  22
  -7  -2 -12 1677.51 201.275   7
  -7  -2 -11 4465.80 385.036   7
  -7  -2 -10 3760.78 331.985   3
  -7  -2 -10 3740.38 428.368   7
  -7  -2  -9 8483.52 525.180   3
  -7  -2  -8 1069.00 291.399   3
  -7  -2  -7 5343.45 461.350   3
  -7  -2  -6 4216.53 809.334   1
  -7  -2  -6 4326.53 431.646   7
  -7  -2  -6 3989.40 402.579   3
  -7  -2  -5 4482.69 833.857   1
  -7  -2  -5 4395.67 396.414   3
  -7  -2  -5 4059.46 404.146   7
  -7  -2  -4 791.824 492.247   1
  -7  -2  -3 34111.5 2001.42   1
  -7  -2  -2 1024.93 505.177  22
  -7  -2  -1 17539.7 1780.42  22
  -7  -2   0 22712.8 2028.96  22
  -7  -2   1 38998.5 2703.80  22
  -7  -2   2 24166.8 2174.83  22
  -7  -1 -12 14.8607 129.778   7
  -7  -1 -11 8.06503 198.070   7
  -7  -1 -10 1224.07 306.432   7
  -7  -1  -9 3516.50 459.964   7
  -7  -1  -9 3394.39 360.334   3
  -7  -1  -8 19274.9 773.598   3
  -7  -1  -8 18821.0 857.343   7
  -7  -1  -7 182.915 217.043   3
  -7  -1  -7 121.532 240.891   7
  -7  -1  -6 14864.9 694.749   3
  -7  -1  -6 15209.4 1478.44   1
  -7  -1  -6 14146.9 715.794   7
  -7  -1  -5 19781.7 773.273   3
  -7  -1  -5 20822.7 1684.99   1
  -7  -1  -5 18583.0 780.411   7
  -7  -1  -4 26816.5 1843.49   1
  -7  -1  -3 30353.0 1903.24   1
  -7  -1  -2 7208.75 1163.50  22
  -7  -1  -1 3339.51 805.879  22
  -7  -1   0 6059.44 1069.76  22
  -7  -1   1 5.31769 282.949  22
  -7  -1   2-163.679 349.159  22
  -7   0 -12 592.110 144.937   7
  -7   0 -11 3160.95 325.513   7
  -7   0 -10 2828.61 385.735   7
  -7   0  -9 6606.23 539.541   7
  -7   0  -8 19726.4 774.334   3
  -7   0  -8 20261.7 881.051   7
  -7   0  -7 97.5437 202.985   3
  -7   0  -7 66.0991 274.943   7
  -7   0  -6 174.957 214.714   3
  -7   0  -6 38.0889 225.235   7
  -7   0  -5 264.274 229.792   7
  -7   0  -5-456.778 438.163   1
  -7   0  -5 65.5907 190.250   3
  -7   0  -4 1096.01 508.811   1
  -7   0  -4 455.006 248.439   7
  -7   0  -4 394.244 204.633   3
  -7   0  -3 1328.96 520.174   1
  -7   0  -2 5435.07 1017.51  22
  -7   0  -1 23233.8 2048.96  22
  -7   0   0 17558.2 1796.75  22
  -7   0   1 4648.56 942.275  22
  -7   0   2 2300.21 745.749  22
  -7   1 -11 27.0581 157.260   7
  -7   1 -10-48.4975 229.206   7
  -7   1 -10 200.770 155.525  10
  -7   1  -9 481.793 294.123   7
  -7   1  -8 212.392 293.168   7
  -7   1  -7 1247.54 356.272   7
  -7   1  -6 14877.9 759.373   7
  -7   1  -5 10489.0 1243.00   1
  -7   1  -5 12146.9 678.076   7
  -7   1  -4 16033.3 1459.48   1
  -7   1  -4 16569.4 755.532   7
  -7   1  -3 24121.7 893.527   7
  -7   1  -3 23450.8 1815.46  17
  -7   1  -3 24972.4 1772.05   1
  -7   1  -1 19056.0 1872.29  22
  -7   1   0 40861.7 2723.63  22
  -7   1   1 11346.3 1517.15  22
  -7   1   2 20966.9 2041.66  22
  -7   2 -11 1660.10 190.372   7
  -7   2 -10 2091.09 297.129   7
  -7   2  -9 3589.66 389.415  10
  -7   2  -9 2688.73 367.013   7
  -7   2  -8 4265.88 472.441   7
  -7   2  -7 919.805 336.589   7
  -7   2  -6 4569.48 498.636   7
  -7   2  -5 1365.86 329.572   7
  -7   2  -4 496.310 261.893   7
  -7   2  -4-201.203 350.248   1
  -7   2  -3 3129.23 759.522  17
  -7   2  -3 2702.70 680.433   1
  -7   2  -3 2198.97 348.381   7
  -7   2  -2 442.992 412.196   1
  -7   2  -2 574.037 257.883   7
  -7   2  -1 1925.58 608.343  22
  -7   2  -1 1391.48 302.077   7
  -7   2   0 2173.12 660.454  22
  -7   2   1 21.4711 196.940  22
  -7   2   1-734.930 375.558   2
  -7   2   3 2823.01 328.846   8
  -7   3 -10 34.2799 146.463   7
  -7   3  -9-16.8853 172.009  10
  -7   3  -9 84.1253 199.155   7
  -7   3  -8 361.890 247.688  10
  -7   3  -8 196.354 240.107   7
  -7   3  -7 1696.55 359.201   7
  -7   3  -6 1999.64 375.583   7
  -7   3  -5 4236.39 483.497   7
  -7   3  -4 13661.6 727.394   7
  -7   3  -3 22178.3 912.264   7
  -7   3  -2 7022.52 1145.83  17
  -7   3  -2 7733.19 581.776   7
  -7   3   2 80.5778 191.808   8
  -7   3   3-47.1368 169.730   8
  -7   3   4 1001.62 218.478   8
  -7   4  -9 1910.95 252.918  10
  -7   4  -9 1577.91 221.059   7
  -7   4  -8 1876.46 310.218  10
  -7   4  -8 1471.33 268.530   7
  -7   4  -7 8697.77 557.935   7
  -7   4  -7 10425.9 686.961  10
  -7   4  -6 6413.31 505.744   7
  -7   4  -6 7865.15 634.652  10
  -7   4  -5 1361.37 350.165  10
  -7   4  -5 1214.63 324.802   7
  -7   4  -4 1751.37 370.232  10
  -7   4  -4 1253.98 343.366   7
  -7   4  -3 2436.97 390.589   7
  -7   4  -3 2823.59 423.958  10
  -7   4  -2 163.659 210.050  10
  -7   4  -1 3905.29 426.525  10
  -7   4   1 6801.48 528.406   8
  -7   4   2 18788.2 823.137   8
  -7   4   3 9109.21 564.543   8
  -7   4   4 17134.4 687.115   8
  -7   5  -8 236.744 176.271  10
  -7   5  -7 156.807 226.815  10
  -7   5  -7 6.47580 178.256   7
  -7   5  -6 1454.59 340.981  10
  -7   5  -6 1281.58 287.704   7
  -7   5  -5 2573.12 292.838   8
  -7   5  -5 3015.72 432.580  10
  -7   5  -5 2113.26 339.133   7
  -7   5  -4 6062.71 568.987  10
  -7   5  -3 7746.23 630.247  10
  -7   5  -2 8063.96 617.917  10
  -7   5  -2 9088.19 594.932   8
  -7   5  -1 8605.34 588.948   8
  -7   5  -1 8085.24 587.799  10
  -7   5   0 8330.67 578.181   8
  -7   5   1 3906.49 418.406   8
  -7   5   2 11023.4 627.926   8
  -7   5   3 5940.27 450.730   8
  -7   5   4-47.3681 145.849   8
  -7   6  -8 560.977 156.292  10
  -7   6  -7 1326.53 250.734  10
  -7   6  -6 431.816 224.864  10
  -7   6  -5 3037.81 391.015  10
  -7   6  -4 763.892 271.964  10
  -7   6  -4 864.235 190.173   8
  -7   6  -3 3779.03 440.955  10
  -7   6  -3 3466.28 352.385   8
  -7   6  -2 282.171 199.326   8
  -7   6  -2 270.553 233.032  10
  -7   6  -1 1022.51 256.129  10
  -7   6  -1 1194.08 261.751   8
  -7   6   0 1632.14 293.477   8
  -7   6   1 1576.89 290.065   8
  -7   6   2 616.408 221.077   8
  -7   6   3 19544.5 705.586   8
  -7   6   5 4345.29 218.510   9
  -7   7  -7-36.0378 104.935  10
  -7   7  -6 307.607 172.786  10
  -7   7  -5 134.672 191.562  10
  -7   7  -4 378.910 207.589  10
  -7   7  -3 49.8592 192.288  10
  -7   7  -3-43.6493 127.663   8
  -7   7  -2 9323.04 568.324  10
  -7   7  -2 8980.55 475.589   8
  -7   7  -1 1225.57 239.462   8
  -7   7  -1 1055.60 236.092  10
  -7   7   0 3593.26 340.557   8
  -7   7   1 3170.16 319.258   8
  -7   7   2 2309.20 265.974   8
  -7   7   4 252.128 97.5676   9
  -7   8  -5 1527.05 189.159  10
  -7   8  -4 1975.87 236.696  10
  -7   8  -3-5.36687 139.276  10
  -7   8  -2 596.412 155.097  10
  -7   8  -1 250.424 139.263   8
  -7   8  -1 409.031 126.531   9
  -7   8   0 3.32246 119.619   8
  -7   8   1 158.248 113.341   8
  -7   8   2 781.319 131.047   9
  -6 -10  -8 63.3621 106.583   3
  -6 -10  -7 2515.79 227.632   3
  -6 -10  -6 6124.89 333.665   3
  -6  -9  -9 4587.70 287.248   3
  -6  -9  -8 439.252 184.003   3
  -6  -9  -7 1599.49 254.323   3
  -6  -9  -6 1955.62 270.780   3
  -6  -9  -5 8204.44 460.329   3
  -6  -8 -10 93.0446 130.867   3
  -6  -8  -9 96.7345 177.373   3
  -6  -8  -8 228.175 212.997   3
  -6  -8  -7 1542.78 294.640   3
  -6  -8  -6 6383.14 462.339   3
  -6  -8  -5 587.162 220.153   3
  -6  -7 -11 1156.02 157.811   3
  -6  -7 -10 1280.87 235.338   3
  -6  -7  -9 8255.95 499.933   3
  -6  -7  -8 9494.95 570.010   3
  -6  -7  -7 9385.35 582.154   3
  -6  -7  -6 9211.30 572.220   3
  -6  -7  -5 11837.7 614.613   3
  -6  -7  -4 7234.91 471.287   3
  -6  -7  -1 1069.72 356.908  20
  -6  -6 -11 1372.83 198.810   3
  -6  -6 -11 1446.83 237.436  11
  -6  -6 -10 235.625 201.856   3
  -6  -6  -9 904.776 266.744   3
  -6  -6  -8 1010.23 293.281   3
  -6  -6  -7 1228.34 297.636   3
  -6  -6  -6 3064.59 373.091   3
  -6  -6  -5 2840.89 351.294   3
  -6  -6  -4 9891.41 540.365   3
  -6  -6  -2 23783.8 1541.96  20
  -6  -6  -1 8293.60 986.973  20
  -6  -6   0 38942.2 2156.49  20
  -6  -6   1 11021.6 1184.54  20
  -6  -5 -12-49.2852 121.238   7
  -6  -5 -11 765.626 240.757  11
  -6  -5 -11 606.488 171.457   3
  -6  -5 -10 6922.43 459.829   3
  -6  -5  -9 11790.7 639.933   3
  -6  -5  -8 11607.2 653.863   3
  -6  -5  -7 18558.6 800.945   3
  -6  -5  -6 6987.20 506.491   3
  -6  -5  -6 5888.37 862.405   1
  -6  -5  -5 8771.98 527.601   3
  -6  -5  -5 7959.37 988.510   1
  -6  -5  -4 9773.35 1024.78   1
  -6  -5  -3 4098.72 666.142   1
  -6  -5  -2 3034.31 551.156  20
  -6  -5  -1-193.561 257.062  20
  -6  -5   0 209.596 263.437  20
  -6  -4 -12 474.437 166.529  11
  -6  -4 -12 783.248 181.620   7
  -6  -4 -11 551.770 178.298   3
  -6  -4 -11 623.767 252.792  11
  -6  -4 -10 3117.45 343.590   3
  -6  -4  -9 623.705 241.052   3
  -6  -4  -8-160.699 256.139   3
  -6  -4  -7 1954.36 326.072   3
  -6  -4  -6 623.077 232.279   3
  -6  -4  -6 654.167 415.171   1
  -6  -4  -5 6581.72 894.080   1
  -6  -4  -4 3796.02 722.495   1
  -6  -4  -3 19671.7 1392.97   1
  -6  -4  -2 13892.7 1156.04   1
  -6  -4  -1 43399.4 2418.00  22
  -6  -4   0 60169.3 2912.29  22
  -6  -4   1 46534.5 2662.51  22
  -6  -4   2 10132.3 1328.42  22
  -6  -4   3 2907.17 753.241  22
  -6  -3 -12 23.1110 162.249  11
  -6  -3 -12-40.3437 170.932   7
  -6  -3 -11-340.805 252.034  11
  -6  -3 -10 2392.61 407.049  11
  -6  -3 -10 2131.59 292.563   3
  -6  -3  -9 1689.18 305.779   3
  -6  -3  -8 1722.17 320.312   3
  -6  -3  -7 7424.93 1063.84   1
  -6  -3  -7 7836.34 533.473   3
  -6  -3  -6 28810.7 918.135   3
  -6  -3  -6 28504.8 1870.91   1
  -6  -3  -5 28961.4 1829.19   1
  -6  -3  -4 9853.21 1052.51   1
  -6  -3  -3 1369.08 477.802   1
  -6  -3  -2 8255.28 897.124   1
  -6  -3  -2 7720.47 1088.99  22
  -6  -3  -1 1202.28 479.008  22
  -6  -3   0 405.192 413.060  22
  -6  -3   1 93.8684 375.483  22
  -6  -3   2 2326.60 683.246  22
  -6  -3   3 14367.8 1647.75  22
  -6  -3   4 11684.0 1538.73  22
  -6  -2 -12 4142.58 337.533  11
  -6  -2 -12 4404.22 342.311   7
  -6  -2 -11 2914.21 381.246  11
  -6  -2 -10 3899.52 350.035   3
  -6  -2 -10 4136.21 486.761  11
  -6  -2  -9 1761.29 384.292  11
  -6  -2  -9 1592.06 283.461   3
  -6  -2  -8 1873.29 317.501   3
  -6  -2  -7 4485.70 840.336   1
  -6  -2  -7 5102.08 445.315   3
  -6  -2  -6 1048.40 479.593   1
  -6  -2  -5 450.673 402.206   1
  -6  -2  -4 142.747 318.080   1
  -6  -2  -3 4151.14 698.638   1
  -6  -2  -2 10010.0 1246.52  22
  -6  -2  -1 36076.9 2267.54  22
  -6  -2   0 25343.9 1931.26  22
  -6  -2   1 46310.5 2666.59  22
  -6  -2   2 19128.1 1791.34  22
  -6  -2   3 26998.1 2226.68  22
  -6  -2   4 4725.94 1011.35  22
  -6  -1 -12 163.744 166.093  11
  -6  -1 -12 302.727 185.325   7
  -6  -1 -11 138.238 241.123   7
  -6  -1 -11-83.7783 232.077  11
  -6  -1 -10-258.612 288.644  11
  -6  -1  -9 2471.72 325.937   3
  -6  -1  -9 2647.89 444.924  11
  -6  -1  -8 21926.0 821.884   3
  -6  -1  -7 2886.36 690.190   1
  -6  -1  -7 2767.64 341.828   3
  -6  -1  -6 18591.4 1531.03   1
  -6  -1  -5 39177.8 2117.72   1
  -6  -1  -4 12935.1 1192.60   1
  -6  -1  -3 21894.4 1477.28   1
  -6  -1  -2 658.355 440.068  22
  -6  -1  -1 14914.3 1488.54  22
  -6  -1   0 5179.02 937.924  22
  -6  -1   1 1388.77 589.597  22
  -6  -1   2 1393.65 566.709  22
  -6  -1   3 3694.12 878.591  22
  -6  -1   4 6016.76 1120.90  22
  -6   0 -12 605.280 198.965   7
  -6   0 -12 487.861 170.892  11
  -6   0 -11 3050.50 368.837   7
  -6   0 -11 2755.53 357.950  11
  -6   0 -10 4979.31 513.621  11
  -6   0 -10 4579.62 493.797   7
  -6   0  -9 5683.88 557.740  11
  -6   0  -8 23046.2 823.659   3
  -6   0  -7 247.140 213.514   3
  -6   0  -7 243.885 364.209   1
  -6   0  -6 10896.2 1184.41   1
  -6   0  -6 10019.4 549.809   3
  -6   0  -5 4060.07 735.128   1
  -6   0  -4 4726.32 764.216   1
  -6   0  -3 43.9086 325.484   1
  -6   0  -2 22298.4 1813.04  22
  -6   0  -1 29442.9 2081.74  22
  -6   0   0 89574.4 3646.45  22
  -6   0   1 15554.5 1589.20  22
  -6   0   2 61990.3 3228.17  22
  -6   0   3 62456.2 3360.38  22
  -6   0   4 24015.9 2189.90  22
  -6   1 -12-102.820 121.504   7
  -6   1 -12 32.9574 108.193  11
  -6   1 -11-159.157 208.422   7
  -6   1 -11-223.254 200.445  11
  -6   1 -10 518.672 287.220   7
  -6   1 -10 787.565 282.976  11
  -6   1  -9 1217.99 346.831   7
  -6   1  -9 1736.54 359.036  11
  -6   1  -8 1349.42 361.198   7
  -6   1  -7 12060.2 613.426   3
  -6   1  -7 12221.0 727.546   7
  -6   1  -6 1844.41 295.507   3
  -6   1  -6 1721.19 579.964   1
  -6   1  -6 1532.30 330.583   7
  -6   1  -5 28144.6 1807.29   1
  -6   1  -4 13569.5 1262.19  17
  -6   1  -4 16524.3 1346.51   1
  -6   1  -3 40744.6 2042.41   1
  -6   1  -2 38113.8 2356.53  22
  -6   1  -1 21232.3 1779.93  22
  -6   1   0 155.247 409.099  22
  -6   1   1 42.1173 303.255  22
  -6   1   2 180.144 387.551  22
  -6   1   3-97.0701 345.038  22
  -6   1   4 2825.28 818.802  22
  -6   2 -11 450.727 181.213  11
  -6   2 -11 821.923 197.097   7
  -6   2 -10 4284.71 404.699   7
  -6   2 -10 3778.83 394.574  11
  -6   2  -9 4021.21 448.395  11
  -6   2  -9 5202.25 473.160  10
  -6   2  -9 4601.49 473.858   7
  -6   2  -8 10840.2 693.470  11
  -6   2  -8 10388.2 674.480   7
  -6   2  -7 10689.1 684.005   7
  -6   2  -6-1700.90 564.618   1
  -6   2  -6 288.512 258.244   7
  -6   2  -5 945.849 450.889   1
  -6   2  -5 1026.81 314.271   7
  -6   2  -4-214.467 373.428   1
  -6   2  -4 273.635 280.422  17
  -6   2  -3 3769.39 767.197  17
  -6   2  -3 5041.47 750.985   1
  -6   2  -1 9926.53 904.484   2
  -6   2  -1 7934.30 1126.54  22
  -6   2   0 27698.9 1591.23   2
  -6   2   0 27554.8 2063.32  22
  -6   2   1 14795.6 1564.81  22
  -6   2   1 15131.5 1272.63   2
  -6   2   2 6142.02 1064.98  22
  -6   2   3-276.019 307.835  22
  -6   2   3 280.306 170.305   8
  -6   3 -10 56.2652 172.470  11
  -6   3 -10-89.1096 177.006   7
  -6   3  -9 36.7141 202.180  11
  -6   3  -9 37.3074 173.923  10
  -6   3  -9 0.39795 221.319   7
  -6   3  -8 323.622 276.837   7
  -6   3  -8 487.475 244.959  11
  -6   3  -8 306.891 232.456  10
  -6   3  -7 71.0395 262.566   7
  -6   3  -6 791.628 293.061   7
  -6   3  -5 3276.27 424.268   7
  -6   3  -4 21844.1 889.541   7
  -6   3  -4 17925.7 1733.73  17
  -6   3  -3 22956.3 898.378   7
  -6   3  -3 20748.3 1839.14  17
  -6   3  -2 13269.5 1192.58   1
  -6   3  -2 13447.7 1482.66  17
  -6   3   0 9909.55 1237.50  22
  -6   3   0 11540.7 1103.49   2
  -6   3   1 29449.3 2171.47  22
  -6   3   1 31303.7 1889.94   2
  -6   3   2 5797.65 853.029   2
  -6   3   2 6465.89 503.300   8
  -6   3   2 5498.26 980.436  22
  -6   3   3 19344.3 826.643   8
  -6   3   4 15445.2 717.180   8
  -6   4 -10 448.914 152.943  11
  -6   4  -9 3003.25 307.413   7
  -6   4  -9 3184.09 331.833  10
  -6   4  -8 2155.05 352.563  10
  -6   4  -8 2023.38 319.458   7
  -6   4  -7 8287.69 655.050  10
  -6   4  -7 8269.60 569.040   7
  -6   4  -6 1657.81 340.653   7
  -6   4  -6 2277.45 412.551  10
  -6   4  -5 1938.00 390.185  10
  -6   4  -5 1435.07 313.473   7
  -6   4  -4 3251.19 405.264   7
  -6   4  -4 3751.70 487.496  10
  -6   4  -3 44.6461 224.897   7
  -6   4  -3 390.472 269.977  10
  -6   4  -2 2104.01 628.596  17
  -6   4  -2 2717.01 399.544  10
  -6   4  -2 2554.18 363.829   7
  -6   4  -1 3.28018 205.184  10
  -6   4  -1 452.928 352.726  17
  -6   4   1 7765.58 566.596   8
  -6   4   1 7392.93 1002.27   2
  -6   4   2 1098.77 262.307   8
  -6   4   3 4467.14 440.994   8
  -6   4   4 6106.24 485.191   8
  -6   4   5 7410.00 484.137   8
  -6   5  -8 760.103 193.509   7
  -6   5  -8 871.967 254.508  10
  -6   5  -7-104.240 235.348  10
  -6   5  -7-64.6764 196.391   7
  -6   5  -6 1405.64 313.743   7
  -6   5  -6 2259.86 409.823  10
  -6   5  -5 1921.02 393.423  10
  -6   5  -5 1917.36 343.132   7
  -6   5  -4 6563.21 525.562   7
  -6   5  -4 7282.65 651.704  10
  -6   5  -3 13714.9 848.081  10
  -6   5  -3 12975.0 736.597   7
  -6   5  -2 13177.9 821.142  10
  -6   5  -1 3585.08 448.646  10
  -6   5   0 20918.6 910.406   8
  -6   5   1 13884.2 748.926   8
  -6   5   2 2723.69 380.242   8
  -6   5   3-128.430 211.146   8
  -6   5   4 789.855 242.870   8
  -6   5   5 779.599 211.339   8
  -6   6  -8 1468.56 246.088  10
  -6   6  -7 872.730 261.332  10
  -6   6  -6 6422.86 562.500  10
  -6   6  -5 6475.52 594.744  10
  -6   6  -4 1731.90 262.133   8
  -6   6  -4 1682.28 382.856  10
  -6   6  -3 804.400 310.478  10
  -6   6  -3 895.303 229.729   8
  -6   6  -2 138.329 245.278  10
  -6   6  -2 240.019 192.964   8
  -6   6  -1 770.296 285.499  10
  -6   6  -1 484.408 228.022   8
  -6   6   0 909.447 266.497   8
  -6   6   1 3086.07 398.410   8
  -6   6   2 3138.89 392.540   8
  -6   6   3 16444.2 769.030   8
  -6   6   4 3029.23 344.546   8
  -6   7  -7 123.800 171.696  10
  -6   7  -6 299.348 230.274  10
  -6   7  -5 2281.97 377.352  10
  -6   7  -4 1285.59 332.118  10
  -6   7  -3 2200.13 390.350  10
  -6   7  -3 2074.00 267.983   8
  -6   7  -2 13833.3 654.770   8
  -6   7  -2 14979.3 834.913  10
  -6   7  -1 3197.58 364.287   8
  -6   7  -1 3333.41 430.751  10
  -6   7   0 4411.91 423.406   8
  -6   7   1 9549.64 594.345   8
  -6   7   2 2489.39 341.828   8
  -6   7   3 4386.32 390.797   8
  -6   7   5 63.3341 100.124   9
  -6   8  -6 328.192 169.546  10
  -6   8  -5 546.342 223.099  10
  -6   8  -4 804.501 252.323  10
  -6   8  -3-7.46428 209.103  10
  -6   8  -2 3458.89 399.087  10
  -6   8  -2 3025.76 279.931   8
  -6   8  -1 563.845 196.372   8
  -6   8  -1 573.475 225.908  10
  -6   8   0 528.162 193.049   8
  -6   8   1 1107.04 231.346   8
  -6   8   2 1098.07 220.562   8
  -6   8   4 4496.92 261.330   9
  -6   9  -4-357.084 189.164  10
  -6   9  -2-510.408 221.817  10
  -6   9  -1 2708.99 234.104  10
  -6   9   0 1032.99 158.878   9
  -6   9   1 1851.31 189.586   9
  -6   9   2 783.654 134.626   9
  -5 -10  -9 464.024 111.779   3
  -5 -10  -8 594.443 159.662   3
  -5 -10  -7 544.385 178.352   3
  -5 -10  -6 2897.84 281.091   3
  -5 -10  -5 7131.32 397.551   3
  -5  -9 -10 1805.64 169.474   3
  -5  -9  -9 1323.79 212.356   3
  -5  -9  -8 3615.85 339.266   3
  -5  -9  -7 4088.30 373.709   3
  -5  -9  -6 1290.79 270.669   3
  -5  -9  -5 2921.42 331.788   3
  -5  -8 -10 1015.07 203.294   3
  -5  -8  -9 217.028 202.272   3
  -5  -8  -8 438.537 249.824   3
  -5  -8  -7 269.194 234.812   3
  -5  -8  -6 4106.60 416.074   3
  -5  -8  -5 8727.90 541.670   3
  -5  -8  -4 30677.7 922.195   3
  -5  -7 -11 1477.22 186.518   3
  -5  -7 -10 1977.27 274.504   3
  -5  -7  -9 6316.45 477.186   3
  -5  -7  -8 3184.24 390.603   3
  -5  -7  -7 2102.99 349.166   3
  -5  -7  -6 673.380 259.580   3
  -5  -7  -5 6287.24 477.855   3
  -5  -7  -4 39612.4 1049.91   3
  -5  -7  -2 244.722 260.028  20
  -5  -7  -1-240.290 272.045  20
  -5  -7   0 4588.34 762.939  20
  -5  -7   1 11216.8 1212.78  20
  -5  -6 -12 1262.73 190.276  11
  -5  -6 -11 2846.98 260.912   3
  -5  -6 -10 1364.91 270.371   3
  -5  -6  -9 2339.28 350.345   3
  -5  -6  -8 49.4048 253.003   3
  -5  -6  -7 895.227 279.564   3
  -5  -6  -6 6247.83 494.396   3
  -5  -6  -5 16284.8 702.475   3
  -5  -6  -3 11744.6 1011.01  20
  -5  -6  -2 12877.2 1105.17  20
  -5  -6  -1 14134.9 1187.99  20
  -5  -6   0 3987.40 675.022  20
  -5  -6   1-14.8120 180.968  20
  -5  -6   2 271.607 293.665  20
  -5  -6   3-557.802 328.710  20
  -5  -5 -12-180.130 184.234  11
  -5  -5 -11 2156.88 246.540   3
  -5  -5 -10 1782.79 297.387   3
  -5  -5  -9 3106.41 391.937   3
  -5  -5  -8 23193.7 901.302   3
  -5  -5  -7 24742.8 1768.66   1
  -5  -5  -7 29271.4 991.543   3
  -5  -5  -6 25254.3 1657.26   1
  -5  -5  -6 25940.5 902.069   3
  -5  -5  -5 10299.7 1007.21   1
  -5  -5  -4 24998.4 1442.30   1
  -5  -5  -3 7013.60 764.089   1
  -5  -5  -3 4793.28 590.373  20
  -5  -5  -2 7666.79 759.029   1
  -5  -5  -2 6832.43 753.107  20
  -5  -5  -1 124.659 234.180  20
  -5  -5   0 2269.66 505.964  20
  -5  -5   1 1938.69 512.741  20
  -5  -5   2 62.3480 186.015  20
  -5  -4 -12 2015.44 300.811  11
  -5  -4 -11 3033.47 281.574   3
  -5  -4 -10 3744.19 366.011   3
  -5  -4  -9 2734.19 369.923   3
  -5  -4  -8 1400.73 305.477   3
  -5  -4  -7 741.718 440.718   1
  -5  -4  -7 1765.25 310.958   3
  -5  -4  -6 1440.34 511.063   1
  -5  -4  -5 2212.06 528.625   1
  -5  -4  -4-29.0298 291.418   1
  -5  -4  -3 35913.3 1664.60   1
  -5  -4  -3 32306.3 1345.56  20
  -5  -4  -2 38250.9 1634.82   1
  -5  -4  -2 35807.3 1512.45  20
  -5  -4  -1 18466.4 1162.57  20
  -5  -4  -1 17840.0 1384.96  22
  -5  -4   0 28523.2 1789.34  22
  -5  -4   0 27466.4 1494.98  20
  -5  -4   1 96695.3 2970.24  20
  -5  -4   1 102018. 3500.96  22
  -5  -4   2 4219.97 814.300  22
  -5  -4   3 10976.7 1305.96  22
  -5  -4   4 4609.89 940.061  22
  -5  -3 -13 36.0185 106.208   7
  -5  -3 -12 496.688 247.854  11
  -5  -3 -11-166.474 300.184  11
  -5  -3 -10 3505.28 352.433   3
  -5  -3  -9 9206.32 573.561   3
  -5  -3  -8 27055.9 936.321   3
  -5  -3  -7 28309.9 928.716   3
  -5  -3  -7 29984.8 1898.80   1
  -5  -3  -6 27830.2 1723.71   1
  -5  -3  -5 34549.4 1791.43   1
  -5  -3  -4 5665.30 745.999   1
  -5  -3  -3 38416.7 1711.86   1
  -5  -3  -2 21900.2 1273.70   1
  -5  -3  -2 22358.6 1112.44  20
  -5  -3  -1 1431.81 373.639  20
  -5  -3  -1 594.863 379.476  22
  -5  -3   0 1561.38 520.358  22
  -5  -3   0 1859.83 422.545  20
  -5  -3   1 1425.20 537.795  22
  -5  -3   2 758.642 424.887  22
  -5  -3   3 2498.44 690.214  22
  -5  -3   4 10152.9 1348.25  22
  -5  -3   5 3216.89 818.058  22
  -5  -2 -13 515.053 135.436   7
  -5  -2 -12 5238.90 461.228  11
  -5  -2 -11 3010.60 452.141  11
  -5  -2 -10 3877.14 535.785  11
  -5  -2  -9 82.9135 214.714   3
  -5  -2  -8 6217.01 468.794   3
  -5  -2  -8 6185.41 946.891   1
  -5  -2  -7 883.014 418.815   1
  -5  -2  -6 1168.81 485.501   1
  -5  -2  -5 1698.03 531.540   1
  -5  -2  -4 50568.3 2073.97   1
  -5  -2  -3 3337.82 572.730   1
  -5  -2  -2 40787.2 2131.74  22
  -5  -2  -1 30101.4 1831.84  22
  -5  -2   0 44440.7 2251.70  22
  -5  -2   1 59875.4 2712.66  22
  -5  -2   2 25636.5 1874.62  22
  -5  -2   3 7032.38 1060.44  22
  -5  -2   4 5812.28 1064.47  22
  -5  -2   5 7382.73 1192.91  22
  -5  -1 -12 279.099 238.118  11
  -5  -1 -12 607.896 230.535   7
  -5  -1 -11 18.1606 288.208  11
  -5  -1 -10 412.944 331.725  11
  -5  -1  -9 14272.2 906.257  11
  -5  -1  -8 567.304 216.150   3
  -5  -1  -8 634.321 458.234   1
  -5  -1  -7 9744.96 1114.19   1
  -5  -1  -6 24356.8 1610.40   1
  -5  -1  -5 78282.5 2714.54   1
  -5  -1  -4 50933.2 2062.81   1
  -5  -1  -3 30161.5 1547.47   1
  -5  -1  -2 879.015 483.019  22
  -5  -1  -1 3572.56 732.897  22
  -5  -1   0 4977.50 834.590  22
  -5  -1   1 18132.9 1525.76  22
  -5  -1   2 150.843 380.859  22
  -5  -1   3 6781.89 1066.55  22
  -5  -1   4 9501.05 1303.88  22
  -5  -1   5 24747.7 2156.38  22
  -5   0 -12 1440.40 285.886  11
  -5   0 -12 1182.85 238.661   7
  -5   0 -11 1242.86 357.887  11
  -5   0 -10 6123.89 617.776  11
  -5   0  -9 10083.1 778.952  11
  -5   0  -8 2752.34 457.747  11
  -5   0  -8 2826.98 669.152   1
  -5   0  -7 55.9906 354.767   1
  -5   0  -6 4555.16 748.173   1
  -5   0  -5 202.522 323.238   1
  -5   0  -4 273.092 347.120   1
  -5   0  -4 527.219 259.956  17
  -5   0  -3 426.321 370.143   1
  -5   0  -2 8052.46 1030.02  22
  -5   0  -1 34394.7 2015.70  22
  -5   0   0 63845.6 2767.01  22
  -5   0   1 1290.14 556.506  22
  -5   0   2 167897. 4804.78  22
  -5   0   3 40118.6 2477.05  22
  -5   0   4 15492.3 1628.77  22
  -5   0   5 4544.42 958.358  22
  -5   1 -12-19.1571 146.172   7
  -5   1 -12-178.560 193.517  11
  -5   1 -11-2.58600 218.259   7
  -5   1 -11 44.7839 252.590  11
  -5   1 -10 125.941 289.204  11
  -5   1 -10 14.5431 281.079   7
  -5   1  -9 542.499 332.361  11
  -5   1  -8 5184.50 578.673  11
  -5   1  -7 33072.2 1969.44   1
  -5   1  -7 31809.2 1226.14  11
  -5   1  -6 11295.4 1113.50   1
  -5   1  -5 28595.0 1671.37   1
  -5   1  -4 31105.7 1653.97   1
  -5   1  -4 29321.3 1652.88  17
  -5   1  -3 58971.0 2185.53   1
  -5   1  -2 5393.76 508.911   2
  -5   1  -2 5903.26 883.522  22
  -5   1  -1 13166.5 1287.92  22
  -5   1   0 5114.75 837.912  22
  -5   1   1-131.193 387.026  22
  -5   1   2 10648.4 1254.12  22
  -5   1   3 2897.68 739.367  22
  -5   1   4-99.3723 327.236  22
  -5   1   5 902.269 505.737  22
  -5   1  10 2841.01 188.427  18
  -5   2 -12 1428.56 218.197  11
  -5   2 -11 366.606 250.230  11
  -5   2 -11 478.850 198.089   7
  -5   2 -10 3588.94 474.929  11
  -5   2 -10 2875.70 384.643   7
  -5   2  -9 7559.96 657.239  11
  -5   2  -9 6723.85 548.979   7
  -5   2  -8 3126.43 428.254   7
  -5   2  -8 3078.54 481.890  11
  -5   2  -7 15893.7 827.378   7
  -5   2  -7 14918.5 875.297  11
  -5   2  -6 8052.78 573.716   7
  -5   2  -6 7151.77 889.819   1
  -5   2  -5 1332.40 436.649   1
  -5   2  -5 1559.82 485.864  17
  -5   2  -4 992.318 366.421   1
  -5   2  -4 965.232 414.238  17
  -5   2  -3-78.2785 298.178  17
  -5   2  -3 50.8968 281.766   1
  -5   2  -1 9623.11 1090.09  22
  -5   2  -1 9867.89 815.460   2
  -5   2   0 35474.5 1649.97   2
  -5   2   0 34896.0 2089.10  22
  -5   2   1 104493. 3705.32  22
  -5   2   2 20375.6 1727.74  22
  -5   2   3 24988.5 1994.28  22
  -5   2   4 59265.8 3217.73  22
  -5   2   5 36837.6 2658.09  22
  -5   2  10 12.7970 68.9042  18
  -5   3 -11-228.106 194.543  11
  -5   3 -10 53.3470 195.858   7
  -5   3 -10 10.4109 241.222  11
  -5   3  -9 69.2505 233.576   7
  -5   3  -9-63.1575 282.058  11
  -5   3  -8 4542.33 530.459  11
  -5   3  -8 3519.26 436.661   7
  -5   3  -8 4160.91 462.726  10
  -5   3  -7 2879.27 420.556   7
  -5   3  -7 3034.10 452.122  11
  -5   3  -6 625.819 272.024  11
  -5   3  -6 861.642 292.591   7
  -5   3  -5 7004.92 1039.87  17
  -5   3  -4 44306.9 1960.49   1
  -5   3  -4 38665.9 2341.25  17
  -5   3  -3 6659.71 971.219  17
  -5   3  -3 7332.57 820.924   1
  -5   3  -2 21034.9 1696.62  17
  -5   3  -2 22006.6 1359.98   1
  -5   3  -1 43077.0 1801.46   2
  -5   3  -1 41248.7 2225.66  22
  -5   3   0 24720.9 1768.46  22
  -5   3   0 23430.4 1425.36   2
  -5   3   1 612.264 313.150  22
  -5   3   1 568.763 314.175   2
  -5   3   2 8995.62 1163.39  22
  -5   3   2 9093.41 1035.20   2
  -5   3   3 562.329 327.666   2
  -5   3   3-567.021 413.156  22
  -5   3   4 6470.11 1002.42   2
  -5   3   4 6089.32 1007.35  22
  -5   3   4 6682.13 489.098   8
  -5   3   9 4797.44 245.473  18
  -5   4 -11 1593.31 207.701  11
  -5   4 -10 2550.20 326.083  11
  -5   4  -9 1775.12 282.668   7
  -5   4  -9 1495.29 329.162  11
  -5   4  -8 5210.77 515.792  11
  -5   4  -8 6220.33 481.526   7
  -5   4  -8 6349.96 542.971  10
  -5   4  -7 11681.4 769.529  10
  -5   4  -7 12496.4 683.404   7
  -5   4  -7 10537.5 715.250  11
  -5   4  -6 4920.30 471.091   7
  -5   4  -6 5133.92 551.212  10
  -5   4  -6 4362.71 472.799  11
  -5   4  -5 789.211 445.497  17
  -5   4  -5 125.560 224.354   7
  -5   4  -4 3303.44 828.725  17
  -5   4  -4 3561.58 399.141   7
  -5   4  -3 537.825 379.185  17
  -5   4  -2 6352.18 1021.89  17
  -5   4  -1 2570.01 686.184  17
  -5   4   0 6899.27 850.804   2
  -5   4   1 35793.9 1982.95   2
  -5   4   2 6760.44 925.574   2
  -5   4   2 7493.17 528.838   8
  -5   4   3 3825.67 721.922   2
  -5   4   3 2726.03 345.613   8
  -5   4   4 9228.82 601.043   8
  -5   4   5 33032.1 1067.19   8
  -5   5  -9-348.079 235.907  11
  -5   5  -8-453.104 291.378  11
  -5   5  -8 45.1155 198.992  10
  -5   5  -7 125.724 199.745   7
  -5   5  -7 12.7853 236.372  10
  -5   5  -6 631.162 255.566   7
  -5   5  -6-31.4490 277.927  11
  -5   5  -6 639.123 299.376  10
  -5   5  -5-40.2229 262.826  11
  -5   5  -5 616.155 253.766   7
  -5   5  -5 458.769 286.952  10
  -5   5  -4 1256.88 629.980  17
  -5   5  -4 1623.44 373.984  10
  -5   5  -4 1694.10 325.473   7
  -5   5  -3 4267.36 907.992  17
  -5   5  -3 5509.83 503.370   7
  -5   5  -3 5795.45 577.242  10
  -5   5  -2 13443.1 818.104  10
  -5   5  -2 12577.2 1533.39  17
  -5   5  -2 12942.5 706.352   7
  -5   5  -1 15032.3 831.841  10
  -5   5  -1 13226.6 1573.36  17
  -5   5   0 13048.2 1559.20  17
  -5   5   0 14884.1 752.123   8
  -5   5   1 12457.5 1524.89  17
  -5   5   1 13244.0 718.005   8
  -5   5   2 7016.73 548.240   8
  -5   5   3 1946.72 331.490   8
  -5   5   4 3363.60 405.046   8
  -5   5   5 15379.4 751.119   8
  -5   6  -9-313.629 151.289  11
  -5   6  -8 3286.92 353.287  10
  -5   6  -8 1410.15 239.947  11
  -5   6  -7 909.865 233.384  11
  -5   6  -7 1885.75 339.410  10
  -5   6  -6 6227.98 593.765  10
  -5   6  -6 3743.33 376.463  11
  -5   6  -5 1921.35 306.363   7
  -5   6  -5 2265.75 430.274  10
  -5   6  -5 1112.02 253.033  11
  -5   6  -4 7392.94 666.891  10
  -5   6  -3-151.103 191.957   8
  -5   6  -3-23.5721 254.119  10
  -5   6  -2 239.261 244.680  10
  -5   6  -2 134.369 182.896   8
  -5   6  -1-147.019 245.242  10
  -5   6  -1 233.452 199.375   8
  -5   6   0 1749.46 338.800  10
  -5   6   0 1948.18 333.895   8
  -5   6   1 128.027 204.476   8
  -5   6   2 10275.2 662.629   8
  -5   6   3 1910.35 355.405   8
  -5   6   4 6358.93 522.898   8
  -5   6   5 7978.26 537.941   8
  -5   7  -8 2854.12 205.622  11
  -5   7  -7 1685.36 205.481  11
  -5   7  -7 235.489 218.240  10
  -5   7  -6 644.497 273.339  10
  -5   7  -6 2311.49 255.233  11
  -5   7  -5 4750.77 335.768  11
  -5   7  -5 1423.64 356.120  10
  -5   7  -4 11248.1 492.565  11
  -5   7  -4 127.050 272.137  10
  -5   7  -3 9535.63 734.830  10
  -5   7  -2 9639.19 741.889  10
  -5   7  -2 8992.18 564.796   8
  -5   7  -1 7961.22 667.794  10
  -5   7  -1 6963.68 525.515   8
  -5   7   0 594.058 287.537  10
  -5   7   0 344.564 227.659   8
  -5   7   1 9109.80 615.627   8
  -5   7   2 7830.97 578.808   8
  -5   7   3 1648.73 320.902   8
  -5   7   4 132.400 200.183   8
  -5   7   6 518.895 131.397   9
  -5   8  -7 747.328 187.423  10
  -5   8  -6 734.765 250.401  10
  -5   8  -5 980.434 301.729  10
  -5   8  -4 5133.79 526.333  10
  -5   8  -3 2498.82 421.524  10
  -5   8  -2 1383.29 368.229  10
  -5   8  -2 907.325 215.628   8
  -5   8  -1 55.4404 171.335   8
  -5   8  -1 16.6409 252.866  10
  -5   8   0 108.307 180.373   8
  -5   8   0 157.332 227.173  10
  -5   8   1 452.607 219.629   8
  -5   8   2 1519.82 291.157   8
  -5   8   3 1669.62 295.676   8
  -5   8   5 2923.03 241.881   9
  -5   9  -5 175.994 176.822  10
  -5   9  -4 2171.13 317.920  10
  -5   9  -3 1321.82 295.839  10
  -5   9  -2 1037.24 274.165  10
  -5   9  -1 5626.79 477.527  10
  -5   9  -1 6188.60 367.564   9
  -5   9   0 2330.06 271.311   9
  -5   9   0 1337.09 246.656  10
  -5   9   1 3970.98 331.205   9
  -5   9   2 3064.41 288.105   9
  -5   9   3 3255.04 277.891   9
  -5   9   4 70.6007 102.903   9
  -5  10  -3 140.521 145.090  10
  -5  10  -2-337.505 175.372  10
  -5  10  -1 74.0948 127.809  10
  -5  10   1 186.461 104.183   9
  -5  10   2 852.223 124.726   9
  -4 -11  -7 801.183 134.628   3
  -4 -11  -6 396.673 138.292   3
  -4 -10  -9 133.561 109.855   3
  -4 -10  -8 1312.27 205.635   3
  -4 -10  -7 1400.31 236.168   3
  -4 -10  -6 3108.02 309.092   3
  -4 -10  -5 1246.18 234.337   3
  -4  -9 -10 4850.15 262.486   3
  -4  -9  -9 2392.37 270.799   3
  -4  -9  -8 5258.47 405.767   3
  -4  -9  -7 4935.87 423.877   3
  -4  -9  -6 7754.01 511.572   3
  -4  -9  -5 263.891 206.098   3
  -4  -9  -4 106.716 187.143   3
  -4  -8 -10-64.6283 157.600   3
  -4  -8  -9 16.0976 207.630   3
  -4  -8  -8-87.0814 260.308   3
  -4  -8  -7 3257.18 396.672   3
  -4  -8  -6 3199.83 384.073   3
  -4  -8  -5 15985.4 726.667   3
  -4  -8  -4 25838.8 867.586   3
  -4  -8   0 9711.50 1138.06  20
  -4  -7 -11 1210.24 180.174   3
  -4  -7 -10 4429.55 373.446   3
  -4  -7  -9 10197.3 587.703   3
  -4  -7  -8 8109.54 571.374   3
  -4  -7  -7 4308.47 445.524   3
  -4  -7  -6 2341.59 346.763   3
  -4  -7  -5 68.4939 205.250   3
  -4  -7  -4 11617.7 584.973   3
  -4  -7   1 3481.98 675.648  20
  -4  -7   2 16395.0 1477.01  20
  -4  -7   3 13885.4 1423.37  20
  -4  -6 -12 1869.25 253.411  11
  -4  -6 -11 1554.50 221.419   3
  -4  -6 -10 1840.61 295.322   3
  -4  -6  -9 1920.07 333.147   3
  -4  -6  -8 3743.05 431.221   3
  -4  -6  -7 1955.33 323.831   3
  -4  -6  -6 2698.17 342.910   3
  -4  -6   1 5972.79 810.157  20
  -4  -6   2 5403.55 811.131  20
  -4  -6   3 719.806 364.369  20
  -4  -6   4 258.573 259.843  20
  -4  -5 -12-29.4721 200.790  11
  -4  -5 -11 2511.93 268.070   3
  -4  -5 -10 2635.35 332.713   3
  -4  -5  -9 1906.20 333.743   3
  -4  -5  -8 9235.95 603.914   3
  -4  -5  -7 2650.35 644.441   1
  -4  -5  -7 2137.67 342.656   3
  -4  -5  -6 3792.43 671.119   1
  -4  -5  -5 820.767 336.120   1
  -4  -5  -4 14383.7 1008.91   1
  -4  -5  -3 24687.0 1210.37   1
  -4  -5   0 1302.80 401.886  20
  -4  -5   1 4210.99 650.480  20
  -4  -5   2 15406.6 1256.93  20
  -4  -5   3 6146.36 856.244  20
  -4  -4 -12 2816.43 373.780  11
  -4  -4 -10 3270.96 352.511   3
  -4  -4  -9 2799.65 368.779   3
  -4  -4  -8 1618.39 646.151   1
  -4  -4  -8 1084.09 282.473   3
  -4  -4  -7-550.391 399.936   1
  -4  -4  -7-309.670 247.505   3
  -4  -4  -6-54.8019 278.411   1
  -4  -4  -5 3440.27 587.602   1
  -4  -4  -4 24602.6 1309.45   1
  -4  -4  -3 14306.8 970.926   1
  -4  -4  -2 11640.0 819.809   1
  -4  -4  -1 16951.8 1034.46  20
  -4  -4  -1 17341.3 945.093   1
  -4  -4  -1 15814.1 1115.99  22
  -4  -4   0 30508.8 1449.79  20
  -4  -4   0 30988.9 1611.64  22
  -4  -4   1 52307.5 2014.00  20
  -4  -4   1 54460.9 2264.81  22
  -4  -4   2 1023.09 379.308  20
  -4  -4   2 919.630 404.313  22
  -4  -4   3 12299.1 1139.00  20
  -4  -4   3 12980.1 1282.31  22
  -4  -4   4 122.486 286.063  22
  -4  -4   5 549.440 435.394  22
  -4  -3 -13 64.6241 142.893  11
  -4  -3 -12-188.612 263.311  11
  -4  -3 -10 1742.94 277.916   3
  -4  -3  -9 1603.09 302.277   3
  -4  -3  -9 1668.73 261.766   5
  -4  -3  -8 14245.1 603.563   5
  -4  -3  -8 14355.3 1401.88   1
  -4  -3  -8 13506.6 668.774   3
  -4  -3  -7 56169.0 2486.34   1
  -4  -3  -6 37449.8 1871.21   1
  -4  -3  -5 27778.3 1489.72   1
  -4  -3  -4 1782.54 461.954   1
  -4  -3  -3 21473.2 1168.17   1
  -4  -3  -3 18926.3 836.156  20
  -4  -3  -2 11726.4 732.985  20
  -4  -3  -2 10834.5 963.763  22
  -4  -3  -2 13148.0 872.120   1
  -4  -3  -1 836.876 375.041  22
  -4  -3  -1 1103.98 312.263  20
  -4  -3   0 2514.11 451.165  20
  -4  -3   0 1973.01 499.277  22
  -4  -3   1 14215.3 1012.93  20
  -4  -3   1 14169.4 1188.63  22
  -4  -3   2 9994.84 1066.21  22
  -4  -3   2 10462.9 953.361  20
  -4  -3   3 8267.87 1046.26  22
  -4  -3   4 18013.9 1615.51  22
  -4  -3   5 20476.3 1841.75  22
  -4  -3   6 10303.2 1413.70  22
  -4  -2 -13 2145.21 251.281  11
  -4  -2 -13 1776.00 196.126   7
  -4  -2 -12 5541.85 511.087  11
  -4  -2 -11 8722.87 723.614  11
  -4  -2 -10 4931.12 381.221   5
  -4  -2  -9 286.535 164.843   5
  -4  -2  -8 8693.98 532.530   3
  -4  -2  -8 9455.66 1141.36   1
  -4  -2  -8 9361.06 479.461   5
  -4  -2  -7 1027.87 433.431   1
  -4  -2  -6 187.256 361.627   1
  -4  -2  -5 339.679 344.611   1
  -4  -2  -4 11095.9 926.139   1
  -4  -2  -3 8839.72 775.117   1
  -4  -2  -2 65406.7 1550.54  20
  -4  -2  -2 62409.1 2261.25  22
  -4  -2  -1 51662.7 1526.46  20
  -4  -2  -1 49449.5 2011.10  22
  -4  -2   0 74566.3 2519.49  22
  -4  -2   0 71271.4 1951.72  20
  -4  -2   1 75551.5 2661.42  22
  -4  -2   2 174281. 4220.23  22
  -4  -2   3 13192.1 1287.22  22
  -4  -2   4 2423.44 662.379  22
  -4  -2   5 25435.9 2070.13  22
  -4  -2   6-416.987 390.146  22
  -4  -1 -13 164.038 156.467  11
  -4  -1 -13-76.7317 123.579   7
  -4  -1 -12-211.359 274.210  11
  -4  -1 -11 179.801 346.140  11
  -4  -1 -10 730.267 186.964   5
  -4  -1 -10 1126.46 427.023  11
  -4  -1  -9 21520.9 709.840   5
  -4  -1  -8 1132.47 501.080   1
  -4  -1  -8 688.721 159.102   5
  -4  -1  -7 34558.7 1924.87   1
  -4  -1  -6 35824.4 1790.08   1
  -4  -1  -5 31380.4 1578.73   1
  -4  -1  -4 71081.1 2200.38   1
  -4  -1  -3 28039.8 1321.74   1
  -4  -1  -2 17552.1 1271.25  22
  -4  -1  -1 15254.1 1176.43  22
  -4  -1   0 9250.40 969.158  22
  -4  -1   1 34465.5 1822.61  22
  -4  -1   2 46730.3 2238.12  22
  -4  -1   3 8847.75 1073.99  22
  -4  -1   4 3261.43 755.910  22
  -4  -1   5 29835.3 2231.03  22
  -4  -1   6 15033.3 1658.05  22
  -4  -1  11 3910.07 196.731  18
  -4   0 -13 654.848 168.393  11
  -4   0 -12 2891.32 391.225  11
  -4   0 -11 4071.75 533.729  11
  -4   0 -10 7013.69 708.806  11
  -4   0 -10 6795.12 390.830   5
  -4   0  -9 12864.3 904.381  11
  -4   0  -9 11571.4 502.115   5
  -4   0  -8 1122.51 509.684   1
  -4   0  -8 1413.67 398.155  11
  -4   0  -7 13215.5 1209.36   1
  -4   0  -6 2014.83 483.378   1
  -4   0  -5 1084.64 382.469   1
  -4   0  -4 6190.09 705.421   1
  -4   0  -4 5608.73 570.443  17
  -4   0  -3 34557.4 1457.30   1
  -4   0  -2 5354.89 774.779  22
  -4   0  -1 51562.2 2125.02  22
  -4   0   0 45099.5 2034.30  22
  -4   0   1 30902.6 1747.33  22
  -4   0   2 131298. 3785.69  22
  -4   0   3 15100.7 1369.47  22
  -4   0   4 5733.78 944.828  22
  -4   0   5 2814.71 781.140  22
  -4   0   6 1291.42 550.958  22
  -4   0  11 1354.03 136.799  18
  -4   1 -12 665.321 269.425  11
  -4   1 -11-108.066 319.901  11
  -4   1 -10-9.65957 328.228  11
  -4   1  -9 1103.65 410.340  11
  -4   1  -8 9237.16 763.945  11
  -4   1  -8 7908.72 1015.20   1
  -4   1  -8 8374.67 516.480  15
  -4   1  -7 3965.41 696.988   1
  -4   1  -6 28933.3 1616.43   1
  -4   1  -5 25235.1 1368.28  17
  -4   1  -5 28735.5 1512.47   1
  -4   1  -4 43174.8 1730.86   1
  -4   1  -4 40975.0 1741.54  17
  -4   1  -3 74256.1 2309.95  17
  -4   1  -3 77796.6 2200.00   1
  -4   1  -2 63081.6 1434.75   2
  -4   1  -2 63463.1 2382.64  22
  -4   1  -1 703.959 436.436  22
  -4   1   0 2303.65 556.696  22
  -4   1   1 153.842 349.950  22
  -4   1   2 37307.8 2017.18  22
  -4   1   3 6532.25 928.988  22
  -4   1   4 17607.5 1591.12  22
  -4   1   5 17536.7 1696.42  22
  -4   1   6 16970.9 1773.95  22
  -4   1  11 1089.95 121.006  18
  -4   2 -12 1306.95 260.701  11
  -4   2 -11 2669.78 424.023  11
  -4   2 -11 2422.07 291.183   7
  -4   2 -10 2824.95 496.735  11
  -4   2 -10 1792.55 323.493   7
  -4   2  -9 7540.79 715.933  11
  -4   2  -8 7859.41 502.174  15
  -4   2  -8 6184.14 647.157  11
  -4   2  -7 7658.03 464.783  15
  -4   2  -7 7868.86 673.047  11
  -4   2  -7 7877.65 936.953   1
  -4   2  -6 1788.49 456.458   1
  -4   2  -5 1816.57 499.524  17
  -4   2  -5 2276.07 504.801   1
  -4   2  -4 424.326 338.112  17
  -4   2  -4 762.415 345.554   1
  -4   2  -3 35746.3 1504.31   1
  -4   2  -3 34092.0 1767.03  17
  -4   2  -2 63.0681 161.546   2
  -4   2  -1 5427.17 552.303   2
  -4   2  -1 5820.94 786.464  22
  -4   2   0 46750.6 2100.15  22
  -4   2   1 96157.9 3121.24  22
  -4   2   2 281.612 392.755  22
  -4   2   3 95359.0 3496.18  22
  -4   2   4 26683.8 1980.33  22
  -4   2   5 16791.5 1674.17  22
  -4   2   6-143.618 208.977   2
  -4   2   6 850.701 420.250  22
  -4   2  10 45.8102 124.232  18
  -4   3 -12 39.0803 139.281  11
  -4   3 -11-1.18189 235.002  11
  -4   3 -10 160.388 317.039  11
  -4   3 -10-50.3229 195.027   7
  -4   3  -9 875.472 288.781   7
  -4   3  -9 685.458 372.083  11
  -4   3  -8 6870.09 683.663  11
  -4   3  -8 5348.10 494.727   7
  -4   3  -7 19197.9 773.373  15
  -4   3  -7 17440.1 1020.27  11
  -4   3  -6 9733.50 1156.13  17
  -4   3  -5 22389.4 1664.27  17
  -4   3  -4 41794.3 2254.33  17
  -4   3  -4 42810.2 1717.28   1
  -4   3  -3 39759.7 1593.86   1
  -4   3  -3 37920.9 2070.39  17
  -4   3  -2 101512. 2516.74   1
  -4   3  -2 102529. 3328.51  17
  -4   3  -1 10937.2 1028.61  22
  -4   3  -1 11727.7 863.846   2
  -4   3   0 10424.3 874.963   2
  -4   3   0 12127.9 1095.09  22
  -4   3   1-5.03651 228.281   2
  -4   3   1 7.35922 217.682  22
  -4   3   2 1550.45 435.315   2
  -4   3   2 1110.64 411.678  22
  -4   3   3 164.815 344.010   2
  -4   3   3 382.839 272.170  22
  -4   3   4 6535.06 1010.87  22
  -4   3   4 7161.82 925.892   2
  -4   3   5-168.768 290.386   2
  -4   3   5-263.279 266.572  22
  -4   3   9 5277.20 336.628  18
  -4   3  10 3856.94 242.577  18
  -4   4 -11 2284.42 299.416  11
  -4   4 -10 5031.74 490.710  11
  -4   4  -9 3093.74 483.519  11
  -4   4  -8 10837.2 676.820  10
  -4   4  -8 10196.3 766.345  11
  -4   4  -7 1870.72 336.216   7
  -4   4  -7 2225.83 372.675  10
  -4   4  -7 1804.41 407.260  11
  -4   4  -6 8128.85 638.954  10
  -4   4  -6 7675.71 650.394  11
  -4   4  -6 9408.15 567.592  15
  -4   4  -6 7111.44 1082.74  17
  -4   4  -6 7596.30 547.770   7
  -4   4  -5 11384.0 565.310  15
  -4   4  -5 8076.01 1120.84  17
  -4   4  -4 147.800 350.630  17
  -4   4  -3 2318.67 609.235  17
  -4   4  -2 6323.43 970.280  17
  -4   4  -1 9703.11 1162.35  17
  -4   4   0 11467.0 999.275   2
  -4   4   1 11690.5 1063.61   2
  -4   4   2 37703.7 1991.88   2
  -4   4   3 30494.6 1885.67   2
  -4   4   4 8892.08 568.939   8
  -4   4   4 8652.74 1078.69   2
  -4   4   5 16667.2 1538.50   2
  -4   4   5 16885.5 783.679   8
  -4   4   8 148.490 148.467  18
  -4   4   9 64.5907 113.196  18
  -4   5 -11-296.286 135.823  11
  -4   5 -10-425.677 241.769  11
  -4   5  -9 815.274 308.247  11
  -4   5  -8 52.4868 189.726  10
  -4   5  -8 154.475 287.928  11
  -4   5  -7 4138.20 507.650  11
  -4   5  -7 4396.19 484.734  10
  -4   5  -6 2273.55 400.145  10
  -4   5  -6 2043.44 415.187  11
  -4   5  -5 660.560 283.486  10
  -4   5  -5 692.336 298.989  11
  -4   5  -4 6656.93 591.676  10
  -4   5  -4 6052.47 1031.98  17
  -4   5  -4 4617.07 462.069  11
  -4   5  -3 33066.7 2381.02  17
  -4   5  -2 11258.2 1367.36  17
  -4   5  -1 24911.7 1974.27  17
  -4   5   0 29676.5 2163.92  17
  -4   5   1 21623.6 1865.70  17
  -4   5   2 378.363 190.794   8
  -4   5   2 490.021 381.967   2
  -4   5   3 7613.71 1026.33   2
  -4   5   3 8708.09 587.537   8
  -4   5   4 2692.10 369.472   8
  -4   5   5 16315.3 813.838   8
  -4   6 -10-11.3349 127.924  11
  -4   6  -9 251.494 201.731  11
  -4   6  -8 604.169 225.757  10
  -4   6  -8 185.946 248.464  11
  -4   6  -7 813.519 306.386  11
  -4   6  -7 1362.26 319.327  10
  -4   6  -6 4762.54 492.642  11
  -4   6  -6 7363.17 645.262  10
  -4   6  -5 5034.50 559.190  10
  -4   6  -5 3164.18 404.432  11
  -4   6  -4 290.773 251.277  10
  -4   6  -4-330.685 275.942  11
  -4   6  -3 14791.6 890.210  10
  -4   6  -3 13901.7 1655.32  17
  -4   6  -2 451.144 268.935  10
  -4   6  -2 290.732 340.159  17
  -4   6  -2 105.461 172.807   8
  -4   6  -1 1751.29 366.747  10
  -4   6  -1 1813.64 294.817   8
  -4   6   0 10678.6 1410.18  17
  -4   6   0 12191.8 682.754   8
  -4   6   0 12259.3 777.603  10
  -4   6   1 3950.94 892.292  17
  -4   6   1 4564.48 449.419   8
  -4   6   2 42687.4 1287.32   8
  -4   6   2 35535.0 2546.21  17
  -4   6   3 3474.78 416.844   8
  -4   6   4 1111.47 291.045   8
  -4   6   5 1212.33 294.453   8
  -4   7  -9 210.908 118.564  11
  -4   7  -8-265.264 191.420  11
  -4   7  -7 99.1467 201.638  10
  -4   7  -6 231.127 249.434  10
  -4   7  -6-151.534 225.834  11
  -4   7  -5 146.854 207.659  11
  -4   7  -5 683.613 307.990  10
  -4   7  -4 92.6695 278.427  10
  -4   7  -4 31.9201 187.432  11
  -4   7  -3 6764.25 660.068  10
  -4   7  -3 6609.10 479.634  11
  -4   7  -2 348.391 295.258  10
  -4   7  -2 400.879 193.564   8
  -4   7  -1 7135.84 656.579  10
  -4   7  -1 6816.81 519.682   8
  -4   7   0 5957.02 607.993  10
  -4   7   0 5994.99 509.467   8
  -4   7   1 6583.34 620.863  10
  -4   7   1 6224.84 527.715   8
  -4   7   2 5950.35 530.285   8
  -4   7   3 1990.21 359.755   8
  -4   7   4 320.539 248.582   8
  -4   7   6 928.875 198.213   9
  -4   8  -8 10384.1 329.362  11
  -4   8  -7 6349.88 332.919  11
  -4   8  -7 1053.06 237.825  10
  -4   8  -6 7243.98 394.820  11
  -4   8  -6 2174.64 354.462  10
  -4   8  -5 9253.13 461.098  11
  -4   8  -5 1769.32 378.784  10
  -4   8  -4 17652.0 644.611  11
  -4   8  -4 1540.52 386.075  10
  -4   8  -3 7267.09 674.341  10
  -4   8  -2 104.901 299.868  10
  -4   8  -1 6.79188 286.804  10
  -4   8  -1-69.9769 180.879   8
  -4   8   0-59.5488 270.453  10
  -4   8   0-303.158 221.131   8
  -4   8   1 1767.43 364.945  10
  -4   8   1 1204.64 285.908   8
  -4   8   2 1747.27 335.051   8
  -4   8   3 2858.42 389.329   8
  -4   8   5 5773.52 398.723   9
  -4   8   6 5700.39 320.513   9
  -4   9  -5 441.411 237.872  10
  -4   9  -4 969.070 305.532  10
  -4   9  -3-167.945 279.623  10
  -4   9  -2 2657.96 424.742  10
  -4   9  -1 4792.32 520.951  10
  -4   9  -1 4220.89 361.152   9
  -4   9  -1 4082.52 346.826   8
  -4   9   0 5651.81 426.872   8
  -4   9   0 5628.68 427.341   9
  -4   9   0 5010.80 515.902  10
  -4   9   1 278.438 227.083  10
  -4   9   1 548.796 225.349   9
  -4   9   1 617.076 220.260   8
  -4   9   2 1178.00 253.903   9
  -4   9   3 3894.12 355.750   9
  -4   9   4 873.502 200.333   9
  -4   9   5 627.236 150.021   9
  -4  10  -5-391.244 172.584  10
  -4  10  -3 652.091 242.290  10
  -4  10  -2 136.596 281.288  10
  -4  10  -1-563.652 291.362  10
  -4  10   0-259.193 230.242  10
  -4  10   0-115.944 139.523   9
  -4  10   1-78.6500 153.126   9
  -4  10   1 356.056 183.732  10
  -4  10   2 1172.33 200.929   9
  -4  10   3 317.166 141.171   9
  -4  10   4 900.946 140.288   9
  -3 -11  -7 2375.10 199.378   3
  -3 -11  -6 433.834 144.459   3
  -3 -11  -5-88.5492 160.821   3
  -3 -10  -9 345.544 122.031   3
  -3 -10  -8 1121.31 206.080   3
  -3 -10  -7 2221.36 278.771   3
  -3 -10  -6 1978.92 287.437   3
  -3 -10  -5 639.454 213.837   3
  -3 -10  -4 3325.30 323.755   3
  -3  -9 -10 1834.45 181.168   3
  -3  -9  -9 2780.53 285.802   3
  -3  -9  -8 7865.31 482.111   3
  -3  -9  -7 3683.15 396.881   3
  -3  -9  -6 4577.40 427.418   3
  -3  -9  -5-58.4596 214.723   3
  -3  -9  -4 837.727 253.788   3
  -3  -8 -10 39.4272 154.537   3
  -3  -8  -9 246.215 214.042   3
  -3  -8  -8-57.6637 237.367   3
  -3  -8  -7-90.0628 254.353   3
  -3  -8  -6 40.8168 228.999   3
  -3  -8  -5 25203.9 907.454   3
  -3  -8  -4 1046.05 258.105   3
  -3  -7 -11 3267.61 238.635   3
  -3  -7 -10 8234.95 469.091   3
  -3  -7  -9 8377.05 544.948   3
  -3  -7  -8 15843.6 713.087   4
  -3  -7  -8 15438.1 748.982   3
  -3  -7  -7 7267.21 550.626   3
  -3  -7  -7 7350.81 515.973   4
  -3  -7  -6 20913.2 781.786   4
  -3  -7  -6 20571.6 846.441   3
  -3  -7  -5 26610.4 906.964   3
  -3  -7  -5 27112.0 841.107   4
  -3  -7   2 7625.86 979.373  20
  -3  -7   3 839.900 403.360  20
  -3  -6 -12 632.314 193.090  11
  -3  -6 -11 1926.95 219.983   3
  -3  -6 -10 3521.42 361.772   3
  -3  -6  -9 362.557 244.333   3
  -3  -6  -8 148.096 199.619   4
  -3  -6  -8 117.899 245.511   3
  -3  -6  -7 1201.57 254.159   4
  -3  -6  -7 1298.62 301.112   3
  -3  -6  -6 6520.62 478.380   3
  -3  -6  -6 6820.87 445.633   4
  -3  -6   2 2898.13 582.230  20
  -3  -6   3 4165.49 700.776  20
  -3  -6   4-48.2272 237.409  20
  -3  -5 -12 3835.98 381.466  11
  -3  -5 -10 4514.47 401.555   3
  -3  -5  -9 11742.2 616.812   4
  -3  -5  -9 10719.8 627.181   3
  -3  -5  -8 22935.4 889.440   3
  -3  -5  -8 23651.4 845.114   4
  -3  -5  -7 16666.0 742.080   3
  -3  -5  -7 16751.9 686.700   4
  -3  -5  -7 16973.0 1434.28   1
  -3  -5  -6 8686.12 961.505   1
  -3  -5  -5 10889.6 938.889   1
  -3  -5  -4 1348.19 346.528   1
  -3  -5  -3 15324.5 860.355   1
  -3  -5   2 23719.8 1449.02  20
  -3  -5   3 17324.0 1326.83  20
  -3  -5   4 20440.2 1528.27  20
  -3  -4 -13 456.911 142.045  11
  -3  -4 -12 3564.34 416.357  11
  -3  -4 -10 3159.85 347.258   3
  -3  -4  -9 1636.68 273.420   5
  -3  -4  -9 1507.01 299.500   3
  -3  -4  -8 1635.54 301.514   3
  -3  -4  -8 1595.54 260.899   5
  -3  -4  -8 1276.87 250.232   4
  -3  -4  -8 1466.81 265.538  12
  -3  -4  -7 5055.47 820.178   1
  -3  -4  -6 8032.75 896.042   1
  -3  -4  -5 145.044 266.259   1
  -3  -4  -4 83977.1 2195.28   1
  -3  -4  -3 196240. 3027.96   1
  -3  -4  -2 125884. 2218.86   1
  -3  -4  -1 17893.9 791.802   1
  -3  -4  -1 16962.9 916.692  22
  -3  -4   0 62831.8 1861.53  22
  -3  -4   1 1983.44 458.437  22
  -3  -4   2 37.9115 241.805  22
  -3  -4   2 136.021 257.592  20
  -3  -4   3 1559.69 435.262  20
  -3  -4   3 1428.59 452.452  22
  -3  -4   4 276.073 255.968  20
  -3  -4   4 99.9018 290.374  22
  -3  -4   5 1149.84 450.199  22
  -3  -4   6-527.466 363.664  22
  -3  -3 -13 539.415 174.300  11
  -3  -3 -12-193.912 277.580  11
  -3  -3 -10 1189.00 248.117   5
  -3  -3  -9 10472.9 584.022   3
  -3  -3  -9 11388.5 615.483  12
  -3  -3  -9 11056.9 569.650   5
  -3  -3  -8 9822.09 532.125  12
  -3  -3  -8 9000.50 503.161   4
  -3  -3  -8 9146.19 548.190   3
  -3  -3  -8 9782.72 512.693   5
  -3  -3  -8 8923.66 1112.34   1
  -3  -3  -7 19523.4 1442.60   1
  -3  -3  -6 23663.6 1435.84   1
  -3  -3  -5 5896.16 677.722   1
  -3  -3  -4 16771.8 1010.65   1
  -3  -3  -3 28627.6 1188.60   1
  -3  -3  -2 9132.42 633.864   1
  -3  -3  -1 3066.60 479.100  22
  -3  -3   0 3266.77 522.548  22
  -3  -3   1 3175.44 476.232  20
  -3  -3   1 2887.97 523.729  22
  -3  -3   2 330.689 338.818  22
  -3  -3   2 321.028 294.935  20
  -3  -3   3 6613.61 836.975  22
  -3  -3   3 7184.04 784.062  20
  -3  -3   4 5700.22 849.288  22
  -3  -3   5 55779.6 2771.94  22
  -3  -3   6 37902.8 2509.10  22
  -3  -2 -13 3063.50 296.215  11
  -3  -2 -12 3193.04 444.665  11
  -3  -2 -11 5100.93 615.679  11
  -3  -2 -11 5750.50 392.916   5
  -3  -2 -10 164.448 168.469   5
  -3  -2  -9 10781.7 579.782  12
  -3  -2  -9 10417.5 534.016   5
  -3  -2  -8 5873.38 423.016  12
  -3  -2  -8 5681.22 925.462   1
  -3  -2  -8 6492.46 407.431   5
  -3  -2  -7 329.825 341.546   1
  -3  -2  -6 2895.00 563.035   1
  -3  -2  -5 12935.6 951.060   1
  -3  -2  -4 5221.56 602.184   1
  -3  -2  -3 27687.9 1160.09   1
  -3  -2  -2 25545.2 1045.73   1
  -3  -2  -2 24218.8 802.987  20
  -3  -2  -1 49939.0 1696.76  22
  -3  -2  -1 51191.0 1294.87  20
  -3  -2   0 82944.3 1813.42  20
  -3  -2   0 81552.7 2223.32  22
  -3  -2   1 11355.5 914.949  22
  -3  -2   1 11938.9 786.695  20
  -3  -2   2 77512.2 2449.06  22
  -3  -2   2 75449.9 2123.44  20
  -3  -2   3 35391.1 1812.68  22
  -3  -2   4 16293.0 1387.33  22
  -3  -2   5 8782.57 1133.56  22
  -3  -2   6 4392.93 938.010  22
  -3  -2   7 561.668 434.139  22
  -3  -1 -13 748.447 202.414  11
  -3  -1 -12-105.196 285.564  11
  -3  -1 -11 656.637 184.942   5
  -3  -1 -11 302.603 372.165  11
  -3  -1 -10 6909.54 443.053   5
  -3  -1 -10 6925.89 729.869  11
  -3  -1  -9 3058.70 306.783   5
  -3  -1  -8 3245.41 716.939   1
  -3  -1  -8 2846.51 307.258  12
  -3  -1  -7 39527.6 1978.70   1
  -3  -1  -6 135509. 3266.42   1
  -3  -1  -5 33954.6 1494.39   1
  -3  -1  -4 57745.8 1804.51   1
  -3  -1  -3 4531.19 334.947  17
  -3  -1  -3 4654.77 539.248   1
  -3  -1  -2 2820.06 518.342  22
  -3  -1  -2 3133.79 429.249   1
  -3  -1  -1 134.773 314.332  22
  -3  -1   0 66988.8 2054.05  22
  -3  -1   1 22511.7 1257.82  22
  -3  -1   2 61116.7 2265.07  22
  -3  -1   3 7851.37 914.754  22
  -3  -1   4 20246.8 1510.39  22
  -3  -1   5 11040.7 1305.80  22
  -3  -1   6 17608.9 1693.95  22
  -3  -1   7 7564.48 1214.17  22
  -3   0 -13 1161.45 207.337  11
  -3   0 -12 2390.89 399.042  11
  -3   0 -11 8052.06 423.404   5
  -3   0 -11 7790.54 710.063  11
  -3   0 -10 8967.71 474.153   5
  -3   0 -10 8180.12 761.552  11
  -3   0  -9 9687.55 800.075  11
  -3   0  -9 8770.26 465.179   5
  -3   0  -8 841.026 475.803   1
  -3   0  -7 3267.17 628.970   1
  -3   0  -6 169.802 320.485   1
  -3   0  -5 478.487 194.468  17
  -3   0  -5 507.453 315.066   1
  -3   0  -4 1383.18 378.010   1
  -3   0  -4 1611.08 297.345  17
  -3   0  -3 43677.5 1304.12  17
  -3   0  -3 45665.6 1464.82   1
  -3   0  -2 39552.2 1593.05  22
  -3   0  -1 145743. 2985.79  22
  -3   0   0 2707.41 516.298  22
  -3   0   1 331624. 4755.57  22
  -3   0   2 87401.6 2677.16  22
  -3   0   3 164864. 3881.11  22
  -3   0   4 23889.1 1644.57  22
  -3   0   5 1809.40 572.637  22
  -3   0   6 27526.9 2094.40  22
  -3   0   7 1342.16 563.310  22
  -3   1 -13 142.802 131.356  11
  -3   1 -12-52.2296 243.869  11
  -3   1 -11-46.0305 118.933   5
  -3   1 -11-193.962 347.625  11
  -3   1 -10 219.029 140.631   5
  -3   1 -10 806.852 409.358  11
  -3   1  -9 895.191 175.080   5
  -3   1  -9 1118.14 423.649  11
  -3   1  -8 21184.4 1110.41  11
  -3   1  -8 22480.4 1654.50   1
  -3   1  -7 5242.75 767.665   1
  -3   1  -6 25654.6 1435.11   1
  -3   1  -5 18371.2 1095.44   1
  -3   1  -5 17309.8 1065.86  17
  -3   1  -4 90482.9 2324.37  17
  -3   1  -4 88834.9 2221.81   1
  -3   1  -3 29054.7 1179.35   1
  -3   1  -3 27253.4 1236.01  17
  -3   1  -2 68661.6 1206.09   2
  -3   1  -1 18386.8 1112.93  22
  -3   1   0 1686.58 462.361  22
  -3   1   1 40013.7 1711.86  22
  -3   1   2 4560.92 686.107  22
  -3   1   3 26024.7 1569.02  22
  -3   1   4 7279.98 945.938  22
  -3   1   5 2884.60 694.574  22
  -3   1   6 39004.1 2492.39  22
  -3   1   7 24581.6 2154.70  22
  -3   1  11 607.225 148.430  18
  -3   2 -12 560.622 250.555  11
  -3   2 -11 3364.64 481.649  11
  -3   2 -10 8421.02 501.529  15
  -3   2 -10 7419.56 722.027  11
  -3   2  -9 3030.23 339.030  15
  -3   2  -9 2940.61 534.604  11
  -3   2  -8 4016.96 364.052  15
  -3   2  -8 4596.56 578.123  11
  -3   2  -7 3642.52 672.549   1
  -3   2  -6 1736.60 413.131   1
  -3   2  -6 1592.37 466.055  17
  -3   2  -5 293.152 248.899   1
  -3   2  -5 348.984 306.780  17
  -3   2  -4 1614.22 449.075  17
  -3   2  -4 1406.42 362.761   1
  -3   2  -3 11825.5 780.183   1
  -3   2  -3 11240.6 935.698  17
  -3   2  -1 114.098 267.560  22
  -3   2  -1 85.2268 161.359   2
  -3   2   0 17539.9 1122.46  22
  -3   2   1 114243. 2931.43  22
  -3   2   2 25561.1 1495.29  22
  -3   2   3 88689.5 2944.90  22
  -3   2   4 24435.4 1696.74  22
  -3   2   5 30462.5 2074.68  22
  -3   2   6-431.720 387.951  22
  -3   2   7 616.313 459.768  22
  -3   2   7-34.0571 218.204   2
  -3   2  11 8853.31 363.131  18
  -3   3 -12 133.573 172.947  11
  -3   3 -11 486.594 303.007  11
  -3   3 -10 600.797 378.837  11
  -3   3 -10 4264.40 398.108  15
  -3   3  -9 436.152 372.038  11
  -3   3  -9 534.701 250.067  15
  -3   3  -8 1511.86 277.009  15
  -3   3  -8 1881.56 453.377  11
  -3   3  -7 3363.39 352.851  15
  -3   3  -7 3262.19 519.445  11
  -3   3  -6 4562.51 809.968  17
  -3   3  -5 39075.7 2054.14  17
  -3   3  -5 42013.9 1621.38   1
  -3   3  -4 22114.5 1091.88   1
  -3   3  -4 21862.7 1498.88  17
  -3   3  -3 4603.17 722.842  17
  -3   3  -3 4509.87 503.625   1
  -3   3  -2 39515.8 1892.30  17
  -3   3  -2 38877.2 1321.84   1
  -3   3  -1 34496.9 1331.24   2
  -3   3   0 1039.92 324.278   2
  -3   3   0 1251.79 361.326  22
  -3   3   1 4352.91 634.632  22
  -3   3   1 4245.00 558.564   2
  -3   3   2-129.745 294.034  22
  -3   3   2 65.4331 246.153   2
  -3   3   3 1198.35 385.406   2
  -3   3   3 969.415 417.246  22
  -3   3   4 4771.01 820.714  22
  -3   3   4 4969.70 732.360   2
  -3   3   5 7898.76 951.223   2
  -3   3   5 8617.34 1151.75  22
  -3   3   6 26812.3 2118.91  22
  -3   3   6 27226.0 1812.84   2
  -3   3  10 10662.2 465.749  18
  -3   3  11 10304.2 349.749  18
  -3   4 -12 560.419 147.718  11
  -3   4 -11 1807.64 316.272  11
  -3   4 -10 4680.36 552.932  11
  -3   4  -9 4410.09 416.315  15
  -3   4  -9 3227.35 519.763  11
  -3   4  -8 5085.20 450.076  15
  -3   4  -8 4930.36 598.926  11
  -3   4  -7 4013.35 380.877  15
  -3   4  -7 3816.99 539.519  11
  -3   4  -6 7438.02 652.313  11
  -3   4  -6 6839.00 1046.00  17
  -3   4  -6 7440.34 483.356  15
  -3   4  -5 1490.96 530.469  17
  -3   4  -4 195.847 299.787  17
  -3   4  -3 895.505 438.559  17
  -3   4  -2 15230.2 1322.90  17
  -3   4  -1 3305.00 650.459  17
  -3   4   0 16741.0 1123.76   2
  -3   4   1 4532.85 630.094   2
  -3   4   2 37246.7 1793.28   2
  -3   4   3 18790.1 1360.48   2
  -3   4   4 21732.2 1548.64   2
  -3   4   5 19202.5 1532.88   2
  -3   4   6 19409.3 1614.75   2
  -3   4   6 20870.9 855.917   8
  -3   4   9 526.152 188.748  18
  -3   4  10 1624.00 205.387  18
  -3   5 -11-293.436 179.249  11
  -3   5 -10 0.23685 234.997  11
  -3   5  -9 131.100 307.215  11
  -3   5  -9 3990.24 443.394  15
  -3   5  -8 210.174 322.440  11
  -3   5  -8 958.947 299.429  15
  -3   5  -7 2666.16 485.788  11
  -3   5  -7 3364.62 373.385  15
  -3   5  -7 3449.27 425.539  10
  -3   5  -6 13403.7 648.313  15
  -3   5  -6 12367.4 828.982  11
  -3   5  -6 14354.0 825.171  10
  -3   5  -5 12046.9 772.269  11
  -3   5  -5 13827.6 808.859  10
  -3   5  -5 13218.0 618.194  15
  -3   5  -5 11944.1 1421.03  17
  -3   5  -4 2089.57 619.755  17
  -3   5  -3 26095.9 1967.38  17
  -3   5  -2 40265.9 2376.32  17
  -3   5  -1 49090.9 2551.70  17
  -3   5   0 20306.9 1644.48  17
  -3   5   1 2775.42 683.713  17
  -3   5   2 455.634 345.205   2
  -3   5   3 2352.74 587.533   2
  -3   5   4 761.583 418.383   2
  -3   5   4 188.318 198.885   8
  -3   5   5 3769.23 756.500   2
  -3   5   5 4892.80 466.790   8
  -3   5   6 2231.07 275.465  18
  -3   5   7 4338.82 357.624  18
  -3   5   8 4349.95 351.358  18
  -3   5   9 7035.45 373.692  18
  -3   5  10 2743.93 195.951  18
  -3   6 -10 178.681 176.210  11
  -3   6  -9 2152.83 359.289  11
  -3   6  -8 3674.60 473.691  11
  -3   6  -8 10305.9 619.283  15
  -3   6  -7 5386.48 572.593  11
  -3   6  -7 6849.12 566.668  10
  -3   6  -6 1724.54 399.259  11
  -3   6  -6 2495.11 402.558  10
  -3   6  -5 13988.9 663.340  15
  -3   6  -5 14470.3 865.268  10
  -3   6  -4 1719.27 593.707  17
  -3   6  -4 1531.65 356.271  10
  -3   6  -4 2691.93 324.911  15
  -3   6  -3 340.800 265.096  11
  -3   6  -3 1066.02 518.813  17
  -3   6  -3 1778.64 349.720  10
  -3   6  -2 133.938 342.148  17
  -3   6  -1 2345.07 666.282  17
  -3   6   0 6652.37 1089.81  17
  -3   6   1 9323.64 1235.71  17
  -3   6   2 5327.02 989.386  17
  -3   6   2 7188.83 525.706   8
  -3   6   3 21958.7 925.342   8
  -3   6   3 17013.3 1658.23  17
  -3   6   4 23356.8 981.503   8
  -3   6   5 2096.71 361.398   8
  -3   6   8 2013.59 224.216  18
  -3   7 -10 345.963 102.844  11
  -3   7  -9-419.137 184.668  11
  -3   7  -8-118.151 238.662  11
  -3   7  -7-326.785 263.529  11
  -3   7  -7 567.911 239.803  10
  -3   7  -6 797.947 293.028  11
  -3   7  -6 1781.40 356.439  10
  -3   7  -5 747.883 286.126  11
  -3   7  -5 1392.01 363.587  10
  -3   7  -4 166.187 249.866  11
  -3   7  -4 1125.57 348.126  10
  -3   7  -3 1427.31 297.374  11
  -3   7  -3 2541.89 438.017  10
  -3   7  -2 8677.03 532.831  11
  -3   7  -2 12681.9 854.848  10
  -3   7  -2 11067.6 1456.59  17
  -3   7  -1 8055.33 696.852  10
  -3   7  -1 8671.28 552.435   8
  -3   7  -1 8446.85 1266.26  17
  -3   7   0 18415.8 1016.25  10
  -3   7   0 16835.1 783.277   8
  -3   7   1 18008.7 987.230  10
  -3   7   1 18933.4 859.374   8
  -3   7   2 14325.7 776.030   8
  -3   7   3 1788.92 340.047   8
  -3   7   4 3792.70 453.316   8
  -3   7   6 3985.73 366.921   9
  -3   8  -9 6171.76 238.118  11
  -3   8  -8 1911.58 216.285  11
  -3   8  -7 988.878 244.724  10
  -3   8  -7 994.951 222.189  11
  -3   8  -6 504.878 241.662  11
  -3   8  -6 466.176 258.710  10
  -3   8  -5 2959.19 354.045  11
  -3   8  -5 3034.05 458.796  10
  -3   8  -4 4527.93 431.122  11
  -3   8  -4 4189.29 540.818  10
  -3   8  -3 10277.7 606.520  11
  -3   8  -3 4177.73 560.230  10
  -3   8  -2 6367.05 666.819  10
  -3   8  -1 636.707 328.783  10
  -3   8  -1 225.920 181.564   8
  -3   8   0 1166.53 367.594  10
  -3   8   0 1128.09 266.606   8
  -3   8   1 4558.86 549.637  10
  -3   8   1 3877.82 429.007   8
  -3   8   2 4008.97 456.107   8
  -3   8   2 3753.25 478.346  10
  -3   8   3 13835.9 774.428   8
  -3   8   5 3373.62 368.351   9
  -3   8   6 251.465 156.877   9
  -3   9  -6 23010.1 604.814  11
  -3   9  -5 360.152 252.083  10
  -3   9  -4 714.540 306.799  10
  -3   9  -3 356.520 322.831  10
  -3   9  -2 2455.46 462.751  10
  -3   9  -1 1348.73 396.390  10
  -3   9  -1 775.908 217.814   9
  -3   9   0 5161.56 424.346   8
  -3   9   0 6080.28 466.468   9
  -3   9   0 5863.73 617.687  10
  -3   9   1 904.303 308.542  10
  -3   9   1 1669.14 303.066   9
  -3   9   1 1348.41 276.869   8
  -3   9   2 3783.85 438.894  10
  -3   9   2 4503.94 435.881   9
  -3   9   3 816.815 256.830   9
  -3   9   4 2906.88 335.207   9
  -3   9   5 16.2971 156.386   9
  -3   9   6 1737.69 202.034   9
  -3  10  -5-449.314 240.870  10
  -3  10  -4-342.663 292.845  10
  -3  10  -3-260.628 344.550  10
  -3  10  -1 199.433 149.327   9
  -3  10  -1-796.627 381.001  10
  -3  10   0-74.7956 162.403   9
  -3  10   0-670.919 350.382  10
  -3  10   1 191.354 185.464   9
  -3  10   1 284.925 236.403  10
  -3  10   2 713.390 216.006   9
  -3  10   2 1186.92 276.310  10
  -3  10   3 1250.55 230.661   9
  -3  10   4 897.463 197.127   9
  -3  10   5 1040.83 160.866   9
  -3  11  -3 1080.02 217.957  10
  -3  11  -2 670.243 218.662  10
  -3  11  -1 1346.29 266.174  10
  -3  11   0 2071.24 286.844  10
  -3  11   1 3225.68 272.323  10
  -3  11   1 3723.65 254.683   9
  -3  11   2 1364.10 176.827   9
  -3  11   3 504.926 119.689   9
  -2 -11  -7 1122.09 155.732   3
  -2 -11  -6 566.867 162.656   3
  -2 -11  -5 217.117 150.912   3
  -2 -10  -9 1657.23 159.961   3
  -2 -10  -8 2386.13 248.312   3
  -2 -10  -7 6843.24 417.897   3
  -2 -10  -6 4540.65 381.500   3
  -2 -10  -5 5329.64 421.353   3
  -2 -10  -4 2275.84 296.282   3
  -2  -9 -10 676.136 121.754   3
  -2  -9  -9 2128.56 256.078   3
  -2  -9  -8 3447.42 353.821   3
  -2  -9  -7 5105.90 437.085   3
  -2  -9  -6 1413.25 244.416   4
  -2  -9  -6 1512.95 309.356   3
  -2  -9  -5 85.6514 212.085   3
  -2  -9  -4 90.4509 193.879   3
  -2  -9  -3 841.103 236.066   3
  -2  -8 -10 32.8011 145.116   3
  -2  -8  -9 118.461 207.094   3
  -2  -8  -8 2661.20 362.203   3
  -2  -8  -8 2757.26 332.305   4
  -2  -8  -7 5554.67 438.613   4
  -2  -8  -7 5642.53 503.423   3
  -2  -8  -6 6982.16 530.732   3
  -2  -8  -6 6755.98 479.358   4
  -2  -8  -5 20032.7 740.598   4
  -2  -8  -5 19444.8 810.888   3
  -2  -8  -4-78.0369 230.921   3
  -2  -8  -3 8368.68 503.212   3
  -2  -7 -10 4738.86 360.909   3
  -2  -7  -9 2091.80 311.633   4
  -2  -7  -9 1707.53 306.383   3
  -2  -7  -8 5896.88 503.622   3
  -2  -7  -8 6281.38 482.544   4
  -2  -7  -7 6566.92 521.480   3
  -2  -7  -7 6254.05 480.550   4
  -2  -7  -6 1340.61 294.758   3
  -2  -7  -6 967.457 238.996   4
  -2  -7  -5 8299.84 484.084   4
  -2  -7  -5 8730.68 545.127   3
  -2  -7   3 2540.33 612.402  20
  -2  -7   4 4494.17 822.230  20
  -2  -6 -12 269.174 154.922  11
  -2  -6 -10 3853.01 363.254   3
  -2  -6  -9 623.256 269.435   3
  -2  -6  -9 580.275 231.034   4
  -2  -6  -8 186.480 172.826  12
  -2  -6  -8-72.6546 207.379   4
  -2  -6  -8 20.7721 236.746   3
  -2  -6  -7 570.564 238.946   3
  -2  -6  -7 647.791 193.250  12
  -2  -6  -7 755.101 225.339   4
  -2  -6  -6 281.820 205.701   3
  -2  -6  -6 189.863 160.708   4
  -2  -6   3 5823.69 811.848  20
  -2  -6   4 1128.35 437.957  20
  -2  -6   5 971.219 390.488  20
  -2  -5 -12 1538.41 271.499  11
  -2  -5 -10 8853.24 515.366   3
  -2  -5 -10 9285.96 539.572   4
  -2  -5  -9 15619.8 705.129  12
  -2  -5  -9 15243.3 713.685   4
  -2  -5  -9 15368.3 722.499   3
  -2  -5  -8 9170.82 583.918   3
  -2  -5  -8 9516.38 551.121  12
  -2  -5  -8 9332.88 558.800   4
  -2  -5  -7 22005.0 765.195  12
  -2  -5  -7 22379.8 1644.22   1
  -2  -5  -7 22634.9 847.854   3
  -2  -5  -7 22956.0 789.804   4
  -2  -5  -6 11751.5 1111.12   1
  -2  -5  -5 33079.8 1577.22   1
  -2  -5  -4 5244.25 584.968   1
  -2  -5  -3 576.227 246.181   1
  -2  -5   3 35106.5 1784.24  20
  -2  -5   4 15477.6 1262.72  20
  -2  -5   5 25607.8 1725.47  20
  -2  -4 -12 1373.19 299.364  11
  -2  -4 -10 9863.26 574.993  12
  -2  -4 -10 9323.05 532.765   5
  -2  -4 -10 9434.47 529.030   4
  -2  -4  -9 5235.63 429.575  12
  -2  -4  -9 4781.51 409.561   5
  -2  -4  -9 4838.56 431.443   3
  -2  -4  -9 4716.08 418.693   4
  -2  -4  -8 619.242 204.081  12
  -2  -4  -8 464.809 202.737   4
  -2  -4  -8 509.957 188.208   5
  -2  -4  -8 800.683 470.769   1
  -2  -4  -8 622.626 248.546   3
  -2  -4  -7-395.348 440.403   1
  -2  -4  -6 2412.31 540.368   1
  -2  -4  -5 3532.69 563.611   1
  -2  -4  -4 13595.9 915.904   1
  -2  -4  -3 47893.2 1376.53   1
  -2  -4  -2 124078. 1873.02   1
  -2  -4  -1 45401.3 959.293   1
  -2  -4   0 73598.2 1043.93   1
  -2  -4   0 76605.9 1449.92  22
  -2  -4   1 2724.70 405.726  22
  -2  -4   2 53512.3 1784.31  22
  -2  -4   3 1048.88 372.863  20
  -2  -4   3 620.617 323.990  22
  -2  -4   4 1132.68 388.036  20
  -2  -4   4 843.323 380.778  22
  -2  -4   5 391.343 240.324  20
  -2  -4   5 648.104 339.983  22
  -2  -4   6 3322.90 741.974  22
  -2  -3 -13 63.4391 126.338  11
  -2  -3 -12 1745.75 345.021  11
  -2  -3 -11 8315.70 482.772   5
  -2  -3 -10 6298.94 481.031  12
  -2  -3 -10 6174.32 447.215   5
  -2  -3  -9 16349.4 679.007   5
  -2  -3  -9 15519.4 672.712   4
  -2  -3  -9 16293.8 714.961  12
  -2  -3  -8 24689.3 813.247   4
  -2  -3  -8 25613.8 812.222   5
  -2  -3  -8 27157.8 862.985  12
  -2  -3  -7 13512.3 1217.01   1
  -2  -3  -6 12079.4 1019.89   1
  -2  -3  -5 432.896 296.475   1
  -2  -3  -4 28492.6 1209.85   1
  -2  -3  -3 1654.27 316.660   1
  -2  -3  -2 959.748 247.055   1
  -2  -3  -1 258516. 2782.54  22
  -2  -3  -1 256423. 2435.54   1
  -2  -3   0 280.434 217.401  22
  -2  -3   1 19501.7 979.715  22
  -2  -3   2 3470.92 486.157  20
  -2  -3   2 3380.55 501.269  22
  -2  -3   3 57634.9 1918.01  20
  -2  -3   3 55179.2 2018.94  22
  -2  -3   4 59491.0 2350.90  22
  -2  -3   4 59775.3 2144.70  20
  -2  -3   5 24310.3 1697.30  22
  -2  -3   6 27958.8 2028.15  22
  -2  -3   7 58371.0 3163.47  22
  -2  -2 -13 2095.63 243.336  11
  -2  -2 -12 3567.71 291.128   5
  -2  -2 -12 3372.39 437.943  11
  -2  -2 -11 4963.96 596.098  11
  -2  -2 -11 5442.97 400.284   5
  -2  -2 -10 208.744 201.348  12
  -2  -2 -10 312.002 196.609   5
  -2  -2  -9 19560.9 777.415  12
  -2  -2  -9 20295.5 746.848   5
  -2  -2  -8 1192.63 225.310  12
  -2  -2  -8 1550.08 555.517   1
  -2  -2  -8 1455.73 229.579   5
  -2  -2  -7 813.869 407.074   1
  -2  -2  -6 23.7202 285.079   1
  -2  -2  -5 22952.2 1217.17   1
  -2  -2  -4 13006.3 827.763   1
  -2  -2  -3 141768. 2293.75   1
  -2  -2  -2 265262. 2782.63   1
  -2  -2  -1 234368. 2807.80  22
  -2  -2   0 10352.0 673.158  22
  -2  -2   1 69049.3 1772.07  22
  -2  -2   2 16284.3 977.323  22
  -2  -2   2 15327.5 856.839  20
  -2  -2   3 1372.53 369.038  20
  -2  -2   3 1786.63 462.438  22
  -2  -2   4 2045.60 522.540  22
  -2  -2   5 1189.75 455.619  22
  -2  -2   6 9274.96 1188.44  22
  -2  -2   7 4490.79 934.533  22
  -2  -1 -13 20.0392 150.563  11
  -2  -1 -12-363.357 303.237  11
  -2  -1 -12 36.6657 130.266   5
  -2  -1 -11 206.761 349.385  11
  -2  -1 -11 545.470 186.283   5
  -2  -1 -10 9347.34 551.118  12
  -2  -1 -10 9523.20 527.984   5
  -2  -1  -9-16.8023 164.927  12
  -2  -1  -9-9.80041 142.720   5
  -2  -1  -8 25446.3 1764.13   1
  -2  -1  -7 15191.0 1224.96   1
  -2  -1  -6 46713.6 1868.90   1
  -2  -1  -5 66155.1 1982.23   1
  -2  -1  -4 51865.4 1535.21   1
  -2  -1  -3 4773.66 238.318  17
  -2  -1  -3 8051.04 585.168   1
  -2  -1  -2 26843.2 901.944   1
  -2  -1  -1 77551.6 1689.16  22
  -2  -1  -1 78604.9 1144.45  20
  -2  -1   0 33944.7 1174.85  22
  -2  -1   0 36582.6 950.330  20
  -2  -1   1 46092.4 1444.85  22
  -2  -1   2 62717.4 1958.15  22
  -2  -1   3 5161.91 662.536  22
  -2  -1   4 27914.1 1638.65  22
  -2  -1   5 11594.3 1177.59  22
  -2  -1   6 75096.8 3203.22  22
  -2  -1   7 26365.8 2099.55  22
  -2   0 -13 2395.09 246.121  11
  -2   0 -12 2714.83 242.119   5
  -2   0 -12 2183.84 378.431  11
  -2   0 -11 8058.24 711.883  11
  -2   0 -11 8684.93 462.857   5
  -2   0 -10 9771.71 514.200   5
  -2   0 -10 9078.80 800.750  11
  -2   0  -9 9.89520 134.446  12
  -2   0  -9 180.601 143.288   5
  -2   0  -8 13339.0 1289.46   1
  -2   0  -7 5158.92 759.892   1
  -2   0  -6-25.8111 283.061   1
  -2   0  -5 924.268 339.409   1
  -2   0  -5 927.227 246.388  17
  -2   0  -4 15328.7 852.864   1
  -2   0  -4 13975.5 706.011  17
  -2   0  -3 3515.96 346.064  17
  -2   0  -3 3416.54 409.370   1
  -2   0  -2 7704.03 514.184   1
  -2   0  -1 13315.9 753.207  22
  -2   0   0 24023.1 1010.12  22
  -2   0   1 852967. 6239.86  22
  -2   0   2 2219.27 468.461  22
  -2   0   3 56935.8 1990.02  22
  -2   0   4 47315.4 2047.83  22
  -2   0   5 4592.43 762.652  22
  -2   0   6 3342.46 730.775  22
  -2   0   7 472.444 365.669  22
  -2   0  12 2333.93 162.865  18
  -2   1 -13 49.7305 115.873  11
  -2   1 -12 290.438 121.097   5
  -2   1 -12 175.526 261.394  11
  -2   1 -11-78.2719 338.855  11
  -2   1 -11 39.4766 130.231   5
  -2   1 -10 2950.57 539.571  11
  -2   1 -10 3210.36 306.737   5
  -2   1  -9 6171.40 678.899  11
  -2   1  -9 6154.90 406.255   5
  -2   1  -8 8412.02 712.922  11
  -2   1  -8 7305.06 407.708   5
  -2   1  -8 8223.63 1053.98   1
  -2   1  -7 13682.3 1143.50   1
  -2   1  -6 44887.8 1807.13  17
  -2   1  -6 51740.9 1944.88   1
  -2   1  -5 110117. 2593.76  17
  -2   1  -5 114927. 2545.29   1
  -2   1  -4 123537. 2314.48   1
  -2   1  -4 121718. 2439.53  17
  -2   1  -3 55847.6 1584.47  17
  -2   1  -3 54877.2 1414.00   1
  -2   1  -2 236809. 2625.73   1
  -2   1  -2 240359. 3032.84  17
  -2   1  -1 32699.5 1165.87  22
  -2   1  -1 30724.5 773.914   2
  -2   1   0 4585.29 510.847  22
  -2   1   1 158265. 2749.27  22
  -2   1   2 42654.0 1578.59  22
  -2   1   3 77011.1 2338.01  22
  -2   1   4 26871.7 1571.01  22
  -2   1   5 1578.46 515.827  22
  -2   1   6 13935.6 1408.17  22
  -2   1   7 2931.61 730.426  22
  -2   1  11 63.7197 142.999  18
  -2   1  12 537.280 110.465  18
  -2   2 -12 2183.49 330.168  11
  -2   2 -11 4201.23 287.860   5
  -2   2 -11 3915.02 511.257  11
  -2   2 -10 9522.07 465.677   5
  -2   2 -10 9581.63 794.182  11
  -2   2  -9 3481.86 304.304   5
  -2   2  -9 2827.37 330.571  15
  -2   2  -9 3828.17 571.862  11
  -2   2  -8 7908.47 731.676  11
  -2   2  -8 7518.94 1007.57   1
  -2   2  -8 8067.96 490.825  15
  -2   2  -8 7794.62 415.657   5
  -2   2  -7 3020.32 589.046   1
  -2   2  -6 482.070 345.197  17
  -2   2  -6 389.954 304.904   1
  -2   2  -5 7613.56 690.325   1
  -2   2  -5 7331.57 788.860  17
  -2   2  -4 26106.4 1071.86   1
  -2   2  -4 26645.1 1349.17  17
  -2   2  -3 19565.2 1118.94  17
  -2   2  -3 19265.9 851.884   1
  -2   2  -2 118937. 2534.42  17
  -2   2  -2 115540. 1843.37   1
  -2   2  -1 196274. 2873.97  22
  -2   2  -1 195956. 2347.42   2
  -2   2   0 186637. 2866.65  22
  -2   2   0 188811. 2540.00   2
  -2   2   1 13040.0 856.858  22
  -2   2   2 120500. 2704.33  22
  -2   2   3 63458.0 2176.99  22
  -2   2   4 124278. 3365.73  22
  -2   2   5 23605.6 1674.02  22
  -2   2   6-67.5448 291.894  22
  -2   2   7 4932.59 758.924   2
  -2   2   7 4468.41 877.576  22
  -2   2  11 5609.93 343.784  18
  -2   2  12 287.097 92.6314  18
  -2   3 -12 131.040 176.535  11
  -2   3 -11 370.996 299.274  11
  -2   3 -10 283.396 188.070  15
  -2   3 -10 460.368 384.280  11
  -2   3  -9 1048.84 426.119  11
  -2   3  -9 831.136 235.217  15
  -2   3  -8 5188.57 428.612  15
  -2   3  -8 4736.27 615.623  11
  -2   3  -7 11207.5 821.981  11
  -2   3  -7 9884.46 1186.50  17
  -2   3  -6 19682.8 1517.46  17
  -2   3  -5 20958.5 1085.87   1
  -2   3  -5 19272.7 1414.58  17
  -2   3  -4 21609.8 1377.60  17
  -2   3  -4 21093.8 953.799   1
  -2   3  -3 129268. 3250.55  17
  -2   3  -3 120506. 2004.82   1
  -2   3  -2 34278.8 1611.55  17
  -2   3  -2 34425.2 1001.20   1
  -2   3  -1 58719.8 2016.26  17
  -2   3   0 3050.95 421.323   2
  -2   3   0 3142.68 414.009  22
  -2   3   1 120.228 236.816  22
  -2   3   1 99.6851 363.864  21
  -2   3   1 132.029 240.430   2
  -2   3   2 1526.75 362.560   2
  -2   3   2 1493.76 409.288  22
  -2   3   2 1250.76 457.669  21
  -2   3   3 4628.12 651.521  22
  -2   3   3 5121.69 635.959   2
  -2   3   3 4501.84 723.804  21
  -2   3   4 4511.20 627.719   2
  -2   3   4 4509.83 704.688  22
  -2   3   5 8082.41 1006.61  22
  -2   3   5 7490.87 854.251   2
  -2   3   6 16496.2 1558.21  22
  -2   3   6 17977.1 1370.37   2
  -2   3   7 14047.3 1267.35   2
  -2   3   7 14383.6 1552.32  22
  -2   3  10 6173.70 416.374  18
  -2   3  11 7918.68 387.584  18
  -2   4 -12 367.069 139.428  11
  -2   4 -11 1554.88 319.411  11
  -2   4 -10 2402.03 449.140  11
  -2   4 -10 2479.43 317.260  15
  -2   4  -9 11199.3 843.900  11
  -2   4  -9 10924.1 606.042  15
  -2   4  -8 808.058 377.304  11
  -2   4  -8 711.593 241.943  15
  -2   4  -7 112.534 196.450  15
  -2   4  -7 102.780 318.378  17
  -2   4  -7 418.721 189.646   6
  -2   4  -7 398.299 342.618  11
  -2   4  -6 3238.57 749.563  17
  -2   4  -5-691.297 390.846  17
  -2   4  -4 508.739 337.876  17
  -2   4  -3 5241.19 791.425  17
  -2   4  -2 18976.0 1360.95  17
  -2   4  -1 36013.6 1783.60  17
  -2   4   0 2970.68 576.927  17
  -2   4   1 4579.05 580.594   2
  -2   4   1 4257.91 751.606  21
  -2   4   2 128737. 3057.32   2
  -2   4   2 128684. 3724.34  21
  -2   4   3 67988.6 2331.88   2
  -2   4   3 69110.7 2337.76  22
  -2   4   3 69283.0 2845.55  21
  -2   4   4 21603.7 1422.60   2
  -2   4   4 21615.4 1668.17  21
  -2   4   5 10991.1 1083.06   2
  -2   4   6 27664.3 1793.49   2
  -2   4   9-12.8878 193.503  18
  -2   4  10 479.382 194.505  18
  -2   4  11 502.879 152.440  18
  -2   5 -11-242.002 186.492  11
  -2   5 -10 67.1188 260.612  11
  -2   5 -10 2204.36 296.727  15
  -2   5  -9 336.051 336.213  11
  -2   5  -9 50.5888 194.434  15
  -2   5  -8 115.185 334.996  11
  -2   5  -8-32.7813 225.656  15
  -2   5  -7 778.387 375.296  11
  -2   5  -7 1379.30 225.878   6
  -2   5  -7 686.751 231.843  15
  -2   5  -6 3994.25 530.855  11
  -2   5  -6 3391.39 311.379   6
  -2   5  -6 4031.77 904.736  17
  -2   5  -6 4272.01 390.589  15
  -2   5  -5 6467.94 1038.37  17
  -2   5  -4 15346.7 1460.47  17
  -2   5  -3 25163.5 1783.36  17
  -2   5  -2 29024.2 1890.59  17
  -2   5  -1 14842.1 1307.85  17
  -2   5   0 30922.5 1840.73  17
  -2   5   1 6656.14 885.689  17
  -2   5   1 6247.70 977.433  21
  -2   5   2 4544.05 773.533  17
  -2   5   2 3518.31 779.998  21
  -2   5   3-350.470 424.171  21
  -2   5   3-15.6485 232.702   2
  -2   5   4 9827.06 1064.95   2
  -2   5   5 4854.18 805.139   2
  -2   5   5 5538.25 481.624   8
  -2   5   6 3941.00 359.885  18
  -2   5   7 8661.56 530.001  18
  -2   5   8 2010.45 289.493  18
  -2   5   9 2248.24 281.876  18
  -2   5  10 3796.48 298.541  18
  -2   5  11 5059.03 237.975  18
  -2   6 -11-243.724 110.571  11
  -2   6 -10 129.062 195.703  11
  -2   6  -9 1544.04 352.726  11
  -2   6  -9 3484.56 383.157  15
  -2   6  -8 2275.10 445.587  11
  -2   6  -8 2109.96 330.045  15
  -2   6  -7 3012.99 293.597   6
  -2   6  -7 3019.42 482.268  11
  -2   6  -7 3032.54 381.703  15
  -2   6  -6 653.223 331.438  11
  -2   6  -6 489.719 150.333   6
  -2   6  -6 562.570 233.881  15
  -2   6  -6 413.262 230.180  10
  -2   6  -5 11785.5 1480.96  17
  -2   6  -5 9912.06 733.872  11
  -2   6  -5 12447.6 779.432  10
  -2   6  -5 11423.4 597.642  15
  -2   6  -4-365.782 324.294  11
  -2   6  -4 395.598 431.468  17
  -2   6  -4 107.103 211.807  10
  -2   6  -4 315.891 163.347  15
  -2   6  -3 385.695 419.655  17
  -2   6  -2 819.520 422.819  17
  -2   6  -1 1005.38 505.565  17
  -2   6   0-328.390 359.495  17
  -2   6   1 34710.7 2131.94  17
  -2   6   2 1544.44 561.333  17
  -2   6   3 18918.1 1598.61  17
  -2   6   4 12426.8 706.158   8
  -2   6   5 14281.7 784.668   8
  -2   6   6 10854.9 556.225  18
  -2   6   7 9706.42 529.156  18
  -2   6   8 4995.71 377.495  18
  -2   6   9 29.4692 138.807  18
  -2   6  10 67.1996 104.749  18
  -2   7 -10 32.5528 107.946  11
  -2   7  -9-504.922 204.052  11
  -2   7  -8-407.877 282.068  11
  -2   7  -8 2947.69 349.530  15
  -2   7  -7 659.564 246.067  15
  -2   7  -7-252.229 313.819  11
  -2   7  -6 117.050 124.676   6
  -2   7  -6 204.161 237.192  10
  -2   7  -6 62.4580 210.596  15
  -2   7  -5 4363.36 404.863  15
  -2   7  -5 5374.31 567.752  10
  -2   7  -4 20388.3 1054.50  10
  -2   7  -4 18369.2 722.860  15
  -2   7  -3-212.776 285.376  11
  -2   7  -3 413.856 195.627  15
  -2   7  -3 196.316 236.722  10
  -2   7  -3 640.032 359.822  17
  -2   7  -2 11202.7 785.882  10
  -2   7  -2 10479.9 1363.80  17
  -2   7  -1 10820.1 595.050  11
  -2   7  -1 11167.8 1377.26  17
  -2   7   0 23494.9 1107.16  10
  -2   7   0 20716.2 1868.52  17
  -2   7   1 8995.73 705.013  10
  -2   7   1 7320.20 1125.66  17
  -2   7   1 9018.07 582.158   8
  -2   7   2 4828.11 907.379  17
  -2   7   2 4762.49 455.962   8
  -2   7   2 4920.53 541.761  10
  -2   7   3 137.483 225.888   8
  -2   7   4 27.8271 206.654   8
  -2   7   6-4.59312 177.395   9
  -2   7   8 8338.14 411.258  18
  -2   8  -9 2500.41 191.316  11
  -2   8  -8 827.318 205.209  11
  -2   8  -7 1918.94 309.478  11
  -2   8  -6 946.459 289.000  11
  -2   8  -6 1927.64 359.199  10
  -2   8  -5 2037.95 412.069  10
  -2   8  -5 895.057 301.426  11
  -2   8  -4 4643.06 459.165  11
  -2   8  -4 9095.34 758.793  10
  -2   8  -3 1754.43 350.869  11
  -2   8  -3 758.692 338.196  10
  -2   8  -2 10765.2 647.512  11
  -2   8  -2 5180.46 612.484  10
  -2   8  -1 2080.83 434.140  10
  -2   8   0 1487.90 283.838   8
  -2   8   0 1473.91 377.697  10
  -2   8   1 5924.46 507.090   8
  -2   8   1 6741.21 679.354  10
  -2   8   2 7978.03 601.079   8
  -2   8   2 7662.92 691.900  10
  -2   8   3 7051.51 580.989   8
  -2   8   5 13707.4 710.929   9
  -2   8   6 713.606 229.931   9
  -2   9  -7 11586.4 435.773  11
  -2   9  -6 9671.39 454.767  11
  -2   9  -6-719.289 291.103  10
  -2   9  -5 11678.8 546.474  11
  -2   9  -5 790.145 282.537  10
  -2   9  -4 2608.15 448.305  10
  -2   9  -4 21495.4 762.254  11
  -2   9  -3 572.730 324.918  10
  -2   9  -2 47.0264 306.623  10
  -2   9  -1 3403.67 536.961  10
  -2   9  -1 3087.11 354.906   9
  -2   9   0 4660.88 599.409  10
  -2   9   0 4708.49 442.010   9
  -2   9   1 1088.02 357.521  10
  -2   9   1 1694.86 311.001   9
  -2   9   2 6769.20 522.698   9
  -2   9   2 5845.88 596.510  10
  -2   9   3 372.335 239.145   9
  -2   9   3 531.411 243.940  10
  -2   9   4 1636.13 315.263   9
  -2   9   5 1241.15 265.486   9
  -2   9   6 1901.31 253.156   9
  -2  10  -4-245.269 325.727  10
  -2  10  -3-162.175 355.448  10
  -2  10  -2-280.238 406.491  10
  -2  10  -1-17.3481 154.524   9
  -2  10   0-291.972 400.790  10
  -2  10   0 499.650 208.548   9
  -2  10   1 1202.13 270.283   9
  -2  10   1 833.464 324.712  10
  -2  10   2 624.855 312.231  10
  -2  10   2 308.227 217.773   9
  -2  10   3 1207.81 270.934   9
  -2  10   4 2688.91 303.881   9
  -2  10   5 1732.90 245.194   9
  -2  10   6 1178.13 162.703   9
  -2  11  -4 800.526 207.087  10
  -2  11  -3 571.280 240.091  10
  -2  11  -2 559.620 270.258  10
  -2  11  -1 431.207 269.327  10
  -2  11   0 1260.97 329.447  10
  -2  11   0 346.305 149.409   9
  -2  11   1 3149.52 396.126  10
  -2  11   1 1918.73 243.404   9
  -2  11   2 390.772 210.758  10
  -2  11   2 228.155 160.751   9
  -2  11   3 345.191 155.185   9
  -2  11   4 325.368 130.979   9
  -1 -11  -7 244.632 108.627   3
  -1 -11  -6 134.510 128.231   3
  -1 -11  -5-134.590 150.128   3
  -1 -11  -4-112.842 159.910   3
  -1 -10  -8 1633.98 203.099   3
  -1 -10  -7 3326.08 305.892   3
  -1 -10  -6 369.215 206.330   3
  -1 -10  -5 5201.93 410.466   3
  -1 -10  -4 2034.97 294.710   3
  -1 -10  -3 2269.69 290.743   3
  -1  -9  -9 5098.84 318.010   3
  -1  -9  -8 4741.44 379.856   3
  -1  -9  -7 6854.58 424.303   4
  -1  -9  -7 7004.76 488.263   3
  -1  -9  -6 264.607 234.964   3
  -1  -9  -6 425.959 190.323   4
  -1  -9  -5 10085.3 603.314   3
  -1  -9  -5 10663.3 522.574   4
  -1  -8 -10-129.531 132.832   3
  -1  -8  -9 465.495 206.746   3
  -1  -8  -9 440.475 182.768   4
  -1  -8  -8 982.434 242.377   4
  -1  -8  -8 884.547 271.189   3
  -1  -8  -7 3516.95 410.970   3
  -1  -8  -7 3599.45 363.916   4
  -1  -8  -6 31058.7 1032.51   3
  -1  -8  -6 31309.8 942.834   4
  -1  -8  -5 11488.2 575.802   4
  -1  -8  -4 15543.0 630.428   4
  -1  -7 -10 3782.48 318.829   4
  -1  -7 -10 3254.38 288.237   3
  -1  -7  -9 5404.35 430.174   3
  -1  -7  -9 6263.11 452.933   4
  -1  -7  -8 1953.58 317.565   4
  -1  -7  -8 1955.88 336.670   3
  -1  -7  -7 13360.6 704.143   3
  -1  -7  -7 13183.0 644.958   4
  -1  -7  -6 12660.4 611.582   4
  -1  -7  -5 4721.53 396.195   4
  -1  -7   4 379.671 299.991  20
  -1  -6 -10 197.466 180.261   3
  -1  -6 -10 307.395 203.852   4
  -1  -6  -9 916.496 221.504  12
  -1  -6  -9 1063.79 276.147   3
  -1  -6  -9 1006.25 256.056   4
  -1  -6  -8 1399.34 249.803  12
  -1  -6  -8 1536.10 290.420   4
  -1  -6  -8 1204.56 292.976   3
  -1  -6  -7 9526.75 515.276  12
  -1  -6  -7 9925.16 605.526   3
  -1  -6  -7 9909.70 555.689   4
  -1  -6  -6 15583.4 661.117   4
  -1  -6   4 4883.65 765.857  20
  -1  -5 -12 771.161 193.832  11
  -1  -5 -10 4561.93 390.030  12
  -1  -5 -10 3787.35 335.364   3
  -1  -5 -10 4185.44 376.400   4
  -1  -5  -9 11121.8 595.778  12
  -1  -5  -9 10714.6 601.203   3
  -1  -5  -9 10842.5 595.089   4
  -1  -5  -8 4519.64 398.722  12
  -1  -5  -8 3552.18 352.538   5
  -1  -5  -8 4117.28 422.042   3
  -1  -5  -8 4143.21 398.210   4
  -1  -5  -7 12294.1 577.922  12
  -1  -5  -7 11929.0 562.417   5
  -1  -5  -7 12744.4 649.542   3
  -1  -5  -7 13104.3 602.261   4
  -1  -5   4 537.519 299.155  20
  -1  -5   5 10195.2 1033.97  20
  -1  -4 -12 2498.21 306.415  11
  -1  -4 -11 446.184 196.384  12
  -1  -4 -10 177.386 205.472  12
  -1  -4 -10 193.518 177.329   5
  -1  -4 -10 166.542 171.675   4
  -1  -4  -9 2906.98 351.762  12
  -1  -4  -9 2877.73 329.829   4
  -1  -4  -9 2798.80 324.126   5
  -1  -4  -8 176.058 185.901  12
  -1  -4  -8 176.355 167.355   5
  -1  -4  -8 178.423 175.290   4
  -1  -4  -8 175.357 208.784   3
  -1  -4  -6 117.735 312.174   1
  -1  -4  -5 29101.7 1460.53   1
  -1  -4  -4 31416.7 1330.97   1
  -1  -4  -3 50711.2 1416.58   1
  -1  -4  -2 40151.6 1037.83   1
  -1  -4  -1 26978.1 601.788   1
  -1  -4   1 477.369 152.548  22
  -1  -4   2 35159.5 1230.92  22
  -1  -4   3 23353.3 1216.87  22
  -1  -4   4 14528.2 1058.13  20
  -1  -4   4 14401.3 1121.67  22
  -1  -4   5 40.4962 185.445  20
  -1  -4   5 213.452 288.878  22
  -1  -4   6 289.594 318.973  22
  -1  -3 -12 339.700 235.327  11
  -1  -3 -11 405.313 206.997  12
  -1  -3 -11 333.454 179.866   5
  -1  -3 -10 16444.7 720.691  12
  -1  -3 -10 15156.9 653.291   5
  -1  -3 -10 15033.6 630.767   4
  -1  -3  -9 23808.0 850.238  12
  -1  -3  -9 21990.4 786.119   5
  -1  -3  -9 23523.7 804.561   4
  -1  -3  -8 26095.8 850.317  12
  -1  -3  -8 25206.2 800.249   5
  -1  -3  -8 24138.6 806.128   4
  -1  -3  -7 20537.2 1519.94   1
  -1  -3  -6 25187.1 1507.33   1
  -1  -3  -5 23581.9 1264.68   1
  -1  -3  -4 36242.5 1358.88   1
  -1  -3  -3 567.230 247.492   1
  -1  -3  -2 27549.7 852.027   1
  -1  -3  -1 3348.50 246.302   1
  -1  -3   0 6.02855 73.1828  22
  -1  -3   0-8.12843 44.5797   1
  -1  -3   1 12580.6 607.190  22
  -1  -3   2 21018.6 969.530  22
  -1  -3   3 9199.16 785.890  22
  -1  -3   3 8597.88 704.316  20
  -1  -3   4 106379. 2581.84  20
  -1  -3   4 106222. 2951.39  22
  -1  -3   5 29950.7 1788.23  22
  -1  -3   6 19407.6 1630.17  22
  -1  -3   7 25301.6 2019.19  22
  -1  -2 -12 1252.06 298.934  11
  -1  -2 -12 1386.71 204.090   5
  -1  -2 -11 212.887 182.093  12
  -1  -2 -11 207.717 169.215   5
  -1  -2 -11-112.152 321.716  11
  -1  -2 -10 4502.18 415.435  12
  -1  -2 -10 4817.66 406.932   5
  -1  -2  -9 21236.4 795.325  12
  -1  -2  -9 20437.9 754.753   5
  -1  -2  -8 3813.74 340.253  12
  -1  -2  -8 3716.55 321.728   5
  -1  -2  -7 299.922 382.652   1
  -1  -2  -6 2465.50 513.527   1
  -1  -2  -5 26879.4 1283.94   1
  -1  -2  -4 9417.55 717.161   1
  -1  -2  -3 14251.3 715.710   1
  -1  -2  -2 137865. 1763.18   1
  -1  -2  -1 994567. 3735.85   1
  -1  -2   0 60595.4 1024.44  22
  -1  -2   1 23111.3 805.791  22
  -1  -2   2 30622.1 1147.87  22
  -1  -2   3 19131.8 936.419  20
  -1  -2   3 20011.1 1106.58  22
  -1  -2   4 19424.6 1095.65  20
  -1  -2   4 19783.4 1310.42  22
  -1  -2   5 8236.98 1019.58  22
  -1  -2   6 1503.65 570.487  22
  -1  -2   7 4294.71 888.172  22
  -1  -2   8 127.818 321.891  22
  -1  -1 -12 526.387 166.026   5
  -1  -1 -12-104.454 256.907  11
  -1  -1 -11 5584.04 407.503  12
  -1  -1 -11 4577.43 555.107  11
  -1  -1 -11 5830.98 404.730   5
  -1  -1 -10 12056.0 610.996  12
  -1  -1 -10 12246.0 595.901   5
  -1  -1  -9 1644.37 270.315  12
  -1  -1  -9 1589.02 261.757   5
  -1  -1  -8 27225.7 1863.13   1
  -1  -1  -8 24621.9 764.197   5
  -1  -1  -7 54056.1 2320.35   1
  -1  -1  -6 13941.2 1045.69   1
  -1  -1  -5 5102.26 598.490   1
  -1  -1  -4 391.941 284.142   1
  -1  -1  -3 2599.87 349.140   1
  -1  -1  -2 51237.6 1051.13   1
  -1  -1  -1 7119.01 332.445   1
  -1  -1   0 303.606 151.572  22
  -1  -1   1 78.2948 199.349  22
  -1  -1   2 17986.6 779.878  20
  -1  -1   2 16836.9 901.364  22
  -1  -1   3 618.643 331.013  22
  -1  -1   4 45502.2 1906.33  22
  -1  -1   5 78239.8 2834.89  22
  -1  -1   6 37192.0 2187.00  22
  -1  -1   7 38334.4 2452.86  22
  -1  -1   8 71536.9 3603.70  22
  -1   0 -12 4412.53 299.096   5
  -1   0 -12 4055.88 421.245  11
  -1   0 -11 3979.04 340.699   5
  -1   0 -11 3822.23 517.191  11
  -1   0 -10 5603.74 414.341  12
  -1   0 -10 5750.41 646.175  11
  -1   0 -10 6143.81 425.046   5
  -1   0  -9-86.0434 150.449  12
  -1   0  -9 101.289 159.404   5
  -1   0  -8 23560.9 1736.65   1
  -1   0  -8 21876.6 715.601   5
  -1   0  -7 227.915 333.211   1
  -1   0  -6 1464.88 420.342   1
  -1   0  -5 181.578 272.401   1
  -1   0  -4 19066.5 914.142   1
  -1   0  -4 17830.5 826.929  17
  -1   0  -3 26368.9 906.048   1
  -1   0  -3 26298.8 849.472  17
  -1   0  -2 105945. 1307.85  17
  -1   0  -2 104864. 1479.86   1
  -1   0  -1 26755.3 624.851   1
  -1   0   0 280098. 2333.20  22
  -1   0   1 3348.49 340.862  22
  -1   0   2 34068.5 1182.87  22
  -1   0   3 32404.6 1377.47  22
  -1   0   4 2587.80 551.287  22
  -1   0   5 3734.10 691.395  22
  -1   0   6-262.377 351.543  22
  -1   0   7 4656.50 894.969  22
  -1   0   8 2874.27 774.646  22
  -1   0  12 4006.69 230.060  18
  -1   1 -12-270.485 226.876  11
  -1   1 -12 4.22535 112.821   5
  -1   1 -11 146.097 148.105   5
  -1   1 -11-13.5781 305.123  11
  -1   1 -10-35.5336 155.001   5
  -1   1 -10-183.510 355.779  11
  -1   1  -9 4995.84 616.702  11
  -1   1  -9 6040.25 409.640   5
  -1   1  -8 6997.09 654.150  11
  -1   1  -7 19167.5 1398.04   1
  -1   1  -6 4250.67 612.461   1
  -1   1  -5 84862.0 2318.00  17
  -1   1  -5 87663.7 2187.56   1
  -1   1  -4 93995.3 2178.50  17
  -1   1  -4 94554.4 1986.86   1
  -1   1  -3 93247.0 1627.34   1
  -1   1  -3 94523.8 1871.38  17
  -1   1  -2 44254.9 1169.25  17
  -1   1  -2 41242.1 944.734   1
  -1   1   0 14909.4 592.608  22
  -1   1   0 14427.5 669.140  21
  -1   1   1 69802.6 1409.65  22
  -1   1   1 66921.1 1429.77  21
  -1   1   2 45850.1 1377.10  22
  -1   1   2 42266.8 1213.92  21
  -1   1   3 97697.5 2372.65  22
  -1   1   3 91514.6 1898.21  21
  -1   1   4 25268.4 1080.95  21
  -1   1   4 26676.4 1460.92  22
  -1   1   5 18439.7 1369.32  22
  -1   1   6 23532.7 1728.12  22
  -1   1   7 39204.0 2455.29  22
  -1   1   8 22479.0 2016.15  22
  -1   1  11 3012.76 290.933  18
  -1   1  12 723.977 142.375  18
  -1   2 -12 2158.31 296.902  11
  -1   2 -12 2710.28 201.319   5
  -1   2 -11 5491.55 347.796   5
  -1   2 -11 5465.40 555.932  11
  -1   2 -10 9325.63 487.799   5
  -1   2 -10 8434.39 739.280  11
  -1   2  -9 6206.82 686.131  11
  -1   2  -9 6295.08 457.501  15
  -1   2  -9 6933.04 431.930   5
  -1   2  -8 3914.18 558.433  11
  -1   2  -8 4973.82 398.421  15
  -1   2  -7 5815.59 790.764   1
  -1   2  -6 1701.78 424.537   1
  -1   2  -6 1532.16 492.910  17
  -1   2  -5 6875.13 771.422  17
  -1   2  -5 6865.10 649.948   1
  -1   2  -4 4299.20 571.960  17
  -1   2  -4 4382.46 463.642   1
  -1   2  -3 23793.1 832.932   1
  -1   2  -3 25110.3 1153.97  17
  -1   2  -2 11.2071 232.926  17
  -1   2  -2 99.2483 144.797   1
  -1   2  -1 43995.5 786.131   1
  -1   2   0 4038.89 470.848  21
  -1   2   0 4621.75 347.059  22
  -1   2   1 21996.6 833.105  22
  -1   2   1 21060.1 988.950  21
  -1   2   2 188189. 3008.84  21
  -1   2   2 201501. 2884.90  22
  -1   2   3 827.007 355.020  22
  -1   2   3 770.473 296.282  21
  -1   2   4 58995.6 2139.93  22
  -1   2   4 57705.8 1899.76  21
  -1   2   5 11613.8 1111.38  22
  -1   2   5 12277.6 958.943  21
  -1   2   6 8545.94 1074.02  22
  -1   2   6 10659.2 902.438   2
  -1   2   7-487.165 373.965  22
  -1   2   8-382.429 333.282  22
  -1   2  11 2964.88 297.022  18
  -1   2  12 2332.48 207.651  18
  -1   3 -12 48.8064 146.407  11
  -1   3 -11 155.168 248.722  11
  -1   3 -11 152.159 115.882   5
  -1   3 -11 345.299 156.965  15
  -1   3 -10 730.313 176.343   5
  -1   3 -10 367.920 357.633  11
  -1   3 -10 367.470 185.918  15
  -1   3  -9 2613.08 500.891  11
  -1   3  -9 3263.18 299.553   5
  -1   3  -9 2720.87 338.678  15
  -1   3  -8 3845.24 381.016  15
  -1   3  -8 3985.95 567.114  11
  -1   3  -6 21196.5 1563.21  17
  -1   3  -5 35438.5 1869.67  17
  -1   3  -5 35938.3 1402.49   1
  -1   3  -4 70667.4 1642.43   1
  -1   3  -4 68720.3 2364.67  17
  -1   3  -3 91418.1 1543.43   1
  -1   3  -3 91529.5 2497.86  17
  -1   3  -2 19228.3 566.978   1
  -1   3  -2 22746.8 1223.97  17
  -1   3  -1 95021.7 2351.24  21
  -1   3  -1 95213.0 1064.58   1
  -1   3   0 38110.6 1399.79  17
  -1   3   0 36782.3 1463.06  21
  -1   3   1 2805.60 388.878   2
  -1   3   1 2795.51 334.081  22
  -1   3   1 2358.77 489.694  21
  -1   3   2-6.01271 210.448  22
  -1   3   2 160.432 231.173   2
  -1   3   2 339.450 299.987  21
  -1   3   3 1707.01 408.027  22
  -1   3   3 1670.56 439.271  21
  -1   3   3 1571.03 365.939   2
  -1   3   4 12815.2 917.432   2
  -1   3   4 12055.0 1023.51  21
  -1   3   4 12687.4 1011.49  22
  -1   3   5 30016.0 1725.36  22
  -1   3   5 29993.8 1488.26   2
  -1   3   5 30166.0 1692.59  21
  -1   3   6 1596.90 514.532  22
  -1   3   6 1370.13 355.825   2
  -1   3   7 12259.4 1378.94  22
  -1   3  10 10938.3 581.503  18
  -1   3  11 3186.96 307.750  18
  -1   3  12 38.3342 101.231  18
  -1   4 -11 3855.11 391.988  11
  -1   4 -11 5340.72 341.257  15
  -1   4 -10 4609.52 530.887  11
  -1   4 -10 4234.95 288.705   5
  -1   4 -10 4453.86 386.413  15
  -1   4  -9 11827.5 860.062  11
  -1   4  -9 12488.1 519.793   5
  -1   4  -8 2367.31 329.885  15
  -1   4  -8 2271.19 480.073  11
  -1   4  -7 3902.99 326.651   6
  -1   4  -7 4534.14 560.554  11
  -1   4  -7 5203.04 430.749  15
  -1   4  -6 5178.97 885.101  17
  -1   4  -5 371.795 374.324  17
  -1   4  -4 4474.02 735.102  17
  -1   4  -3 203.536 285.786  17
  -1   4  -2 41.2807 304.887  17
  -1   4  -1 98041.4 2810.98  21
  -1   4  -1 110033. 2890.98  17
  -1   4   0 8160.69 883.351  21
  -1   4   0 9171.27 834.454  17
  -1   4   1 40784.9 1655.41  17
  -1   4   1 41116.5 1873.52  21
  -1   4   2 39701.6 1537.93   2
  -1   4   2 37720.6 1814.89  21
  -1   4   3 41694.7 1678.32   2
  -1   4   3 41514.4 1552.05  22
  -1   4   3 41602.6 2002.95  21
  -1   4   4 45336.4 1848.09   2
  -1   4   4 44087.7 1854.23  22
  -1   4   4 44333.7 2176.31  21
  -1   4   5 56929.5 2219.84   2
  -1   4   5 55160.2 2337.25  22
  -1   4   5 56886.7 2593.43  21
  -1   4   6 26017.3 1594.79   2
  -1   4   6 23454.3 1761.60  21
  -1   4   9 148.889 210.281  18
  -1   4  10 2496.17 319.380  18
  -1   4  11 1157.53 209.314  18
  -1   4  12 1467.35 147.298  18
  -1   5 -11-481.706 190.497  11
  -1   5 -10 155.139 243.565  11
  -1   5 -10 253.188 180.790  15
  -1   5  -9 14.7994 308.887  11
  -1   5  -9 3.30086 228.651  15
  -1   5  -8 246.858 342.796  11
  -1   5  -8 417.642 247.519  15
  -1   5  -7 2281.00 273.298   6
  -1   5  -7 2270.55 321.965  15
  -1   5  -7 2302.03 456.567  11
  -1   5  -6 19160.3 1017.80  11
  -1   5  -6 19603.9 731.373   6
  -1   5  -6 20560.3 1829.96  17
  -1   5  -6 22734.1 835.939  15
  -1   5  -5 8780.17 1154.97  17
  -1   5  -4 16710.9 1471.58  17
  -1   5  -3 19891.0 1491.06  17
  -1   5  -2 67259.9 2634.20  17
  -1   5  -1 14580.7 1259.04  21
  -1   5  -1 16361.6 1309.30  17
  -1   5   0 31307.2 1824.37  21
  -1   5   0 33788.1 1770.52  17
  -1   5   1 4228.57 669.170  17
  -1   5   1 4283.09 753.047  21
  -1   5   2 17.5993 317.292  21
  -1   5   2-141.218 327.532  17
  -1   5   3 104.131 257.120  17
  -1   5   3-516.734 402.264  21
  -1   5   4 4284.58 826.587  21
  -1   5   5 3045.24 745.808  21
  -1   5   6 9482.33 521.127  18
  -1   5   6 9260.31 1236.57  21
  -1   5   7 13359.6 648.414  18
  -1   5   8 11405.6 605.708  18
  -1   5   9 3190.90 355.765  18
  -1   5  10 5402.35 388.676  18
  -1   5  11 2451.79 235.191  18
  -1   6 -10-360.640 211.642  11
  -1   6 -10 1468.98 237.004  15
  -1   6  -9 471.712 277.848  11
  -1   6  -9 724.168 235.226  15
  -1   6  -8 3536.99 489.702  11
  -1   6  -8 4354.31 425.189  15
  -1   6  -7 1326.91 235.807   6
  -1   6  -7 1230.85 374.609  11
  -1   6  -7 1545.85 298.578  15
  -1   6  -6-1.00593 140.943   6
  -1   6  -6 366.365 336.494  11
  -1   6  -6-10.6828 206.417  15
  -1   6  -5 324.082 280.587  11
  -1   6  -5 463.063 354.641  17
  -1   6  -5 250.003 181.833  15
  -1   6  -5 328.275 204.170  10
  -1   6  -5 317.218 176.298   6
  -1   6  -4 1147.60 495.977  17
  -1   6  -3-131.550 321.028  17
  -1   6  -2-61.8370 280.649  17
  -1   6  -1 2946.21 653.196  17
  -1   6   0 5615.35 969.522  21
  -1   6   0 5985.89 902.952  17
  -1   6   1 9843.32 1079.40  17
  -1   6   1 8427.97 1153.04  21
  -1   6   2 769.211 372.910  17
  -1   6   2 541.007 417.807  21
  -1   6   3 53226.9 2881.09  21
  -1   6   4 22296.2 1979.57  21
  -1   6   5 26052.0 2196.77  21
  -1   6   6 4159.24 388.673  18
  -1   6   7 4849.21 423.144  18
  -1   6   8 1016.03 247.449  18
  -1   6   9-56.0384 181.700  18
  -1   6  10 194.324 155.113  18
  -1   6  11 1596.29 159.830  18
  -1   7 -10-59.6371 109.741  11
  -1   7  -9-342.592 222.734  11
  -1   7  -9 868.260 236.680  15
  -1   7  -8-418.599 278.381  11
  -1   7  -8-156.226 222.415  15
  -1   7  -7-383.065 309.169  11
  -1   7  -7 554.328 168.372   6
  -1   7  -7-140.131 230.079  15
  -1   7  -6-434.837 361.969  11
  -1   7  -6 7.85441 158.429   6
  -1   7  -6 141.063 207.390  15
  -1   7  -5 3655.26 359.600   6
  -1   7  -5 3924.79 390.255  15
  -1   7  -5 3967.83 491.045  10
  -1   7  -5 2568.73 442.964  11
  -1   7  -4 10233.2 588.798   6
  -1   7  -4 12430.2 809.923  10
  -1   7  -4 10400.7 1394.34  17
  -1   7  -4 10324.0 559.985  15
  -1   7  -3 197.897 244.336  11
  -1   7  -3 1141.69 242.240   6
  -1   7  -3 602.516 401.684  17
  -1   7  -3 1410.65 335.085  10
  -1   7  -2 14288.5 1519.88  17
  -1   7  -1 22811.2 1828.63  17
  -1   7   0 22711.5 1788.24  17
  -1   7   1 10547.7 1395.87  21
  -1   7   1 11982.3 1288.93  17
  -1   7   2-43.3947 321.158  21
  -1   7   3 796.131 522.303  21
  -1   7   3 450.559 223.008   8
  -1   7   4 536.043 526.052  21
  -1   7   5 69.6495 201.563   9
  -1   7   6 5493.74 461.069   9
  -1   7   6 4938.70 422.407  18
  -1   7   7 3242.84 345.754  18
  -1   7   8 4096.32 359.748  18
  -1   7   9 1043.97 203.611  18
  -1   8  -9 2395.96 198.253  11
  -1   8  -8 982.447 219.573  11
  -1   8  -8 4861.80 368.260  15
  -1   8  -7 4289.66 294.510   6
  -1   8  -7 3717.28 352.581  15
  -1   8  -6 1740.90 241.468   6
  -1   8  -6 1216.87 317.432  11
  -1   8  -6 1931.39 301.831  15
  -1   8  -5-356.445 270.515  11
  -1   8  -5-69.4477 146.357   6
  -1   8  -5-87.0878 239.446  10
  -1   8  -5 26.7160 165.209  15
  -1   8  -4 5274.73 428.249   6
  -1   8  -4 5183.80 415.989  15
  -1   8  -3 266.436 246.435  11
  -1   8  -3 382.712 195.200   6
  -1   8  -3 725.151 349.784  10
  -1   8  -2-125.848 161.225   6
  -1   8  -2 265.045 298.357  10
  -1   8  -2 482.778 472.316  17
  -1   8  -1 4082.42 552.214  10
  -1   8  -1 3105.58 353.398   9
  -1   8  -1 2580.56 700.015  17
  -1   8  -1 3217.21 345.440   6
  -1   8   0 3181.88 358.025   9
  -1   8   0 3184.80 508.595  10
  -1   8   1 1070.06 345.885  10
  -1   8   1 986.208 262.365   8
  -1   8   2 6927.89 548.752   8
  -1   8   2 7250.10 689.076  10
  -1   8   3 7941.19 576.377   9
  -1   8   3 7173.35 648.638  10
  -1   8   4 13133.2 737.773   9
  -1   8   5 6119.23 504.743   9
  -1   8   6 7226.61 517.014   9
  -1   8   7 5850.13 407.435   9
  -1   9  -7 8039.94 397.215  11
  -1   9  -6 5180.22 380.176  11
  -1   9  -6 715.134 143.634   6
  -1   9  -5 5749.29 438.957  11
  -1   9  -5-39.6297 122.513   6
  -1   9  -4 1609.76 383.230  10
  -1   9  -4 1238.69 226.812   6
  -1   9  -3 5360.01 416.787   6
  -1   9  -3 6299.29 659.390  10
  -1   9  -2 46.4443 289.810  10
  -1   9  -2-5.30404 155.884   6
  -1   9  -1 3104.54 342.475   6
  -1   9  -1 3965.23 389.817   9
  -1   9   0 7156.57 725.000  10
  -1   9   0 7923.32 549.764   9
  -1   9   1 10091.1 634.455   9
  -1   9   1 9274.30 800.678  10
  -1   9   2 5405.16 612.106  10
  -1   9   2 6147.09 513.742   9
  -1   9   3 7537.68 658.126  10
  -1   9   3 8532.24 601.096   9
  -1   9   4 603.915 248.214   9
  -1   9   5 143.529 210.916   9
  -1   9   6 1.71743 164.548   9
  -1   9   7-1.76826 130.114   9
  -1  10  -5 607.591 240.691  10
  -1  10  -4-461.153 345.793  10
  -1  10  -4 562.479 141.491   6
  -1  10  -3 1343.34 200.292   6
  -1  10  -3 328.413 357.904  10
  -1  10  -2 1072.71 204.740   6
  -1  10  -2-224.311 441.246  10
  -1  10  -1 32.2869 427.364  10
  -1  10  -1 528.485 185.277   6
  -1  10  -1 1127.68 227.223   9
  -1  10   0 817.647 201.955   6
  -1  10   0 705.750 371.055  10
  -1  10   1 1799.06 251.020   6
  -1  10   1 2662.28 483.219  10
  -1  10   1 2872.55 366.442   9
  -1  10   2 3414.65 511.505  10
  -1  10   2 3121.15 392.616   9
  -1  10   3 6177.65 568.356  10
  -1  10   3 7716.24 544.176   9
  -1  10   4 7328.75 513.907   9
  -1  10   5 6579.74 439.379   9
  -1  10   6 5156.58 346.007   9
  -1  11  -4 2191.54 297.467  10
  -1  11  -3 2862.94 371.850  10
  -1  11  -2 1310.00 334.344  10
  -1  11  -1 443.075 323.415  10
  -1  11   0 2069.54 408.494  10
  -1  11   0 896.482 199.713   9
  -1  11   1 3749.93 479.565  10
  -1  11   1 1927.48 270.578   9
  -1  11   2 1187.82 346.171  10
  -1  11   2 385.241 199.878   9
  -1  11   3 1439.81 254.802   9
  -1  11   3 544.999 207.319  10
  -1  11   4 62.5509 148.329   9
  -1  11   5 79.2575 120.273   9
  -1  12  -2 462.335 186.695  10
  -1  12  -1 558.288 220.499  10
  -1  12   0 90.7070 198.403  10
  -1  12   1-106.286 192.049  10
  -1  12   2 425.725 121.734   9
  -1  12   3 368.141 108.593   9
   0 -11  -6 14.2128 108.983   3
   0 -11  -5 578.503 158.704   3
   0 -11  -4 3059.47 261.283   3
   0 -10  -8 595.365 136.546   3
   0 -10  -7 1615.88 228.339   3
   0 -10  -6 3076.46 311.183   3
   0 -10  -5 3400.87 345.480   3
   0 -10  -4 2608.60 323.150   3
   0  -9  -9 3229.16 231.288   3
   0  -9  -8 1467.51 208.277   4
   0  -9  -8 1822.38 255.560   3
   0  -9  -7 829.556 250.844   3
   0  -9  -7 1124.09 215.554   4
   0  -9  -6 362.298 244.602   3
   0  -9  -6 296.451 165.656   4
   0  -9  -5 993.906 214.023   4
   0  -8  -9 397.425 179.327   3
   0  -8  -9 324.767 158.641   4
   0  -8  -8 1077.66 236.297   4
   0  -8  -8 1171.12 267.841   3
   0  -8  -7 2344.07 307.689   4
   0  -8  -7 2766.57 380.582   3
   0  -8  -6 19551.3 740.848   4
   0  -8  -5-64.7884 167.583   4
   0  -8  -4 12776.4 576.612   4
   0  -7 -10 1337.22 212.521   4
   0  -7  -9 7109.04 452.096   3
   0  -7  -9 7974.76 473.454   4
   0  -7  -8 5732.54 468.219   3
   0  -7  -8 5931.27 454.555   4
   0  -7  -7 9164.23 543.294   4
   0  -7  -6 9671.83 553.502   4
   0  -7  -5 89.4796 156.781   4
   0  -7  -4 6939.15 419.783   4
   0  -6 -10-141.891 166.243   4
   0  -6  -9 150.139 154.559  12
   0  -6  -9 2.28423 197.642   3
   0  -6  -9 55.5252 183.234   4
   0  -6  -8 773.910 266.134   3
   0  -6  -8 684.988 201.246  12
   0  -6  -8 634.871 231.103   4
   0  -6  -7 3840.74 344.704  12
   0  -6  -7 4261.74 397.380   4
   0  -6  -6 10073.8 555.409   4
   0  -5 -10 9830.59 517.540  12
   0  -5 -10 10078.3 514.835   4
   0  -5  -9 8858.65 523.909  12
   0  -5  -9 8521.87 514.891   3
   0  -5  -9 8799.53 539.064   4
   0  -5  -8 10093.4 556.285  12
   0  -5  -8 8304.92 486.348   5
   0  -5  -8 9964.66 564.943   4
   0  -5  -8 10164.4 600.919   3
   0  -5  -7 2842.14 305.838  12
   0  -5  -7 2706.46 283.782   5
   0  -5  -7 3304.75 342.916   4
   0  -4 -11 5551.08 388.429  12
   0  -4 -10 337.314 200.702  12
   0  -4 -10 160.129 152.221   5
   0  -4 -10 210.259 164.386   4
   0  -4  -9-81.2615 189.721  12
   0  -4  -9 117.767 161.675   5
   0  -4  -9 61.3516 167.702   4
   0  -4  -8 514.053 201.106   3
   0  -4  -8 592.645 207.524  12
   0  -4  -8 620.385 202.210   5
   0  -4  -8 806.813 231.736   4
   0  -4  -7 3404.31 325.616  12
   0  -4  -7 3210.38 318.279   4
   0  -4   2 1158.13 238.558  22
   0  -4   3 2861.69 429.178  22
   0  -4   4 6728.50 684.771  20
   0  -4   4 6778.68 769.472  22
   0  -4   5 2770.69 598.218  22
   0  -4   5 2932.64 493.721  20
   0  -4   6 2047.11 568.971  22
   0  -3 -11 61.7176 166.614  12
   0  -3 -11 175.219 154.000   5
   0  -3 -11 72.3877 232.091  11
   0  -3 -10 7769.40 500.925  12
   0  -3 -10 7119.54 453.015   5
   0  -3 -10 6849.55 431.109   4
   0  -3  -9 14177.2 667.810  12
   0  -3  -9 13491.7 613.935   4
   0  -3  -9 13319.0 611.891   5
   0  -3  -8 15972.1 679.949  12
   0  -3  -8 14533.3 622.892   5
   0  -3  -8 15389.0 639.552   4
   0  -3  -4 64913.7 1920.31   1
   0  -3  -3 1295.28 325.894   1
   0  -3   4 67179.1 1883.23  20
   0  -3   5 171.128 296.293  22
   0  -3   5 84.8450 149.983  20
   0  -3   6 12416.4 1296.50  22
   0  -3   7 18174.3 1739.41  22
   0  -2 -12 3211.72 247.380   5
   0  -2 -11-14.3043 154.583  12
   0  -2 -11-66.8521 145.517   5
   0  -2 -11-139.790 259.578  11
   0  -2 -10 6952.61 498.222  12
   0  -2 -10 7005.06 462.368   5
   0  -2  -9 357.944 203.436  12
   0  -2  -9 231.105 183.688   5
   0  -2  -8 1906.00 272.324  12
   0  -2  -8 1458.58 235.769   5
   0  -2  -5 1835.36 448.401   1
   0  -2  -4 71001.9 1927.28   1
   0  -2  -3 53645.3 1432.87   1
   0  -2  -2 70439.9 1363.18   1
   0  -2  -1 66450.1 1015.80   1
   0  -2   3 35740.5 1113.13  20
   0  -2   4 13643.1 784.425  20
   0  -2   6-346.871 393.631  22
   0  -2   7 1986.27 715.653  22
   0  -2   8 2506.13 688.893  22
   0  -1 -12 380.939 143.793   5
   0  -1 -12 129.413 181.386  11
   0  -1 -11 1647.01 254.576  12
   0  -1 -11 1847.89 253.558   5
   0  -1 -11 1788.33 378.115  11
   0  -1 -10 950.140 237.230  12
   0  -1 -10 1102.27 372.147  11
   0  -1 -10 939.059 226.734   5
   0  -1  -9 43202.6 1112.85  12
   0  -1  -9 41101.5 1057.68   5
   0  -1  -8 39274.2 1005.91  12
   0  -1  -8 38368.5 971.238   5
   0  -1  -6 31426.8 1628.12   1
   0  -1  -5 51743.0 1835.63   1
   0  -1  -4 5828.02 586.972   1
   0  -1  -3 50820.4 1320.84   1
   0  -1  -2 4030.33 346.390   1
   0  -1  -1 11921.7 385.703   1
   0  -1   2 435.470 153.162  20
   0  -1   3 82680.1 1531.85  20
   0  -1   6 34889.2 2065.36  22
   0  -1   7 17116.4 1652.07  22
   0  -1   8 10171.2 1406.16  22
   0   0 -12 3237.05 324.166  11
   0   0 -12 3743.30 266.163   5
   0   0 -11 3005.53 292.005  12
   0   0 -11 2944.60 427.312  11
   0   0 -11 3301.52 313.287   5
   0   0 -10-8.72874 152.019  12
   0   0 -10 283.308 323.002  11
   0   0 -10 66.6604 166.503   5
   0   0  -9 479.138 185.386  12
   0   0  -9 507.444 339.046  11
   0   0  -9 415.268 179.846   5
   0   0  -8 16150.9 637.193  12
   0   0  -6 752.021 367.957   1
   0   0  -5 7808.07 735.539   1
   0   0  -4 26099.7 1088.97   1
   0   0  -3 32346.9 1021.21   1
   0   0  -2 21897.9 675.815   1
   0   0  -1 142376. 1193.00  17
   0   0  -1 136138. 1133.30   1
   0   0   1 135138. 795.437  21
   0   0   2 22022.5 467.796  21
   0   0   3 29465.0 686.540  21
   0   0   4 23755.4 679.242  21
   0   0   6 219.829 358.238  22
   0   0   7 1093.23 547.711  22
   0   0   8 15633.8 1722.41  22
   0   0  11 3897.74 311.220  18
   0   0  12 3800.36 234.051  18
   0   1 -12-22.9976 105.124   5
   0   1 -11 1707.51 238.508   5
   0   1 -11 1513.15 340.827  11
   0   1 -10 3829.57 327.440  12
   0   1 -10 3932.52 533.846  11
   0   1 -10 4180.40 352.565   5
   0   1  -9 10215.5 525.970  12
   0   1  -9 9735.94 791.139  11
   0   1  -8 10502.0 779.094  11
   0   1  -6 36581.2 1725.33   1
   0   1  -5 124977. 2790.85   1
   0   1  -4 977.183 392.260   1
   0   1  -3 82118.7 1844.28  17
   0   1  -3 85258.5 1592.79   1
   0   1  -2 413.453 176.525   1
   0   1  -2 524.339 221.288  17
   0   1  -1 33320.5 593.720  21
   0   1  -1 32853.9 519.593   1
   0   1   0 3640.16 233.416  21
   0   1   0 4081.22 239.551  17
   0   1   1 11686.0 463.411  21
   0   1   1 13144.9 419.667   2
   0   1   2 3858.81 323.320  21
   0   1   3 50046.2 1189.22  21
   0   1   4 5167.61 451.066  21
   0   1   5 45506.3 1362.09  21
   0   1   6 28616.1 1859.83  22
   0   1   7 41282.3 2482.74  22
   0   1   8 38066.9 2598.78  22
   0   1  11 1728.73 243.743  18
   0   1  12 446.294 135.145  18
   0   2 -12 3080.85 212.912   5
   0   2 -11 6087.03 510.409  11
   0   2 -11 6428.63 378.571   5
   0   2 -10 979.946 209.397   5
   0   2 -10 1086.91 373.542  11
   0   2  -9 1865.88 457.038  11
   0   2  -9 1862.63 301.907  15
   0   2  -8 2095.43 290.896  15
   0   2  -8 2329.12 450.289  11
   0   2  -5 15.2973 236.851   1
   0   2  -4 13103.2 973.645  17
   0   2  -4 14377.9 830.268   1
   0   2  -3 34608.2 1354.50  17
   0   2  -3 35307.1 1036.55   1
   0   2  -2 71970.9 1123.51   1
   0   2  -1 75668.2 705.975   1
   0   2  -1 97853.9 1540.34  21
   0   2   0 54999.7 1221.83  17
   0   2   0 53152.7 1214.17  21
   0   2   1 69801.3 981.736  22
   0   2   1 64307.1 1431.46  21
   0   2   2 69391.3 1367.52   2
   0   2   2 70108.9 1618.82  21
   0   2   3 51309.0 1292.66   2
   0   2   3 50795.8 1490.10  21
   0   2   4 65473.2 1629.12   2
   0   2   4 65456.0 1842.51  21
   0   2   5 1663.16 342.423   2
   0   2   5 1577.20 361.126  21
   0   2   5 1438.77 439.168  22
   0   2   6 3847.70 745.718  22
   0   2   6 4435.19 520.519   2
   0   2   7 92.2170 390.893  22
   0   2   8 1428.91 609.107  22
   0   2  11-116.118 175.437  18
   0   2  12 3505.04 260.304  18
   0   3 -12 26.3979 72.9256   5
   0   3 -11-44.9090 211.043  11
   0   3 -11 95.0233 125.987   5
   0   3 -10 30.5855 285.804  11
   0   3 -10 150.298 155.946   5
   0   3 -10 144.696 168.079  15
   0   3  -9 109.717 195.310  15
   0   3  -9 186.835 310.787  11
   0   3  -8 858.485 353.231  11
   0   3  -8 960.094 244.425  15
   0   3  -7 14559.1 586.621   6
   0   3  -5 116.373 308.890  17
   0   3  -4 65301.9 2309.77  17
   0   3  -3 87774.8 2405.57  17
   0   3  -2 55639.0 1492.78  21
   0   3  -2 58104.6 1772.77  17
   0   3  -1 887.150 275.393  21
   0   3  -1 1075.83 328.583  17
   0   3   0 4139.27 480.684  17
   0   3   0 4277.16 478.252  21
   0   3   1 119.620 264.819  21
   0   3   1-6.08572 193.517  17
   0   3   2 37555.7 1204.34   2
   0   3   2 40068.9 1067.67  22
   0   3   2 37096.3 1460.69  21
   0   3   3 1189.80 323.495  22
   0   3   3 1369.93 319.717   2
   0   3   3 913.645 332.784  21
   0   3   4 60879.1 1746.41   2
   0   3   4 62890.5 2072.64  22
   0   3   4 60205.6 2047.08  21
   0   3   5 106811. 2495.23   2
   0   3   5 107690. 3127.79  22
   0   3   5 102890. 2835.12  21
   0   3   6 6713.12 804.019  21
   0   3   6 6712.38 697.945   2
   0   3   6 6099.42 874.587  22
   0   3   7 15209.2 1505.80  22
   0   3   8 12375.5 1431.25  22
   0   3  10 7860.09 504.822  18
   0   3  11 166.069 181.539  18
   0   3  12 1246.47 176.933  18
   0   4 -11 1757.81 254.777  11
   0   4 -11 2079.56 184.353   5
   0   4 -11 1745.75 203.690  15
   0   4 -10 6173.38 548.540  11
   0   4 -10 6725.45 377.060   5
   0   4 -10 6744.27 454.258  15
   0   4  -9 8071.38 694.150  11
   0   4  -9 8784.30 579.961  15
   0   4  -8 4705.27 449.988  15
   0   4  -8 4703.49 579.223  11
   0   4  -7 2462.71 277.576   6
   0   4  -7 2715.37 348.373  15
   0   4  -7 2416.12 442.919  11
   0   4  -5 3007.08 656.334  17
   0   4  -4 6887.13 867.616  17
   0   4  -3 2371.97 528.218  17
   0   4  -2 1174.34 385.251  17
   0   4  -2 1355.17 361.767  21
   0   4  -1 61681.5 1935.41  21
   0   4  -1 64010.1 2015.28  17
   0   4   0 236.067 270.727  21
   0   4   0 574.705 324.737  17
   0   4   1 58987.3 1982.72  21
   0   4   1 59983.4 1790.32  17
   0   4   2 71724.1 2287.49  21
   0   4   2 75154.1 1954.67  17
   0   4   3 31066.9 1147.94  22
   0   4   3 32748.9 1291.53  17
   0   4   3 31131.2 1623.92  21
   0   4   4 1562.74 376.653  22
   0   4   4 1526.32 469.664  21
   0   4   4 1383.70 364.186   2
   0   4   5 28815.8 1431.79   2
   0   4   5 28161.5 1566.08  22
   0   4   5 26437.4 1637.43  21
   0   4   6 7543.35 923.500  22
   0   4   6 7839.53 986.493  21
   0   4   8 606.360 226.518  18
   0   4   9 70.7201 214.667  18
   0   4  10 345.120 222.576  18
   0   4  11 5326.92 378.886  18
   0   4  12 2517.59 219.592  18
   0   5 -11 914.308 169.927  15
   0   5 -10-4.84244 201.529  11
   0   5 -10 49.9099 96.6821   5
   0   5 -10-211.195 189.043  15
   0   5  -9 1249.47 360.515  11
   0   5  -9 1648.34 300.430  15
   0   5  -8 1720.28 414.667  11
   0   5  -8 1538.67 325.327  15
   0   5  -7 1267.39 245.001   6
   0   5  -7 1715.09 298.622  15
   0   5  -7 1200.16 377.697  11
   0   5  -6 8010.29 677.017  11
   0   5  -6 8936.51 524.379   6
   0   5  -5 4128.05 807.611  17
   0   5  -4 22286.2 1679.91  17
   0   5  -3 61074.4 2533.63  17
   0   5  -2 40402.0 1851.46  21
   0   5  -2 42048.1 1964.19  17
   0   5  -1 15176.4 1155.83  17
   0   5  -1 14368.6 1133.30  21
   0   5   0 125.016 271.204  17
   0   5   0 30.4810 288.278  21
   0   5   1 8258.73 935.218  21
   0   5   1 8202.04 813.698  17
   0   5   2-234.162 323.627  21
   0   5   2-219.979 231.247  17
   0   5   3 3597.61 543.295  17
   0   5   3 3982.87 730.569  21
   0   5   4 1992.96 555.081  21
   0   5   5 8420.87 1095.04  21
   0   5   6 18944.1 1681.61  21
   0   5   7 3194.96 359.122  18
   0   5   8 9950.27 592.125  18
   0   5   9 9062.25 564.834  18
   0   5  10 10647.8 555.143  18
   0   5  11 3747.59 310.921  18
   0   5  12 777.639 128.706  18
   0   6 -10 179.208 169.169  11
   0   6 -10 1124.97 212.674  15
   0   6  -9 730.728 264.780  11
   0   6  -9 1566.03 275.919  15
   0   6  -8 5611.04 563.906  11
   0   6  -8 6773.40 515.404  15
   0   6  -7 1644.60 254.716   6
   0   6  -7 1470.49 394.960  11
   0   6  -7 1759.03 319.606  15
   0   6  -6 2625.87 322.960   6
   0   6  -6 2469.83 452.025  11
   0   6  -6 3030.17 370.666  15
   0   6  -5 172.869 291.159  11
   0   6  -5-524.411 421.508  17
   0   6  -5-306.313 187.764   6
   0   6  -5-10.9114 177.099  15
   0   6  -4 4097.01 827.406  17
   0   6  -3 2346.83 618.269  17
   0   6  -2 5070.54 815.401  17
   0   6  -1 3906.13 726.747  21
   0   6  -1 4788.78 773.355  17
   0   6   0 49188.6 2398.70  21
   0   6   0 47422.9 2165.27  17
   0   6   1 4719.83 820.774  21
   0   6   1 4501.16 686.824  17
   0   6   2 6269.35 964.487  21
   0   6   2 6484.25 792.638  17
   0   6   3 18020.4 1598.56  21
   0   6   4 23576.1 1868.59  21
   0   6   5 28609.1 2194.26  21
   0   6   6 9670.67 554.580  18
   0   6   6 9719.10 1325.32  21
   0   6   7 4013.77 398.654  18
   0   6   8 793.029 257.138  18
   0   6   9 2.68306 201.984  18
   0   6  10-263.852 190.187  18
   0   6  11 1480.25 201.431  18
   0   7 -10 2167.74 221.167  15
   0   7  -9-335.225 184.589  11
   0   7  -9-5.39493 157.865  15
   0   7  -8 260.141 238.931  11
   0   7  -8 1088.54 265.683  15
   0   7  -7-417.905 312.507  11
   0   7  -7 112.751 152.382   6
   0   7  -7-256.644 232.954  15
   0   7  -6-455.302 347.263  11
   0   7  -6 125.627 170.026   6
   0   7  -6 133.127 204.913  15
   0   7  -5 14769.0 713.341   6
   0   7  -5 17298.8 755.683  15
   0   7  -4 5320.42 450.920   6
   0   7  -4 6150.27 581.248  10
   0   7  -4 5046.81 968.823  17
   0   7  -4 5570.19 426.606  15
   0   7  -3 9454.97 567.124   6
   0   7  -3 10564.9 741.756  10
   0   7  -3 9220.52 1240.99  17
   0   7  -2 6995.36 1094.53  17
   0   7  -1 18809.6 1702.24  21
   0   7  -1 17755.2 1563.61  17
   0   7   0 2086.38 654.634  21
   0   7   0 2542.92 637.260  17
   0   7   1 10512.9 1345.27  21
   0   7   1 10062.0 1094.55  17
   0   7   2 680.194 451.300  21
   0   7   3 3376.91 818.949  21
   0   7   4 6577.01 1161.44  21
   0   7   4 8326.75 551.413   9
   0   7   5 119.361 193.368  18
   0   7   5-9.16638 185.622   9
   0   7   6 9558.75 556.924  18
   0   7   6 10088.3 611.688   9
   0   7   7 7887.42 535.142  18
   0   7   8 5416.47 435.618  18
   0   7   9 6722.16 440.720  18
   0   7  10 1222.78 207.114  18
   0   8  -9 3294.78 201.620  11
   0   8  -9 2818.44 255.170  15
   0   8  -8 95.6267 158.951  11
   0   8  -8 393.882 175.067  15
   0   8  -7 40.7760 212.345  11
   0   8  -7 599.336 213.751  15
   0   8  -6 1306.20 241.091   6
   0   8  -6 1754.28 299.638  15
   0   8  -5-387.982 290.178  11
   0   8  -5-163.669 192.579   6
   0   8  -5-248.522 200.360  15
   0   8  -4-144.162 253.117  11
   0   8  -4 29.0594 173.432   6
   0   8  -4 129.952 242.187  10
   0   8  -4-103.376 195.647  15
   0   8  -3 681.722 273.186  11
   0   8  -3 925.878 247.173   6
   0   8  -3 1059.55 339.818  10
   0   8  -2 3.36485 172.346   6
   0   8  -2 28.6207 261.961  10
   0   8  -2 374.321 345.777  17
   0   8  -1 800.303 342.922  10
   0   8  -1 75.6170 297.367  17
   0   8   0 355.830 280.689  21
   0   8   0 422.819 277.532  10
   0   8   0 450.973 333.007  17
   0   8   0 417.880 210.145   9
   0   8   1 3305.58 507.605  10
   0   8   1 1935.63 701.702  21
   0   8   1 3101.47 361.475   9
   0   8   2 1498.78 620.915  21
   0   8   2 2641.42 359.102   9
   0   8   2 2688.15 476.634  10
   0   8   3 1547.39 384.168  10
   0   8   3 1548.35 293.308   9
   0   8   4 13261.6 843.680  10
   0   8   4 13877.5 739.478   9
   0   8   5-138.916 207.203   9
   0   8   6 16798.9 705.137  18
   0   8   6 19485.5 821.738   9
   0   8   7 2451.57 308.430   9
   0   8   7 2113.89 310.359  18
   0   8   8 1088.26 227.886  18
   0   9  -7 3056.42 227.120   6
   0   9  -7 1559.54 238.022  15
   0   9  -6-26.6558 120.096   6
   0   9  -6 495.853 185.828  15
   0   9  -5-43.8611 155.268   6
   0   9  -5 261.488 176.130  15
   0   9  -4 670.710 321.651  10
   0   9  -4 1710.99 277.109   6
   0   9  -3 3470.12 378.248   6
   0   9  -3 2675.73 476.743  10
   0   9  -2 775.239 247.570   6
   0   9  -2-129.499 434.005  10
   0   9  -1 1802.24 302.846   6
   0   9  -1 1071.07 389.385  10
   0   9  -1 2176.41 309.717   9
   0   9   0 3039.83 509.735  10
   0   9   0 3897.47 411.038   9
   0   9   1 16016.0 1024.88  10
   0   9   1 15785.1 780.888   9
   0   9   2 785.197 372.993  10
   0   9   2 937.387 293.341   9
   0   9   3 1994.73 436.345  10
   0   9   3 1629.36 327.430   9
   0   9   4-134.931 269.331  10
   0   9   4 74.0160 224.386   9
   0   9   5 940.968 278.410   9
   0   9   6 363.525 218.520   9
   0   9   7 897.623 206.281   9
   0  10  -6 2231.00 176.375   6
   0  10  -5 1948.99 207.773   6
   0  10  -4-110.527 140.418   6
   0  10  -4-87.0448 271.726  10
   0  10  -3-250.131 364.701  10
   0  10  -3 324.558 176.248   6
   0  10  -2 2590.89 317.213   6
   0  10  -2 1960.03 444.001  10
   0  10  -1 185.024 183.179   9
   0  10  -1-200.388 186.996   6
   0  10   0 1906.09 303.600   6
   0  10   0 2368.23 325.507   9
   0  10   0 1677.93 455.300  10
   0  10   1 1820.12 464.777  10
   0  10   1 1819.07 323.990   9
   0  10   2 923.064 407.775  10
   0  10   2 335.926 247.084   9
   0  10   3 1523.53 419.497  10
   0  10   3 1261.51 325.587   9
   0  10   4 2704.31 365.481   9
   0  10   4 1560.25 334.472  10
   0  10   5 3694.15 381.914   9
   0  10   6 2855.65 308.913   9
   0  10   7 1288.42 179.861   9
   0  11  -4 1437.54 273.804  10
   0  11  -3 2452.45 377.810  10
   0  11  -3 248.862 117.814   6
   0  11  -2 1324.06 195.720   6
   0  11  -2 4226.80 485.748  10
   0  11  -1-54.8370 138.723   6
   0  11  -1 2257.43 464.772  10
   0  11   0 543.397 179.668   6
   0  11   0 1144.31 223.886   9
   0  11   1 1726.44 239.711   6
   0  11   1 2454.58 312.678   9
   0  11   2 2118.31 244.842   6
   0  11   2 2755.19 346.769   9
   0  11   3 2089.35 372.261  10
   0  11   3 2534.87 331.442   9
   0  11   4 3185.47 334.216   9
   0  11   5 606.398 188.700   9
   0  11   6 70.9454 108.872   9
   0  12  -2 478.013 216.741  10
   0  12  -1 1130.23 288.023  10
   0  12   0 392.425 270.357  10
   0  12   1 26.2342 241.227  10
   0  12   1 458.791 142.244   9
   0  12   2 547.518 158.224   9
   0  12   3 1227.67 184.750   9
   0  12   4 768.129 140.348   9
   1 -11  -5 138.020 110.337   3
   1 -11  -4-12.0738 122.427   3
   1 -11  -3 1180.82 176.256   3
   1 -10  -7 10.3200 119.278   3
   1 -10  -6 5425.67 353.278   3
   1 -10  -5 6237.35 411.005   3
   1  -9  -8 4175.35 289.842   3
   1  -9  -8 3824.41 252.292   4
   1  -9  -7 39.2301 199.826   3
   1  -9  -7 91.8904 132.811   4
   1  -9  -6-194.413 246.791   3
   1  -9  -6-137.099 143.058   4
   1  -9  -5 102.507 141.816   4
   1  -8  -9 810.236 165.187   3
   1  -8  -9 885.069 167.760   4
   1  -8  -8 2077.44 282.353   3
   1  -8  -8 2131.03 258.627   4
   1  -8  -7 7033.80 492.942   3
   1  -8  -7 6654.36 430.907   4
   1  -8  -6 7236.58 464.672   4
   1  -8  -5 5602.15 415.839   4
   1  -8  -4 12676.7 574.056   4
   1  -7 -10 560.422 143.455   4
   1  -7  -9 1159.42 222.265   3
   1  -7  -9 1147.98 226.270   4
   1  -7  -8 4633.15 402.677   3
   1  -7  -8 4839.59 402.823   4
   1  -7  -7 3903.33 381.593   4
   1  -7  -6 6078.31 453.046   4
   1  -7  -5 17.7240 165.211   4
   1  -7  -4 1297.21 223.387   4
   1  -6 -10 291.384 130.392  12
   1  -6 -10 344.011 164.770   4
   1  -6  -9 25.6035 132.383  12
   1  -6  -9-12.3984 181.787   4
   1  -6  -9 135.865 181.047   3
   1  -6  -8 995.939 264.607   3
   1  -6  -8 1070.72 217.172  12
   1  -6  -8 1078.23 255.212   4
   1  -6  -7 5558.56 404.331  12
   1  -6  -7 5634.10 452.709   4
   1  -6  -6 4925.84 405.323   4
   1  -6  -5 26140.3 827.183   4
   1  -5 -10 5714.27 381.479  12
   1  -5 -10 5447.23 379.209   4
   1  -5  -9 3291.78 339.747  12
   1  -5  -9 3590.92 352.834   4
   1  -5  -8 10724.8 562.805  12
   1  -5  -8 10174.0 496.590   5
   1  -5  -8 10115.7 580.920   3
   1  -5  -8 11018.7 590.270   4
   1  -5  -7 14159.7 630.407  12
   1  -5  -7 14165.6 667.547   4
   1  -5  -6 9568.94 502.860  12
   1  -5  -6 9609.84 542.903   4
   1  -4 -11 1309.22 207.452  12
   1  -4 -10 2380.32 300.841  12
   1  -4 -10 2282.04 265.095   4
   1  -4 -10 2452.05 259.832   5
   1  -4  -9 142.850 190.768  12
   1  -4  -9 304.825 160.804   5
   1  -4  -9 302.112 189.077   4
   1  -4  -8 94.3148 160.476  12
   1  -4  -8 235.306 156.688   5
   1  -4  -8 125.519 170.708   4
   1  -4  -7 328.850 187.434   4
   1  -4  -7 242.989 169.218  12
   1  -4  -7 264.568 138.604   5
   1  -4   6 5644.64 882.830  22
   1  -3 -11 3319.08 304.742  12
   1  -3 -11 3248.70 267.178   5
   1  -3 -10 12395.7 605.004  12
   1  -3 -10 11759.7 539.705   5
   1  -3 -10 11160.5 508.078   4
   1  -3  -9 11740.6 606.073  12
   1  -3  -9 10995.1 545.345   5
   1  -3  -9 11385.6 567.915   4
   1  -3  -8 6097.47 445.066  12
   1  -3  -8 5058.38 379.853   5
   1  -3  -8 5280.23 410.356   4
   1  -3  -7 13677.8 615.559  12
   1  -3  -7 12933.8 581.826   4
   1  -3   7 5505.81 980.671  22
   1  -3   8 3046.58 808.818  22
   1  -2 -12 2383.37 190.502   5
   1  -2 -11 2901.93 298.444  12
   1  -2 -11 2761.21 271.044   5
   1  -2 -10 13632.9 633.573  12
   1  -2 -10 13079.2 588.099   5
   1  -2  -9-182.334 199.285  12
   1  -2  -9-6.08660 156.678   5
   1  -2  -8 347.612 181.654  12
   1  -2  -8 189.906 143.633   5
   1  -2  -8 147.689 133.029   4
   1  -2   4 4248.55 390.082  20
   1  -2   8 4659.95 999.012  22
   1  -1 -12 686.213 135.978   5
   1  -1 -11 2506.23 271.619  12
   1  -1 -11 2682.49 271.986   5
   1  -1 -10 671.585 216.429  12
   1  -1 -10 813.889 216.545   5
   1  -1 -10 628.013 292.196  11
   1  -1  -9 11345.6 601.760  12
   1  -1  -9 10177.5 553.034   5
   1  -1  -8 23024.1 819.854  12
   1  -1  -8 21710.1 745.288   5
   1  -1   3 96070.9 1273.33  20
   1  -1   8 8414.15 1282.51  22
   1   0 -12 3877.00 251.068   5
   1   0 -11 4005.72 310.379  12
   1   0 -11 4298.84 332.243   5
   1   0 -10-1.81512 155.608  12
   1   0 -10-93.4917 166.738   5
   1   0 -10-160.296 275.621  11
   1   0  -9 6365.18 446.362  12
   1   0  -9 6089.90 606.178  11
   1   0  -9 5548.35 424.358   5
   1   0  -8 3270.40 324.262  12
   1   0   8 20819.8 1975.08  22
   1   0  11 3869.65 294.207  18
   1   1 -12 110.768 99.8455   5
   1   1 -11 702.791 187.185   5
   1   1 -10 742.820 188.859  12
   1   1 -10 911.557 312.493  11
   1   1 -10 827.841 218.587   5
   1   1  -9 12063.7 574.357  12
   1   1  -9 11143.3 777.459  11
   1   1  -8 65503.3 1289.44  12
   1   1  -8 64146.2 1788.35  11
   1   1   3 2726.67 213.284   2
   1   1   4 296.597 127.665   2
   1   1   4 368.491 196.211  21
   1   1   5 5231.72 381.728   2
   1   1   5 5221.03 482.402  21
   1   1   8 24164.7 2104.32  22
   1   1  11 5392.10 369.716  18
   1   1  12 377.944 129.025  18
   1   2 -12 852.940 126.876   5
   1   2 -11 3357.00 281.824   5
   1   2 -10 3784.20 447.038  11
   1   2 -10 4292.82 349.501   5
   1   2  -9 912.698 343.196  11
   1   2  -9 1195.83 256.942  15
   1   2  -8 319.399 332.031  11
   1   2  -8 12.3061 172.488  15
   1   2  -3 19080.0 1057.46  17
   1   2  -2 25433.7 533.643  21
   1   2  -1 21973.3 629.584  21
   1   2   0 64592.3 1238.03  17
   1   2   1 999999. 3743.07  17
   1   2   2 145130. 2168.21  21
   1   2   2 124577. 994.797  17
   1   2   3 13933.5 581.427   2
   1   2   3 13792.9 755.370  21
   1   2   4 9289.07 522.928   2
   1   2   4 9088.50 671.846  21
   1   2   5 26063.4 939.079   2
   1   2   5 25954.1 1197.62  21
   1   2   6 2304.14 420.712  21
   1   2   8 3500.11 808.927  22
   1   2  10 5348.51 422.604  18
   1   2  11 210.568 171.494  18
   1   2  12 1520.77 196.763  18
   1   3 -12-52.7393 65.6391   5
   1   3 -11 118.671 124.813   5
   1   3 -10 2622.13 278.393   5
   1   3 -10 1906.89 272.322  15
   1   3 -10 2392.83 361.286  11
   1   3  -9 1701.13 368.716  11
   1   3  -9 1860.21 313.432  15
   1   3  -8 2987.43 478.014  11
   1   3  -8 3209.85 357.048  15
   1   3  -7 18918.3 674.182   6
   1   3  -7 21470.3 1044.77  11
   1   3  -4 100300. 2914.89  17
   1   3  -3 9139.13 838.482  17
   1   3  -2 19757.5 1069.01  17
   1   3  -2 19713.0 728.700  21
   1   3  -1 13272.4 672.858  21
   1   3  -1 12629.4 772.165  17
   1   3   0-29.6955 178.944  21
   1   3   0-58.8098 184.032  17
   1   3   1 3519.23 425.053  21
   1   3   1 3526.12 362.159  17
   1   3   2 30205.6 1214.18  21
   1   3   2 28552.9 819.913  17
   1   3   3 773.533 315.229  21
   1   3   3 458.274 118.792  17
   1   3   4 36415.6 1522.05  21
   1   3   5 22544.0 1303.48  21
   1   3   6 22579.6 1401.00  21
   1   3   7 18088.2 1627.44  22
   1   3   8 21467.0 1934.14  22
   1   3   9 23132.3 854.576  18
   1   3  10 17825.0 724.356  18
   1   3  11 257.101 187.489  18
   1   3  12 71.4826 129.335  18
   1   4 -11 2430.81 199.130   5
   1   4 -11 1702.10 182.007  15
   1   4 -10 6619.56 483.506  11
   1   4 -10 7710.14 410.470   5
   1   4 -10 7786.64 472.992  15
   1   4  -9 768.999 301.740  11
   1   4  -9 1264.78 273.175  15
   1   4  -8 1794.45 402.456  11
   1   4  -8 1625.30 303.025  15
   1   4  -7 502.630 195.660   6
   1   4  -7 380.724 198.548  15
   1   4  -7 445.996 286.088  11
   1   4  -4 12615.0 1180.66  17
   1   4  -3 21886.9 1392.25  17
   1   4  -2 34381.9 1247.02  21
   1   4  -2 34644.9 1602.96  17
   1   4  -1 598.016 279.850  21
   1   4  -1 365.066 277.564  17
   1   4   0 18211.0 1021.86  21
   1   4   0 16497.1 912.253  17
   1   4   1 33997.0 1402.91  21
   1   4   1 32977.5 1188.36  17
   1   4   2 41305.9 1224.59  17
   1   4   2 42170.7 1676.64  21
   1   4   3 47478.0 1201.26  17
   1   4   3 50618.2 1903.66  21
   1   4   4 29345.0 1567.66  21
   1   4   5 26900.2 1506.02  22
   1   4   5 27158.6 1620.83  21
   1   4   6 212.719 233.431  22
   1   4   6-210.027 188.765  21
   1   4   7 1964.17 516.765  22
   1   4   8 370.760 225.134  18
   1   4   9 2848.20 361.214  18
   1   4  10 94.4160 217.297  18
   1   4  11 503.478 200.535  18
   1   4  12 2778.41 246.521  18
   1   5 -11 388.478 109.436  15
   1   5 -10-20.9952 105.287   5
   1   5 -10-155.367 179.176  15
   1   5  -9 362.077 241.074  11
   1   5  -9 402.590 229.834  15
   1   5  -8 194.932 274.718  11
   1   5  -8 58.2196 207.597  15
   1   5  -7 1443.28 253.638   6
   1   5  -7 1114.75 371.317  11
   1   5  -7 1487.65 288.615  15
   1   5  -6 6388.31 601.666  11
   1   5  -6 7461.84 487.385   6
   1   5  -6 7657.86 505.801  15
   1   5  -6 7561.71 488.137  16
   1   5  -4 687.717 413.216  17
   1   5  -3 38571.5 2045.08  17
   1   5  -2 28314.6 1394.78  21
   1   5  -2 27668.4 1617.71  17
   1   5  -1 37387.4 1650.59  21
   1   5  -1 36908.6 1692.25  17
   1   5   0 8748.16 801.231  17
   1   5   0 7951.35 837.424  21
   1   5   1 34159.9 1711.65  21
   1   5   1 30409.9 1346.70  17
   1   5   2 403.084 369.708  21
   1   5   2 292.906 210.720  17
   1   5   3 12949.9 1161.93  21
   1   5   4 2090.21 569.792  21
   1   5   5 10131.0 1178.43  21
   1   5   6 33824.5 2139.28  21
   1   5   7 13598.1 645.807  18
   1   5   8 4608.53 425.824  18
   1   5   9 11212.3 622.499  18
   1   5  10 4538.21 411.397  18
   1   5  11 1023.84 231.109  18
   1   5  12 825.112 157.374  18
   1   6 -10 858.503 182.996  15
   1   6  -9 1141.64 262.528  11
   1   6  -9 2171.01 313.822  15
   1   6  -8 5581.43 509.660  11
   1   6  -8 8358.58 553.503  15
   1   6  -7 4033.79 487.042  11
   1   6  -7 3682.92 354.703   6
   1   6  -6 1600.22 383.078  11
   1   6  -6 1541.91 283.202   6
   1   6  -6 1700.48 281.077  16
   1   6  -6 2404.16 334.327  15
   1   6  -5 200.135 300.746  11
   1   6  -5 83.1059 188.762   6
   1   6  -5 280.949 184.491  15
   1   6  -4 4606.08 873.393  17
   1   6  -3 2743.34 669.086  17
   1   6  -2 4266.86 741.722  17
   1   6  -1 130.121 251.003  21
   1   6  -1 452.137 327.628  17
   1   6   0 45425.6 2163.20  21
   1   6   0 43098.2 1938.76  17
   1   6   1 7337.14 936.791  21
   1   6   1 7264.90 776.677  17
   1   6   2 43194.9 2259.11  21
   1   6   3 12418.8 1304.35  21
   1   6   4 46809.6 2532.15  21
   1   6   5 6793.25 1039.54  21
   1   6   6 14399.4 1536.71  21
   1   6   6 15476.2 695.847  18
   1   6   7 10097.3 589.253  18
   1   6   8 1293.19 291.502  18
   1   6   9 1125.06 283.585  18
   1   6  10 124.165 199.015  18
   1   6  11 1596.85 232.635  18
   1   7 -10 454.925 129.000  15
   1   7  -9-71.7897 174.251  15
   1   7  -8 391.156 210.232  11
   1   7  -8 1602.29 293.328  15
   1   7  -7 1058.53 226.874   6
   1   7  -7 1208.16 294.373  15
   1   7  -6 976.894 240.117   6
   1   7  -6 1139.80 290.649  15
   1   7  -5 11287.3 642.248   6
   1   7  -5 13277.9 669.156  15
   1   7  -4 1016.23 261.496   6
   1   7  -4 568.475 385.461  17
   1   7  -4 1196.92 254.102  15
   1   7  -3 9840.77 590.670   6
   1   7  -3 10402.3 1326.30  17
   1   7  -2 16832.6 1562.10  17
   1   7  -1 40150.4 2311.91  21
   1   7  -1 38161.9 2211.59  17
   1   7   0 4988.57 919.001  21
   1   7   0 5268.74 810.011  17
   1   7   1 4705.45 919.358  21
   1   7   1 4350.89 714.337  17
   1   7   2 1158.03 532.262  21
   1   7   3 484.835 401.306  21
   1   7   4-38.8876 327.552  21
   1   7   5 4139.32 941.003  21
   1   7   5 5073.51 426.790  18
   1   7   5 5079.53 455.663   9
   1   7   6 12247.5 665.749   9
   1   7   6 12054.9 644.256  18
   1   7   7 13438.4 692.691  18
   1   7   8 2157.05 339.886  18
   1   7   9 5754.31 456.091  18
   1   7  10 3668.80 332.831  18
   1   8  -9 928.750 162.320  15
   1   8  -8 1393.52 196.856  11
   1   8  -8 359.605 178.835  15
   1   8  -7 2193.83 256.653   6
   1   8  -7 2206.69 305.515  15
   1   8  -6 225.398 220.761  11
   1   8  -6 705.771 215.456   6
   1   8  -6 928.243 258.331  15
   1   8  -5-428.320 249.682  11
   1   8  -5 2.95175 187.893  15
   1   8  -5-65.6294 197.272   6
   1   8  -4-78.6638 252.580  11
   1   8  -4 289.253 208.362   6
   1   8  -4-344.544 354.150  10
   1   8  -4 266.730 192.720  15
   1   8  -3 412.581 260.553  11
   1   8  -3 224.329 199.665   6
   1   8  -2 538.124 218.917   6
   1   8  -2-298.633 398.264  10
   1   8  -2-23.6042 364.071  17
   1   8  -1 4832.23 573.778  10
   1   8  -1 3433.65 746.836  17
   1   8   0 3650.39 851.344  21
   1   8   0 3754.25 517.462  10
   1   8   0 4010.39 770.114  17
   1   8   0 3927.26 395.237   9
   1   8   1 13040.9 1585.65  21
   1   8   1 15110.4 934.663  10
   1   8   1 14353.8 694.124   9
   1   8   2 15115.4 934.603  10
   1   8   2 14324.3 720.583   9
   1   8   3 5303.83 1120.36  21
   1   8   3 6900.19 668.737  10
   1   8   3 7283.34 533.497   9
   1   8   4 15934.3 944.460  10
   1   8   4 16243.9 802.267   9
   1   8   5 10974.1 776.540  10
   1   8   5 11606.9 691.030   9
   1   8   6 27380.7 942.670  18
   1   8   6 31775.2 1053.33   9
   1   8   7 3623.65 374.447   9
   1   8   7 3175.29 375.502  18
   1   8   8 1114.27 260.893  18
   1   9  -8 1927.59 194.491  15
   1   9  -7 3186.14 235.099   6
   1   9  -7 917.060 186.800  15
   1   9  -6-4.11185 136.698   6
   1   9  -6-26.1823 151.100  15
   1   9  -5-71.4306 164.147   6
   1   9  -5-86.4682 160.005  15
   1   9  -4 2614.27 343.217   6
   1   9  -4 2319.68 401.287  10
   1   9  -3 3007.57 373.441   6
   1   9  -3 2541.69 437.060  10
   1   9  -2 5642.00 485.304   6
   1   9  -2 5954.83 644.948  10
   1   9  -1 4559.65 443.130   6
   1   9  -1 4720.21 605.034  10
   1   9  -1 4861.54 433.133   9
   1   9   0 4404.53 595.742  10
   1   9   0 5145.89 455.710   9
   1   9   1 5243.95 640.246  10
   1   9   1 5689.42 495.160   9
   1   9   2 3968.82 583.432  10
   1   9   2 3620.29 422.564   9
   1   9   3 800.531 387.482  10
   1   9   3 460.577 246.248   9
   1   9   4 4543.28 562.406  10
   1   9   4 4780.36 495.863   9
   1   9   5 10933.8 660.824   9
   1   9   6 572.838 242.282   9
   1   9   7 5863.05 430.234   9
   1  10  -6 785.571 139.415   6
   1  10  -5 539.467 166.748   6
   1  10  -4-191.398 166.508   6
   1  10  -4 1026.68 328.653  10
   1  10  -3-62.0477 178.354   6
   1  10  -3 422.258 339.095  10
   1  10  -2-105.861 190.049   6
   1  10  -2 79.0033 337.070  10
   1  10  -1 5.91018 186.038   6
   1  10  -1 115.421 353.841  10
   1  10  -1-56.1737 171.583   9
   1  10   0 1221.12 275.950   6
   1  10   0 2236.22 515.347  10
   1  10   0 1540.72 299.314   9
   1  10   1 2991.80 549.966  10
   1  10   1 1729.75 324.768   9
   1  10   2 4926.67 647.086  10
   1  10   2 3685.27 423.501   9
   1  10   3 2576.52 505.956  10
   1  10   3 2618.82 370.829   9
   1  10   4 1236.12 346.223  10
   1  10   4 2163.39 360.087   9
   1  10   5 5054.11 455.050   9
   1  10   6 404.748 204.059   9
   1  10   7 2738.29 265.803   9
   1  11  -5 427.526 94.5785   6
   1  11  -4-35.2758 103.145   6
   1  11  -3 78.3107 131.772   6
   1  11  -3 1993.16 351.891  10
   1  11  -2 841.487 202.406   6
   1  11  -2 3847.82 487.748  10
   1  11  -1 3678.15 517.737  10
   1  11  -1 427.066 192.080   6
   1  11   0 1.31169 160.946   6
   1  11   0-43.1331 168.120   9
   1  11   1-28.8166 158.934   6
   1  11   1 121.267 188.572   9
   1  11   2 5341.37 596.089  10
   1  11   2 4472.86 427.428   9
   1  11   3 39.2626 345.556  10
   1  11   3 828.461 259.978   9
   1  11   4-16.6210 203.656   9
   1  11   5 64.8151 176.637   9
   1  11   6 190.893 141.791   9
   1  12  -2-88.8622 84.8388   6
   1  12  -2-367.633 230.567  10
   1  12  -1 661.413 138.060   6
   1  12  -1 924.262 288.184  10
   1  12   0-201.828 127.008   6
   1  12   0-230.197 284.859  10
   1  12   1 476.913 138.677   6
   1  12   1 128.609 287.726  10
   1  12   1 879.266 175.289   9
   1  12   2 591.089 141.830   6
   1  12   2 1006.01 196.666   9
   1  12   3 254.175 110.804   6
   1  12   3 261.754 152.370   9
   1  12   4 994.862 183.906   9
   2 -11  -4 382.665 109.819   3
   2 -11  -3 306.172 113.413   3
   2 -10  -6 1612.28 192.721   3
   2 -10  -5 1994.44 243.572   3
   2  -9  -8 4234.64 224.686   3
   2  -9  -8 3930.96 197.612   4
   2  -9  -7 727.415 188.747   3
   2  -9  -7 726.981 147.662   4
   2  -9  -6 2015.69 219.916   4
   2  -9  -5 999.584 185.455   4
   2  -8  -9 663.160 122.074   4
   2  -8  -8 3274.08 275.975   3
   2  -8  -8 3107.56 264.847   4
   2  -8  -7 8224.63 485.034   3
   2  -8  -7 8067.50 437.003   4
   2  -8  -6 749.498 208.005   4
   2  -8  -5 13230.3 578.865   4
   2  -8  -4 9227.54 495.796   4
   2  -7 -10 3665.78 196.267   4
   2  -7  -9 1547.16 210.144   4
   2  -7  -8 8087.65 461.153   3
   2  -7  -8 8759.52 473.547   4
   2  -7  -7 6800.23 461.610   4
   2  -7  -6-11.8734 185.053   4
   2  -7  -5 593.720 209.056   4
   2  -7  -4-25.7946 148.315   4
   2  -7  -3-44.2699 141.015   4
   2  -6 -10 210.175 117.441   4
   2  -6  -9 93.3245 119.936  12
   2  -6  -9 27.3777 158.638   4
   2  -6  -8 4614.35 343.706  12
   2  -6  -8 4861.21 391.209   3
   2  -6  -8 5877.46 428.392   4
   2  -6  -7 9820.41 498.958  12
   2  -6  -7 10531.0 569.265   4
   2  -6  -6 11355.8 606.616   4
   2  -6  -5 12306.4 613.671   4
   2  -5 -10 3514.32 279.153  12
   2  -5 -10 3738.76 283.905   4
   2  -5  -9 2009.07 256.216  12
   2  -5  -9 2122.66 282.369   4
   2  -5  -8 2175.01 287.156  12
   2  -5  -8 2022.56 287.728   3
   2  -5  -8 2328.71 313.158   4
   2  -5  -7 9581.98 526.810  12
   2  -5  -7 9365.75 556.262   4
   2  -5  -6 4675.03 377.532  12
   2  -5  -6 4364.92 392.729   4
   2  -4 -11 646.110 146.797  12
   2  -4 -10 553.666 187.839  12
   2  -4 -10 417.893 161.217   4
   2  -4  -9-222.581 198.616  12
   2  -4  -9-34.1562 121.520   5
   2  -4  -9 141.592 173.209   4
   2  -4  -8 511.541 204.991   4
   2  -4  -8 680.090 223.771  12
   2  -4  -7 59.1203 168.874   4
   2  -4  -7 210.452 187.526  12
   2  -4  -6 28328.6 864.428  12
   2  -3 -11 7520.30 377.474  12
   2  -3 -10 5779.03 405.427  12
   2  -3 -10 6088.84 355.532   5
   2  -3 -10 5724.20 349.198   4
   2  -3  -9 9117.90 548.587  12
   2  -3  -9 10271.7 495.779   5
   2  -3  -9 9445.42 498.851   4
   2  -3  -8 15120.1 682.813  12
   2  -3  -8 14568.5 597.413   5
   2  -3  -8 14383.2 632.954   4
   2  -3  -7 14823.2 668.716  12
   2  -3  -7 14383.3 572.894   5
   2  -3  -7 14041.5 634.392   4
   2  -3   8 4548.08 924.878  22
   2  -2 -11 5070.56 331.573  12
   2  -2 -11 5485.46 303.699   5
   2  -2 -10 1494.38 259.174  12
   2  -2 -10 1510.59 221.667   5
   2  -2  -9 673.781 225.183  12
   2  -2  -9 595.314 187.712   5
   2  -2  -9 617.962 186.901   4
   2  -2  -8 544.674 183.753   4
   2  -2  -8 667.848 208.557  12
   2  -2  -8 563.883 176.754   5
   2  -2  -7 5483.58 430.018  12
   2  -2  -7 5271.56 363.880   5
   2  -2  -7 4861.28 364.791   4
   2  -1 -12 514.759 96.2845   5
   2  -1 -11-113.868 143.404  12
   2  -1 -11-3.24552 118.460   5
   2  -1 -10 6422.95 430.018  12
   2  -1 -10 6433.17 405.282   5
   2  -1  -9 17935.9 737.013  12
   2  -1  -9 17914.3 687.875   5
   2  -1  -8 7216.22 494.915  12
   2  -1  -8 7431.66 455.864   5
   2  -1  -7 3389.06 339.377  12
   2   0 -12 2463.64 171.032   5
   2   0 -11 3914.01 282.530  12
   2   0 -11 4495.85 300.623   5
   2   0 -10 986.592 216.832  12
   2   0 -10 1029.81 216.686   5
   2   0  -9 4308.63 381.956  12
   2   0  -9 3995.50 363.677   5
   2   0  -8 450.095 198.247  12
   2   1 -12 13.4451 75.8544   5
   2   1 -11 1003.90 180.702   5
   2   1 -10 1028.48 196.004  12
   2   1 -10 1041.93 221.193   5
   2   1  -9 55.6577 138.656  12
   2   1  -8 4859.25 398.936  12
   2   1   9-441.982 186.238  18
   2   1  10 10004.7 509.868  18
   2   1  11 466.192 165.922  18
   2   2 -12 3773.31 182.984   5
   2   2 -11 1428.29 189.047   5
   2   2 -10 4827.31 366.635   5
   2   2  -9 2792.95 318.970  15
   2   2  -8 635.836 234.510  15
   2   2  -7 8902.32 467.766   6
   2   2  -7 5190.33 403.537  15
   2   2   5 23581.3 1193.38  21
   2   2   6 92.6695 153.407  21
   2   2   9 21270.2 758.558  18
   2   2  10 188.381 182.794  18
   2   2  11 5549.84 389.451  18
   2   2  12 3765.93 269.058  18
   2   3 -11 903.337 158.512   5
   2   3 -10 927.046 201.959   5
   2   3 -10 425.693 183.252  15
   2   3  -9 528.592 213.868  15
   2   3  -8 10625.4 600.871  15
   2   3  -7 49243.1 1061.64   6
   2   3  -7 60075.7 1336.38  15
   2   3  -2 2981.06 291.638  21
   2   3  -1 19745.6 822.605  21
   2   3  -1 19604.6 997.785  17
   2   3   0 345.153 223.267  17
   2   3   1 250900. 2702.35  17
   2   3   3 1694.60 377.365  21
   2   3   4 28394.8 1347.82  21
   2   3   5 645.780 299.498  21
   2   3   6 12062.3 1030.63  21
   2   3   8 20982.8 1919.47  22
   2   3   8 27039.3 840.940  18
   2   3   9 16427.2 702.861  18
   2   3  10 6729.01 467.678  18
   2   3  11 8502.16 482.968  18
   2   3  12 1946.34 218.860  18
   2   4 -11 1170.72 142.576   5
   2   4 -10 3028.29 270.650   5
   2   4 -10 3081.14 303.910  15
   2   4  -9 3236.00 366.515  15
   2   4  -8 13183.5 551.487   6
   2   4  -8 911.849 255.493  15
   2   4  -7 1702.18 272.519   6
   2   4  -7 919.111 227.427  16
   2   4  -7 1024.60 268.345  15
   2   4  -6 3440.00 329.558   6
   2   4  -6 3902.79 371.052  16
   2   4  -6 3307.86 341.592  15
   2   4  -2 52627.1 1466.20  21
   2   4  -2 52491.4 2011.06  17
   2   4  -1 3062.45 427.435  21
   2   4  -1 3111.14 517.836  17
   2   4   0 77688.0 1997.68  21
   2   4   0 76243.9 2000.81  17
   2   4   1 46627.7 1629.01  21
   2   4   1 45157.5 1368.15  17
   2   4   2 133438. 2875.76  21
   2   4   2 119690. 1851.98  17
   2   4   3 49012.9 1870.24  21
   2   4   4 14343.2 1111.29  21
   2   4   5 3904.63 650.865  21
   2   4   6 2331.99 551.554  21
   2   4   7 338.427 290.900  21
   2   4   8 601.676 227.675  18
   2   4   9 4876.42 442.906  18
   2   4  10 10325.3 574.793  18
   2   4  11 2853.41 309.444  18
   2   4  12 1726.88 207.185  18
   2   5 -10 117.853 111.152   5
   2   5 -10-38.9724 161.574  15
   2   5  -9 870.482 243.304  15
   2   5  -8 9009.58 468.689   6
   2   5  -8 504.247 245.809  15
   2   5  -7 2612.16 310.184   6
   2   5  -7 2848.14 340.007  16
   2   5  -7 2936.96 371.263  15
   2   5  -6 4215.02 380.295   6
   2   5  -6 4177.85 412.964  16
   2   5  -6 4129.68 399.072  15
   2   5  -3 37141.8 2021.62  17
   2   5  -2 17372.5 1298.44  17
   2   5  -1 4715.30 604.587  21
   2   5  -1 4962.97 674.154  17
   2   5   0 2614.57 500.387  21
   2   5   0 2747.21 492.390  17
   2   5   1 209.466 203.643  17
   2   5   1 415.007 301.475  21
   2   5   2 950.202 394.318  21
   2   5   3 560.198 390.957  21
   2   5   4 5498.51 830.893  21
   2   5   5 31367.4 1939.53  21
   2   5   6 11663.9 1282.64  21
   2   5   7 19945.7 1710.64  21
   2   5   7 22892.9 817.040  18
   2   5   8 9776.94 586.627  18
   2   5   9 16006.6 736.463  18
   2   5  10 10689.1 587.154  18
   2   5  11 5355.26 389.164  18
   2   5  12 1544.39 196.357  18
   2   6 -10 1026.13 121.226   5
   2   6 -10 883.999 167.021  15
   2   6  -9 2270.88 300.039  15
   2   6  -8 11318.7 509.329   6
   2   6  -8 3192.52 373.227  15
   2   6  -7 2510.29 304.921   6
   2   6  -7 3113.57 381.391  15
   2   6  -6-232.306 290.299  11
   2   6  -6 279.748 177.453   6
   2   6  -6 354.383 194.893  16
   2   6  -6 229.029 217.804  15
   2   6  -5 124.691 272.886  11
   2   6  -5 523.426 208.037   6
   2   6  -5 560.202 201.713  16
   2   6  -5 628.590 229.125  15
   2   6  -3 5473.95 884.348  17
   2   6  -2 21671.3 1590.54  17
   2   6  -1 17938.0 1295.12  21
   2   6  -1 16754.4 1312.27  17
   2   6   0 2942.58 587.111  21
   2   6   0 3319.79 608.993  17
   2   6   1 676.817 400.544  21
   2   6   1 478.414 259.969  17
   2   6   2 19445.3 1490.96  21
   2   6   3 4462.30 800.589  21
   2   6   4 37284.1 2253.38  21
   2   6   5 919.867 522.764  21
   2   6   6 301.955 206.741  18
   2   6   6-47.1857 336.653  21
   2   6   7-23.0141 287.307  21
   2   6   7 629.937 254.189  18
   2   6   8 91.3060 215.354  18
   2   6   9 730.616 271.241  18
   2   6  10 5115.49 432.775  18
   2   6  11 936.499 219.002  18
   2   7  -9 7.19765 152.872  15
   2   7  -8 10263.8 442.830   6
   2   7  -8 170.670 217.623  15
   2   7  -7 444.149 184.248   6
   2   7  -7 661.115 252.657  15
   2   7  -6 455.525 214.410   6
   2   7  -6 535.333 191.231  16
   2   7  -6 713.619 265.004  15
   2   7  -5 2292.96 323.854   6
   2   7  -5 1894.70 285.740  16
   2   7  -5 2233.00 321.608  15
   2   7  -4 6072.05 488.839   6
   2   7  -4 5501.74 447.113  16
   2   7  -4 5881.53 447.991  15
   2   7  -3 3276.92 378.663   6
   2   7  -3 2909.31 328.231  16
   2   7  -2 9537.23 1195.78  17
   2   7  -1 16565.2 1455.80  17
   2   7   0 7990.92 1035.74  21
   2   7   0 6838.88 893.329  17
   2   7   1 4230.67 818.684  21
   2   7   2 3054.02 725.540  21
   2   7   3 537.280 407.181  21
   2   7   4 124.284 363.892  21
   2   7   5 7237.36 1207.53  21
   2   7   5 8201.57 683.263  10
   2   7   5 7462.58 530.956  18
   2   7   5 8546.48 549.422   9
   2   7   6 1243.06 299.860  18
   2   7   6 1300.98 268.890   9
   2   7   7 6452.90 517.788  18
   2   7   8 6154.99 498.376  18
   2   7   9 1977.02 328.729  18
   2   7  10 6159.09 431.914  18
   2   8  -9 762.011 130.591  15
   2   8  -8 13443.4 411.648   6
   2   8  -8 296.437 165.998  15
   2   8  -7 3733.27 286.453  11
   2   8  -7 3803.10 307.900   6
   2   8  -7 3740.71 348.587  15
   2   8  -6 2307.38 284.859  11
   2   8  -6 2928.81 331.168   6
   2   8  -6 3247.98 301.837  16
   2   8  -6 3678.76 376.723  15
   2   8  -5 1289.30 266.054  11
   2   8  -5 1712.65 306.043   6
   2   8  -5 1580.14 242.208  16
   2   8  -5 2016.47 311.003  15
   2   8  -4 297.716 218.873  11
   2   8  -4 93.5329 192.488   6
   2   8  -4 70.2989 120.831  16
   2   8  -4-16.7358 175.263  15
   2   8  -3 1056.04 265.411   6
   2   8  -3 606.909 300.293  10
   2   8  -3 796.225 193.890  16
   2   8  -2 2114.04 337.545   6
   2   8  -2 1434.48 354.334  10
   2   8  -2 2597.27 661.877  17
   2   8  -1 2068.11 412.624  10
   2   8  -1 2019.28 572.115  17
   2   8   0 1644.99 555.112  21
   2   8   0 2462.76 443.568  10
   2   8   0 2525.82 329.213   9
   2   8   1 5885.68 1049.38  21
   2   8   1 7679.15 683.101  10
   2   8   1 6988.47 500.679   9
   2   8   2 11005.6 1422.89  21
   2   8   2 13093.1 869.794  10
   2   8   2 11864.0 683.863   9
   2   8   3 8780.03 1325.63  21
   2   8   3 9029.54 752.628  10
   2   8   3 9412.30 600.506   9
   2   8   4-120.425 285.735  10
   2   8   4-66.4754 224.374   9
   2   8   5 21098.5 903.173   9
   2   8   6 7204.51 547.250   9
   2   8   7 4805.36 437.152   9
   2   8  11 90.2033 85.8402  19
   2   9  -8 515.515 115.502  15
   2   9  -7 3532.32 242.045   6
   2   9  -7 541.930 158.313  15
   2   9  -6 660.052 182.444   6
   2   9  -6 452.936 181.249  15
   2   9  -5 607.621 213.419   6
   2   9  -5 430.657 186.537  15
   2   9  -4 21634.9 718.914  11
   2   9  -4 4088.04 416.935   6
   2   9  -3 5376.44 485.471   6
   2   9  -3 6202.58 601.546  10
   2   9  -2 4740.07 456.561   6
   2   9  -2 4834.04 580.919  10
   2   9  -1 3550.88 407.308   6
   2   9  -1 4040.94 564.971  10
   2   9  -1 2960.10 355.433   9
   2   9   0 15887.6 997.926  10
   2   9   0 14615.0 738.572   9
   2   9   1 3718.61 572.583  10
   2   9   1 2840.61 388.425   9
   2   9   2 6350.17 689.192  10
   2   9   2 5925.90 536.409   9
   2   9   3 582.189 233.519  19
   2   9   3 1172.45 415.102  10
   2   9   3 765.772 284.714   9
   2   9   4 12.6065 193.452  19
   2   9   4-80.7612 320.168  10
   2   9   4 90.1557 222.032   9
   2   9   5 127.038 237.624   9
   2   9   6 893.435 283.950   9
   2   9   7 4288.20 385.761   9
   2   9  10 691.453 122.814  19
   2  10  -6 1309.21 163.626   6
   2  10  -5 488.839 163.643   6
   2  10  -4-234.017 179.819   6
   2  10  -3 160.796 197.986   6
   2  10  -3 2527.02 434.053  10
   2  10  -2 2328.92 480.646  10
   2  10  -2 228.720 214.459   6
   2  10  -1 145.260 207.482   6
   2  10  -1 302.325 185.847   9
   2  10   0 1301.77 289.083   6
   2  10   0 1373.70 292.038   9
   2  10   1 3866.92 635.011  10
   2  10   1 846.108 276.075   9
   2  10   2 6069.45 711.355  10
   2  10   2 4520.95 456.729   9
   2  10   3 4660.92 621.508  10
   2  10   3 4537.99 489.670   9
   2  10   4 1387.99 259.131  19
   2  10   4 1941.05 356.505   9
   2  10   5 3552.66 360.673  19
   2  10   5 5473.29 485.714   9
   2  10   6 3368.04 336.628  19
   2  10   6 4121.81 401.658   9
   2  10   7 5324.30 359.345  19
   2  10   7 5667.98 380.147   9
   2  10   8 1636.78 196.568  19
   2  11  -5 518.994 101.726   6
   2  11  -4-87.9653 118.337   6
   2  11  -3 98.5763 143.036   6
   2  11  -3-249.771 254.946  10
   2  11  -2 772.075 210.994   6
   2  11  -2 1708.65 393.929  10
   2  11  -1 2366.13 300.720   6
   2  11  -1 3840.74 526.576  10
   2  11   0 1177.45 254.806   6
   2  11   0 1669.99 271.262   9
   2  11   1 525.363 215.155   6
   2  11   1 699.383 241.665   9
   2  11   2 1176.50 431.665  10
   2  11   2 1234.69 290.457   9
   2  11   3 1842.17 318.300   9
   2  11   4 212.953 211.835   9
   2  11   5 295.538 194.044   9
   2  11   6 376.208 163.320   9
   2  12  -3-55.8751 70.0486   6
   2  12  -2-109.304 103.987   6
   2  12  -1 39.5542 116.204   6
   2  12   0-104.339 137.320   6
   2  12   1 176.868 144.546   6
   2  12   2 1671.46 217.577   6
   2  12   3 388.746 142.761   6
   2  12   3 491.767 181.250   9
   2  12   4 1039.71 164.037   6
   2  12   5 285.054 98.9188   6
   3 -10  -5 1017.95 159.070   3
   3  -9  -7 283.741 116.082   3
   3  -9  -6 1945.81 235.161   3
   3  -9  -6 1658.09 167.262   4
   3  -9  -5 73.0675 115.728   4
   3  -8  -8 2972.14 198.779   3
   3  -8  -8 3036.98 207.850   4
   3  -8  -7 5630.00 355.201   3
   3  -8  -7 5624.11 325.195   4
   3  -8  -6 488.877 170.216   4
   3  -8  -5 3049.60 293.111   4
   3  -8  -4 4370.61 336.051   4
   3  -7  -9 3803.75 227.068   4
   3  -7  -8 3002.69 257.089   3
   3  -7  -8 3061.17 272.270   4
   3  -7  -7 9904.57 490.012   4
   3  -7  -6 4082.06 369.801   4
   3  -7  -5 200.805 176.888   4
   3  -7  -4 3535.81 340.393   4
   3  -7  -3 1486.96 240.299   4
   3  -6  -9-18.9537 82.8055  12
   3  -6  -9-39.3824 125.997   4
   3  -6  -8 1977.07 215.266  12
   3  -6  -8 1950.07 248.652   3
   3  -6  -8 2104.94 277.476   4
   3  -6  -7 5698.95 429.029   4
   3  -6  -6 9706.98 547.376   4
   3  -6  -5 1689.58 276.422   4
   3  -6  -3 18682.3 748.473  14
   3  -5 -10 2632.33 197.270  12
   3  -5 -10 2689.80 201.993   4
   3  -5  -9 7106.95 378.456  12
   3  -5  -9 7163.06 397.089   4
   3  -5  -8 4589.89 355.347  12
   3  -5  -8 4016.80 369.802   4
   3  -5  -7 3899.77 347.773  12
   3  -5  -7 3783.45 384.059   4
   3  -5  -6 2433.89 290.593  12
   3  -5  -6 2564.89 337.791   4
   3  -5  -5 4239.03 408.749  14
   3  -5  -4 87.9701 136.867  14
   3  -4 -11 529.163 94.2806  12
   3  -4 -10 1401.33 200.758  12
   3  -4 -10 1399.72 176.059   4
   3  -4  -9 379.572 176.073  12
   3  -4  -9 522.825 175.462   4
   3  -4  -8-76.7530 179.760   4
   3  -4  -8 14.4848 159.396  12
   3  -4  -7 4637.46 405.478  12
   3  -4  -7 4402.33 403.493   4
   3  -4  -6 19233.4 758.550  12
   3  -4  -6 19637.4 822.725  14
   3  -4  -5 19407.9 799.542  14
   3  -3 -11 9786.86 352.866  12
   3  -3 -10 9987.98 464.718  12
   3  -3  -9 2710.19 317.060  12
   3  -3  -9 2419.22 270.506   4
   3  -3  -8 6051.82 451.535  12
   3  -3  -8 5766.34 415.477   4
   3  -3  -7 5937.11 461.338  12
   3  -3  -6 28099.7 902.229  12
   3  -3  -6 27555.3 949.076  14
   3  -2 -11 8567.69 357.899  12
   3  -2 -10 11.9550 152.070  12
   3  -2 -10 38.5800 103.851   5
   3  -2  -9 1181.86 257.024  12
   3  -2  -9 1150.78 192.134   5
   3  -2  -9 976.244 192.438   4
   3  -2  -8 1074.32 216.085   4
   3  -2  -8 1286.19 265.455  12
   3  -2  -8 1297.27 210.096   5
   3  -2  -7 433.926 191.225  12
   3  -2  -7 473.800 147.564   5
   3  -1 -11 524.147 130.471  12
   3  -1 -11 492.182 110.926   5
   3  -1 -10 9920.42 492.042  12
   3  -1 -10 11145.1 457.889   5
   3  -1  -9 13838.8 639.573  12
   3  -1  -9 14207.4 576.398   5
   3  -1  -8 29025.1 945.642  12
   3  -1  -8 31816.6 884.063   5
   3  -1  -7 25685.0 896.284  12
   3   0 -11 938.073 146.006  12
   3   0 -11 1132.37 149.187   5
   3   0 -10 3243.42 301.202  12
   3   0 -10 3694.42 293.937   5
   3   0  -9 1936.04 275.965  12
   3   0  -9 2216.74 269.916   5
   3   0  -8 422.699 207.125  12
   3   0  -7 1676.11 267.595  12
   3   1 -11 892.277 146.789   5
   3   1 -10 871.693 179.682  12
   3   1 -10 918.182 184.836   5
   3   1  -9 9355.40 508.734  12
   3   1  -8 9971.78 561.898  12
   3   1  -7 7687.65 484.957  12
   3   1  -7 7228.00 455.001  15
   3   2 -11 1009.81 143.398   5
   3   2 -10 5985.87 365.639   5
   3   2  -9 2763.17 278.185  12
   3   2  -9 2469.05 302.354  15
   3   2  -8 170.273 156.815  12
   3   2  -8 381.239 205.869  15
   3   2  -7 609.970 186.119  12
   3   2  -7 449.769 198.502  15
   3   2   6 2149.83 470.795  21
   3   2   9 10083.5 530.998  18
   3   2  10 375.253 187.272  18
   3   3 -11 112.199 87.5885   5
   3   3 -10 902.569 180.143   5
   3   3 -10 753.907 172.353  15
   3   3  -9 900.786 226.725  15
   3   3  -8 3853.55 383.098  15
   3   3  -7 14323.2 570.339   6
   3   3  -7 12796.3 667.270  15
   3   3  -6 35976.4 1074.25  16
   3   3  -6 36779.2 1032.13  15
   3   3   5 6250.10 755.559  21
   3   3   6 22630.9 1443.93  21
   3   3   7 17972.5 1356.96  21
   3   3   8 10572.8 532.252  18
   3   3   9 10610.0 580.897  18
   3   3  10 1261.87 252.773  18
   3   3  11 734.035 201.198  18
   3   3  12 17.3387 112.774  18
   3   4 -11 2847.13 164.096   5
   3   4 -10 461.968 144.377   5
   3   4 -10 297.255 141.010  15
   3   4  -9 3814.80 362.957  15
   3   4  -8 1965.83 319.657  15
   3   4  -7 2009.96 305.915  16
   3   4  -7 2016.14 315.610  15
   3   4  -6 256.675 147.190   6
   3   4  -6 395.225 191.438  16
   3   4  -6 481.145 213.504  15
   3   4  -1 2919.41 422.843  21
   3   4   4 89249.9 2803.26  21
   3   4   5 142.288 269.498  21
   3   4   6 7210.70 910.235  21
   3   4   7 5105.14 859.498  21
   3   4   8 1521.81 281.438  18
   3   4   9 1662.07 302.578  18
   3   4  10 3858.95 383.227  18
   3   4  11 4938.43 379.248  18
   3   4  12 4263.32 284.452  18
   3   5 -10 302.562 109.631   5
   3   5 -10 111.937 119.756  15
   3   5  -9 1489.46 259.511  15
   3   5  -8 18326.9 610.035   6
   3   5  -8 629.990 237.195  15
   3   5  -7 2126.60 314.530  16
   3   5  -7 2427.44 347.176  15
   3   5  -6 17751.1 708.456   6
   3   5  -6 18880.8 810.840  16
   3   5  -6 18984.5 794.693  15
   3   5  -5 31096.7 956.149   6
   3   5  -5 29860.6 978.574  16
   3   5  -5 30740.0 971.877  15
   3   5  -1 382.107 237.501  21
   3   5   0 20131.3 1226.17  21
   3   5   1 149.344 271.683  21
   3   5   2 55762.4 2197.56  21
   3   5   3 15588.8 1258.67  21
   3   5   4 1489.93 508.736  21
   3   5   5 11487.0 1188.55  21
   3   5   6 9736.41 1159.95  21
   3   5   7 14649.7 1510.59  21
   3   5   7 17000.4 711.808  18
   3   5   8 23861.1 868.055  18
   3   5   9 11590.5 633.798  18
   3   5  10 5007.02 429.942  18
   3   5  11 7795.00 459.395  18
   3   6 -10 1067.89 109.357   5
   3   6 -10 645.446 120.407  15
   3   6  -9 1395.61 234.457  15
   3   6  -8 17424.0 545.145   6
   3   6  -8 1923.99 305.098  15
   3   6  -7 1083.31 244.097  16
   3   6  -7 1650.60 315.830  15
   3   6  -6 3490.61 345.006   6
   3   6  -6 3565.46 394.566  16
   3   6  -6 3646.55 395.015  15
   3   6  -5 1509.92 277.358   6
   3   6  -5 1430.00 278.273  16
   3   6  -5 1532.74 283.916  15
   3   6  -4 685.528 219.289   6
   3   6  -4 554.428 192.318  16
   3   6  -4 673.088 215.191  15
   3   6   0 6639.75 840.582  21
   3   6   1 28867.0 1731.27  21
   3   6   2 20660.7 1527.35  21
   3   6   3 72371.2 2951.63  21
   3   6   4 25036.5 1841.89  21
   3   6   5 10822.9 1322.87  21
   3   6   6 6454.43 1079.03  21
   3   6   6 6486.72 476.633  18
   3   6   7 673.284 413.387  21
   3   6   7 1295.39 292.373  18
   3   6   8 59.3118 217.233  18
   3   6   9 288.507 242.070  18
   3   6  10 4799.93 420.321  18
   3   7  -9 120.733 128.604  15
   3   7  -8 17846.1 507.752   6
   3   7  -8-33.2304 205.210  15
   3   7  -7 1746.96 242.758   6
   3   7  -7 505.228 234.668  15
   3   7  -6 1535.55 264.256   6
   3   7  -6 1927.94 286.932  16
   3   7  -6 1712.42 310.594  15
   3   7  -5 487.100 214.972   6
   3   7  -5 364.242 182.111  16
   3   7  -5 502.728 222.557  15
   3   7  -4 9895.65 621.671   6
   3   7  -4 8655.71 559.966  16
   3   7  -4 9396.12 562.434  15
   3   7  -3 1586.43 286.949   6
   3   7  -3 1489.58 275.977  16
   3   7  -3 1375.07 240.121  15
   3   7  -2 7850.25 533.140   6
   3   7  -2 6898.71 498.112  16
   3   7   0 12726.1 1288.45  21
   3   7   1-26.9319 312.097  21
   3   7   2 259.912 317.859  21
   3   7   3 493.455 368.633  21
   3   7   4 1066.88 496.322  21
   3   7   5 26685.6 2206.72  21
   3   7   5 27352.0 959.947   9
   3   7   6 21612.5 867.685  18
   3   7   6 20431.7 849.552   9
   3   7   7 7953.79 566.923  18
   3   7   8 15891.3 755.424  18
   3   7   9 8584.52 567.460  18
   3   8  -8 467.491 153.619  15
   3   8  -7 4473.51 300.368   6
   3   8  -7 1953.86 271.137  15
   3   8  -6 1341.62 232.831   6
   3   8  -6 1531.25 229.336  16
   3   8  -6 1972.65 294.624  15
   3   8  -5-61.6068 180.873   6
   3   8  -5-27.1892 150.514  16
   3   8  -5 261.911 215.133  15
   3   8  -4-180.035 208.668   6
   3   8  -4 58.0359 150.635  16
   3   8  -4-55.3222 170.614  15
   3   8  -3 1208.93 284.139   6
   3   8  -3 1097.27 253.752  16
   3   8  -2 578.373 237.508   6
   3   8  -2 211.195 191.593  16
   3   8  -1 5233.25 578.456  10
   3   8  -1 4090.47 429.713  19
   3   8  -1 3631.90 382.418  16
   3   8  -1 4576.01 415.594   9
   3   8   0 9760.00 743.832  10
   3   8   0 8763.56 578.962  19
   3   8   0 8968.34 578.603   9
   3   8   1 4874.09 895.194  21
   3   8   1 6898.66 659.292  10
   3   8   1 4994.65 460.764  19
   3   8   1 6649.51 510.484   9
   3   8   2 5890.69 1061.18  21
   3   8   2 6527.20 656.172  10
   3   8   2 5125.55 483.150  19
   3   8   2 6132.74 507.397   9
   3   8   3 13693.6 1646.33  21
   3   8   3 14468.5 932.558  10
   3   8   3 14033.5 735.924  19
   3   8   3 15022.7 745.650   9
   3   8   4 2103.48 702.551  21
   3   8   4 1159.92 374.629  10
   3   8   4 1176.35 293.770   9
   3   8   5 26400.1 1005.66   9
   3   8   6-110.177 243.474   9
   3   8   7-267.283 237.523   9
   3   8  11 596.089 127.680  19
   3   9  -7 6348.16 274.936   6
   3   9  -7 206.736 124.553  15
   3   9  -6 671.029 166.078   6
   3   9  -6 282.046 157.280  15
   3   9  -5-51.4082 166.493   6
   3   9  -5 112.729 119.460  16
   3   9  -5-312.938 200.456  15
   3   9  -4-271.789 207.878   6
   3   9  -4-2.94691 131.318  16
   3   9  -4-317.327 192.602  15
   3   9  -3 2875.52 373.424   6
   3   9  -3 2555.51 300.946  16
   3   9  -2 2020.94 345.947   6
   3   9  -2 1468.58 263.714  16
   3   9  -1 2403.89 349.817   6
   3   9  -1 1610.42 270.675  16
   3   9  -1 1888.98 304.423   9
   3   9   0 12600.8 895.947  10
   3   9   0 10532.6 635.873   9
   3   9   1 881.438 277.816  19
   3   9   1 1093.90 290.050   9
   3   9   2 1484.87 318.641  19
   3   9   2 2339.61 518.890  10
   3   9   2 2050.80 346.897   9
   3   9   3 1.82606 218.340  19
   3   9   3-377.205 407.001  10
   3   9   3-64.8014 231.545   9
   3   9   4 669.400 269.481  19
   3   9   4 968.198 287.836   9
   3   9   5 80.5728 219.412  19
   3   9   5 89.9634 231.832   9
   3   9   6 3836.50 433.963   9
   3   9   7 3035.80 354.011   9
   3   9   9 2910.51 295.562  19
   3   9  10 1760.47 188.449  19
   3  10  -6 1905.05 171.156   6
   3  10  -5 760.264 165.539   6
   3  10  -4 395.393 181.905   6
   3  10  -3 11.6792 184.923   6
   3  10  -2 33.1845 199.182   6
   3  10  -2 354.319 344.336  10
   3  10  -1 133.833 199.140   6
   3  10  -1 833.520 435.642  10
   3  10   0 1542.75 309.777   6
   3  10   0 1884.80 513.165  10
   3  10   0 1212.01 277.049   9
   3  10   1 1581.45 512.625  10
   3  10   1 1020.66 218.951  16
   3  10   1 1333.46 308.416   9
   3  10   2 1976.77 313.393  19
   3  10   2 2697.11 551.103  10
   3  10   2 2567.74 389.531   9
   3  10   3 2530.10 343.730  19
   3  10   3 2409.47 499.793  10
   3  10   3 3447.61 433.616   9
   3  10   4 2584.72 348.540  19
   3  10   4 3186.17 416.693   9
   3  10   5 373.804 220.926  19
   3  10   5 606.787 262.131   9
   3  10   6 1419.12 275.117  19
   3  10   6 1848.36 310.470   9
   3  10   7 1691.49 259.313  19
   3  10   8 1132.27 202.709  19
   3  10   9 177.393 103.066  19
   3  11  -5 841.272 109.618   6
   3  11  -4-157.553 112.829   6
   3  11  -3 558.296 173.486   6
   3  11  -2 2922.11 309.064   6
   3  11  -1 3660.39 357.519   6
   3  11  -1 2438.22 414.931  10
   3  11   0 1723.23 288.354   6
   3  11   0 956.846 402.252  10
   3  11   1 4537.10 404.848   6
   3  11   1 3170.42 524.602  10
   3  11   2 1939.98 335.311   9
   3  11   3 1341.22 305.010   9
   3  11   4 284.326 219.864   9
   3  11   5 116.479 184.764   9
   3  12  -3 18.1708 64.4975   6
   3  12  -2-71.4027 98.7432   6
   3  12  -1 351.639 140.798   6
   3  12   0-171.361 148.332   6
   3  12   1 44.9349 147.801   6
   3  12   2 688.865 183.496   6
   3  12   3 1398.13 210.055   6
   3  12   4 1840.95 207.951   6
   3  12   5 62.2185 99.1072   6
   4 -10  -4 1079.64 138.020   3
   4  -9  -6 91.5269 98.8375   3
   4  -8  -7 816.761 138.780   3
   4  -8  -7 924.732 130.191   4
   4  -8  -6 6186.41 318.788   4
   4  -8  -5 5461.59 332.935   4
   4  -8  -4 2172.01 239.240   4
   4  -7  -8 1504.29 165.969   4
   4  -7  -7 910.868 183.415   4
   4  -7  -6 1140.42 214.252   4
   4  -7  -5 1788.48 255.222   4
   4  -7  -4 49.0483 166.435   4
   4  -7  -3 1684.57 246.328   4
   4  -6  -9 2171.14 171.882   4
   4  -6  -8 3323.56 272.595   4
   4  -6  -7 5227.79 371.402   4
   4  -6  -6 12929.4 596.977   4
   4  -6  -5 1334.58 265.049   4
   4  -6  -4 999.204 238.951  14
   4  -6  -3 3300.51 357.507  14
   4  -6  -2 37372.2 1032.79  14
   4  -5  -9 4407.21 249.888  12
   4  -5  -9 4730.02 281.105   4
   4  -5  -8 9960.80 445.063  12
   4  -5  -8 9912.76 478.707   4
   4  -5  -7 2055.42 257.867  12
   4  -5  -7 1945.95 289.117   4
   4  -5  -6 5463.69 391.775  12
   4  -5  -6 4967.59 414.877   4
   4  -5  -5 15924.3 747.337  14
   4  -5  -4 2471.09 328.777  14
   4  -5  -3 7579.14 504.008  14
   4  -4 -10-3.86682 79.0412  12
   4  -4  -9 10.0671 135.674  12
   4  -4  -9 73.7050 130.833   4
   4  -4  -8 40.8809 167.156   4
   4  -4  -8 52.0123 155.794  12
   4  -4  -7 16102.9 666.729  12
   4  -4  -7 15355.2 664.516   4
   4  -4  -6 16241.5 700.514  12
   4  -4  -6 16323.1 760.180  14
   4  -4  -5 14653.1 654.413  12
   4  -4  -5 15301.5 746.735  14
   4  -4  -4 8452.56 542.358  14
   4  -3 -10 3797.37 252.931  12
   4  -3  -9 5201.41 361.547  12
   4  -3  -9 5015.66 316.808   4
   4  -3  -8 7382.11 466.244  12
   4  -3  -8 6868.41 431.367   4
   4  -3  -7 1645.86 275.614  12
   4  -3  -6 143.647 162.159  12
   4  -3  -6 255.878 181.597  14
   4  -3  -5 26.8583 151.600  14
   4  -2 -10 78.4705 126.582  12
   4  -2  -9 1388.15 244.550  12
   4  -2  -9 1099.86 177.647   4
   4  -2  -8-56.0952 150.459   4
   4  -2  -8-21.2158 191.563  12
   4  -2  -7 201.370 185.822  12
   4  -2  -6 441.374 185.083  14
   4  -1 -11 1015.87 114.204  12
   4  -1 -10 12539.9 485.454  12
   4  -1 -10 13518.3 398.813   5
   4  -1  -9 11629.3 556.057  12
   4  -1  -9 13010.9 482.783   5
   4  -1  -8 4284.27 394.528  12
   4  -1  -8 4786.52 337.295   5
   4  -1  -7 2474.75 325.576  12
   4  -1  -7 2357.35 296.909  14
   4  -1  -6 15278.3 680.926  14
   4   0 -10 4854.78 313.965  12
   4   0 -10 5537.88 289.655   5
   4   0  -9 88.4875 154.389  12
   4   0  -9 15.0759 120.689   5
   4   0  -8 1844.02 286.205  12
   4   0  -7 391.838 208.698  12
   4   1 -10 3433.81 250.792  12
   4   1 -10 4088.78 265.779   5
   4   1  -9 3630.51 320.160  12
   4   1  -9 4657.68 332.157   5
   4   1  -8 12822.3 619.654  12
   4   1  -8 13151.7 588.789  15
   4   1  -7 34489.3 1023.54  12
   4   1  -7 34737.7 994.444  15
   4   1  -6 16269.5 694.837  15
   4   2 -10 4054.86 266.077   5
   4   2  -9 1430.35 215.577  12
   4   2  -9 1517.82 248.957  15
   4   2  -8 1155.75 226.390  12
   4   2  -8 1291.79 243.195  15
   4   2  -7 1022.47 240.245  12
   4   2  -7 1043.98 242.322  15
   4   2  -6 226.021 155.669  16
   4   2  -6 131.524 172.074  15
   4   3 -10 2169.07 203.272   5
   4   3 -10 1791.97 171.911  15
   4   3  -9 1853.87 249.245  15
   4   3  -8 7659.52 497.221  15
   4   3  -7 7869.49 527.918  15
   4   3  -6 9485.45 439.635   6
   4   3  -6 10936.2 603.476  16
   4   3  -6 10702.9 604.926  15
   4   3  -6 10754.3 557.388  13
   4   3   7 50941.9 2397.30  21
   4   3   8 13649.0 597.767  18
   4   3   9 1876.51 275.516  18
   4   3  10 2125.56 281.552  18
   4   4 -10 193.755 99.1706   5
   4   4 -10 44.4986 93.9961  15
   4   4  -9 3366.05 322.166  15
   4   4  -8 1560.11 274.652  15
   4   4  -7 532.798 207.109  16
   4   4  -7 615.670 240.779  15
   4   4  -6 1341.96 222.425   6
   4   4  -6 1685.59 286.338  16
   4   4  -6 1586.82 290.302  15
   4   4  -6 1390.53 230.455  13
   4   4  -5 205.652 133.153  13
   4   4  -5 83.5311 127.851   6
   4   4  -5 182.802 161.710  16
   4   4  -5 228.834 198.143  15
   4   4   5 3532.35 694.984  21
   4   4   6-3.39120 259.590  21
   4   4   7-826.293 397.651  21
   4   4   8 1119.30 254.166  18
   4   4   9 2966.43 350.183  18
   4   4  10 3401.70 355.075  18
   4   4  11 5303.10 370.916  18
   4   5 -10-24.8928 72.8169   5
   4   5  -9 735.036 192.884  15
   4   5  -8 1969.21 304.504  15
   4   5  -7 59.5152 186.961  16
   4   5  -7 31.8428 200.319  15
   4   5  -6 14914.4 607.540   6
   4   5  -6 17288.1 780.586  16
   4   5  -6 16391.5 755.235  15
   4   5  -6 15658.2 655.067  13
   4   5  -5 32571.8 931.281   6
   4   5  -5 35383.1 1103.58  16
   4   5  -5 34531.9 1065.88  15
   4   5  -5 32758.9 937.614  13
   4   5  -4 35831.4 1088.58  16
   4   5  -4 33981.0 1010.70  15
   4   5  -1 3858.93 562.315  21
   4   5   0 1021.81 351.911  21
   4   5   1 63.5797 250.507  21
   4   5   2 3449.14 644.832  21
   4   5   3 25296.7 1661.47  21
   4   5   4 14105.2 1300.33  21
   4   5   5 964.884 457.040  21
   4   5   6 3620.59 777.902  21
   4   5   7 2297.77 322.038  18
   4   5   7 2476.98 646.521  21
   4   5   8 9263.66 562.724  18
   4   5   9 2023.21 326.148  18
   4   5  10 2822.24 341.212  18
   4   6  -9 546.394 164.325  15
   4   6  -8 2588.04 310.497  15
   4   6  -7 769.721 218.072  16
   4   6  -7 809.839 252.918  15
   4   6  -6 2802.74 291.140   6
   4   6  -6 3008.11 359.482  16
   4   6  -6 2855.96 361.156  15
   4   6  -5-85.3721 162.282   6
   4   6  -5-8.58902 172.049  16
   4   6  -5-33.2725 204.755  15
   4   6  -4 94.1346 134.586  13
   4   6  -4 441.497 193.852   6
   4   6  -4 411.687 195.544  16
   4   6  -4 403.240 207.831  15
   4   6  -3 512.540 182.363   6
   4   6  -3 802.197 227.829  16
   4   6  -3 634.768 205.567  15
   4   6   0 3191.26 603.013  21
   4   6   1 32022.3 1871.36  21
   4   6   2 1086.54 457.912  21
   4   6   3 74472.1 3051.54  21
   4   6   4 30280.7 2048.17  21
   4   6   5 17700.1 1651.77  21
   4   6   6 2700.34 729.410  21
   4   6   6 2951.53 363.062  18
   4   6   7 1881.47 323.776  18
   4   6   8 4197.99 436.242  18
   4   6   9 1992.37 328.379  18
   4   7  -9-10.8467 90.0452  15
   4   7  -8 1011.74 211.226  15
   4   7  -7 6030.87 330.361   6
   4   7  -7 802.762 233.719  15
   4   7  -6 551.275 175.448   6
   4   7  -6 446.852 191.961  16
   4   7  -6 135.900 197.110  15
   4   7  -5 5205.43 409.040   6
   4   7  -5 5256.89 458.263  16
   4   7  -5 5618.08 456.256  15
   4   7  -4 22806.3 866.176   6
   4   7  -4 21029.8 882.606  16
   4   7  -4 22881.7 844.839  15
   4   7  -3 16754.4 766.438   6
   4   7  -3 15000.6 745.831  16
   4   7  -3 14925.3 659.701  15
   4   7  -2 18338.9 787.470   6
   4   7  -2 16394.8 796.060  16
   4   7  -1 3418.33 358.192   6
   4   7  -1 3295.85 392.926  19
   4   7   1 534.021 360.646  21
   4   7   2-9.25130 238.402  21
   4   7   3 1205.08 493.023  21
   4   7   4 12398.6 1480.19  21
   4   7   4 12595.4 683.393   9
   4   7   5-368.385 427.146  21
   4   7   5 229.080 216.060   9
   4   7   6 2391.17 344.752   9
   4   8  -8 309.242 118.086  15
   4   8  -7 8548.20 328.118   6
   4   8  -7 390.992 172.823  15
   4   8  -6 705.278 171.108   6
   4   8  -6 550.369 174.045  16
   4   8  -6 629.982 204.906  15
   4   8  -5 134.932 162.893   6
   4   8  -5 237.516 173.239  16
   4   8  -5 230.252 194.293  15
   4   8  -4-71.7374 186.095   6
   4   8  -4 114.634 166.736  16
   4   8  -4 104.176 183.374  15
   4   8  -3 1560.01 288.662   6
   4   8  -3 1290.95 290.178  16
   4   8  -3 1448.11 251.637  15
   4   8  -2 5397.71 465.843   6
   4   8  -2 4235.73 429.158  16
   4   8  -1 7750.26 553.314   6
   4   8  -1 7207.74 644.425  10
   4   8  -1 7447.99 564.936  19
   4   8  -1 6424.66 513.027  16
   4   8   0 10077.5 758.679  10
   4   8   0 8842.08 619.950  19
   4   8   0 10232.4 612.330   9
   4   8   1 9000.04 1217.15  21
   4   8   1 11073.5 808.206  10
   4   8   1 10276.8 653.235  19
   4   8   1 11238.4 650.670   9
   4   8   2 4233.45 912.984  21
   4   8   2 5270.62 599.538  10
   4   8   2 4666.27 473.088  19
   4   8   2 4953.27 476.022   9
   4   8   3 6912.00 1146.74  21
   4   8   3 6812.85 685.625  10
   4   8   3 6762.99 557.098  19
   4   8   3 6535.80 553.566   9
   4   8   4 27101.6 1045.82  19
   4   8   4 27120.2 1016.26   9
   4   8   5 16385.6 825.030   9
   4   8   6 3201.43 395.067   9
   4   8  11 446.404 122.453  19
   4   9  -7-10.4497 92.1362  15
   4   9  -6 1373.79 176.757   6
   4   9  -6 199.652 138.916  15
   4   9  -5 367.503 157.392   6
   4   9  -5 506.745 152.684  16
   4   9  -5 425.082 171.169  15
   4   9  -4 765.467 221.163   6
   4   9  -4 874.257 199.681  16
   4   9  -4 586.007 181.788  15
   4   9  -3 3047.27 353.521   6
   4   9  -3 2333.77 314.588  16
   4   9  -2 247.074 203.983   6
   4   9  -2 182.142 170.559  16
   4   9  -1 323.626 211.172   6
   4   9  -1 287.606 336.319  10
   4   9  -1 388.375 212.150  16
   4   9   0 1208.52 293.488  19
   4   9   0 1255.38 278.819   6
   4   9   0 822.905 405.376  10
   4   9   1 3863.76 579.767  10
   4   9   1 3207.52 434.305  19
   4   9   1 4279.13 452.649   9
   4   9   2 189.993 251.333  19
   4   9   2-354.843 462.556  10
   4   9   2 166.353 220.575   9
   4   9   3 433.622 258.136  19
   4   9   3 335.881 242.593   9
   4   9   4 6.48329 223.782  19
   4   9   4 226.113 246.027   9
   4   9   5 203.167 252.893  19
   4   9   5 192.316 228.584   9
   4   9   6 7971.58 585.502  19
   4   9   6 7159.95 538.682   9
   4   9   7 5356.63 474.609  19
   4   9   8 5299.41 438.648  19
   4   9   9 2132.24 271.661  19
   4   9  10 4657.46 282.952  19
   4  10  -6 5393.79 202.200   6
   4  10  -5 889.382 147.851   6
   4  10  -4 193.220 146.903   6
   4  10  -4 131.477 108.587  16
   4  10  -3 118.660 172.860   6
   4  10  -3 198.723 136.218  16
   4  10  -2-71.6090 190.605   6
   4  10  -2-25.3924 135.454  16
   4  10  -1 199.203 208.485   6
   4  10  -1 98.7685 152.617  16
   4  10   0 1250.30 288.357   6
   4  10   0 816.258 220.469  16
   4  10   1 3006.83 375.325  19
   4  10   1 2314.06 495.331  10
   4  10   1 2640.53 334.614  16
   4  10   2 2719.29 360.259  19
   4  10   2 3789.33 421.368   9
   4  10   3 1735.16 325.585  19
   4  10   3 2327.11 369.542   9
   4  10   4 4303.13 433.037  19
   4  10   4 5150.61 478.960   9
   4  10   5 1255.12 289.969  19
   4  10   5 1453.03 321.019   9
   4  10   6 2502.07 336.159  19
   4  10   7 1505.07 260.830  19
   4  10   8 1282.18 220.913  19
   4  10   9-12.3058 99.1326  19
   4  11  -4 124.916 90.6673   6
   4  11  -3-149.868 129.971   6
   4  11  -2 336.354 168.286   6
   4  11  -1 421.519 195.324   6
   4  11   0 192.181 182.740   6
   4  11   0 259.966 136.502  16
   4  11   1 1558.73 274.563   6
   4  11   1 783.098 180.228  16
   4  11   2 454.569 191.021  19
   4  11   2 829.841 238.914   6
   4  11   2 271.561 148.552  16
   4  11   3 148.173 168.563  19
   4  11   3-267.919 143.626  16
   4  11   4 152.791 154.215  19
   4  11   5-86.9196 150.990  19
   4  11   6 222.881 143.728  19
   4  11   7 656.301 145.711  19
   4  12  -2-71.4988 82.5629   6
   4  12  -1-146.252 109.782   6
   4  12   0-6.31571 125.096   6
   4  12   1 255.312 146.211   6
   4  12   2 32.2735 129.760   6
   4  12   3 758.058 169.500   6
   4  12   4 315.629 129.602   6
   4  12   5 1092.72 149.623   6
   5  -8  -6 5701.35 250.082   3
   5  -8  -5 2875.47 200.898   4
   5  -8  -4 9058.35 359.237   4
   5  -7  -7 642.140 121.481   4
   5  -7  -6 915.709 165.069   4
   5  -7  -5 1.56626 129.781   4
   5  -7  -4 63.4702 143.807   4
   5  -7  -3 1589.99 220.528   4
   5  -6  -8 2113.36 170.373   4
   5  -6  -7 6833.85 360.281   4
   5  -6  -6 5295.81 370.520   4
   5  -6  -5 7682.83 466.575   4
   5  -6  -3 1671.06 271.941  14
   5  -6  -2 9426.14 549.252  14
   5  -5  -8 6616.26 283.304  12
   5  -5  -8 6975.73 341.027   4
   5  -5  -7 1723.70 197.514  12
   5  -5  -7 1775.13 243.388   4
   5  -5  -6 4468.46 322.239  12
   5  -5  -6 4436.36 368.306   4
   5  -5  -5 15208.4 722.701  14
   5  -5  -4 3012.03 356.940  14
   5  -5  -3 1624.58 285.721  14
   5  -5  -2 6191.45 462.943  14
   5  -5  -1 12598.3 621.607  14
   5  -4  -9 679.806 119.486  12
   5  -4  -9 717.704 119.749   4
   5  -4  -8 2940.53 251.398  12
   5  -4  -8 2604.89 257.386   4
   5  -4  -7 6145.50 396.830  12
   5  -4  -7 6376.03 420.929   4
   5  -4  -6 5861.86 420.822  12
   5  -4  -6 5724.57 465.082  14
   5  -4  -5 30590.2 925.194  12
   5  -4  -5 30383.2 1022.62  14
   5  -4  -4 8576.58 574.173  14
   5  -4  -3 2743.33 334.590  14
   5  -4  -2 6265.96 457.932  14
   5  -3  -9 4922.07 290.316  12
   5  -3  -8 7466.27 422.676  12
   5  -3  -8 6833.90 386.541   4
   5  -3  -7 23395.2 800.996  12
   5  -3  -6 7171.32 492.501  12
   5  -3  -6 7102.51 516.651  14
   5  -3  -5 3810.16 394.651  14
   5  -3  -4 6718.33 487.187  14
   5  -3  -3 378.215 170.532  14
   5  -2 -10 8.96054 79.3972  12
   5  -2  -9 43.6749 128.615  12
   5  -2  -8 333.479 156.116   4
   5  -2  -8 354.051 187.652  12
   5  -2  -7 397.724 209.926  12
   5  -2  -6 21340.9 846.656  14
   5  -2  -5 37143.4 1113.47  14
   5  -2  -4 57156.2 1347.69  14
   5  -1 -10 2897.02 199.756  12
   5  -1  -9 9968.08 464.113  12
   5  -1  -8 10946.0 555.261  12
   5  -1  -7 7001.01 501.217  12
   5  -1  -6 400.203 176.284  14
   5  -1  -5 427.732 176.179  14
   5   0 -10 679.483 120.437  12
   5   0  -9-0.96820 139.879  12
   5   0  -9 19.9970 90.9379   5
   5   0  -8 1173.45 237.663  12
   5   0  -8 1213.21 175.686   5
   5   0  -7 1647.40 281.052  12
   5   0  -6 394.472 186.401  15
   5   0  -6 580.656 173.170  14
   5   0  -5 3296.34 332.891  14
   5   1 -10 2730.63 153.606   5
   5   1  -9 4307.71 307.420  12
   5   1  -9 4511.17 273.517   5
   5   1  -8 13208.6 592.653  12
   5   1  -8 12985.5 537.999  15
   5   1  -7 16743.8 734.478  12
   5   1  -7 17851.8 708.521  15
   5   1  -6 2144.29 312.252  15
   5   1  -5 26941.9 883.727  13
   5   2 -10 2647.19 161.320   5
   5   2  -9 2549.48 225.483  12
   5   2  -9 2407.70 220.931   5
   5   2  -9 2518.47 229.382  15
   5   2  -8 419.649 174.223  12
   5   2  -8 370.566 180.776  15
   5   2  -7 1800.54 276.242  12
   5   2  -7 2259.34 304.343  15
   5   2  -6 540.717 217.846  15
   5   2  -5 8181.05 497.836  16
   5   2  -5 8538.90 506.193  13
   5   3 -10 4053.78 190.309   5
   5   3  -9 7001.14 360.672  15
   5   3  -8 4831.22 377.119  15
   5   3  -7 10720.8 530.930  12
   5   3  -7 12814.4 646.133  15
   5   3  -6 21042.5 823.129  16
   5   3  -6 20417.2 829.199  15
   5   3  -6 20247.7 798.482  13
   5   3  -5 2747.04 319.224  16
   5   3  -5 2502.62 335.543  15
   5   3  -5 3055.95 326.249  13
   5   3   7 28438.5 1964.49  21
   5   4  -9 3063.98 262.404  15
   5   4  -8 237.154 176.421  15
   5   4  -7 544.840 228.859  15
   5   4  -6 330.923 194.640  16
   5   4  -6 317.702 223.205  15
   5   4  -6 219.078 155.960  13
   5   4  -5 387.575 166.017  13
   5   4  -5 456.440 187.657  16
   5   4  -5 531.622 221.302  15
   5   4  -4 5406.63 435.013  16
   5   4  -4 5238.25 437.112  15
   5   4  -4 5435.81 410.112  13
   5   4   6 1187.61 492.624  21
   5   4   7 1425.28 491.113  21
   5   4   7 1955.44 277.835  18
   5   4   8 1172.77 256.633  18
   5   4   9 3032.50 334.920  18
   5   5  -9 1774.39 191.727  15
   5   5  -8 2370.16 282.730  15
   5   5  -7 571.370 225.494  15
   5   5  -6 5424.43 455.020  16
   5   5  -6 5319.98 453.111  15
   5   5  -6 5081.13 393.782  13
   5   5  -5 7761.03 415.802   6
   5   5  -5 9391.82 591.829  16
   5   5  -5 8638.65 573.392  15
   5   5  -5 8581.03 515.842  13
   5   5  -4 15559.4 740.560  16
   5   5  -4 13447.5 693.354  15
   5   5  -4 15064.3 679.814  13
   5   5  -3 7164.86 505.869  16
   5   5  -3 6753.13 472.285  15
   5   5   5 11332.8 1346.98  21
   5   5   6 25986.5 1995.96  21
   5   5   7 26424.3 2078.82  21
   5   6  -9-83.3066 74.9198   5
   5   6  -9-24.2043 86.5604  15
   5   6  -8 448.609 178.033  15
   5   6  -7 169.575 188.029  15
   5   6  -6 1358.49 272.709  16
   5   6  -6 1099.53 273.426  15
   5   6  -5 2711.70 274.949   6
   5   6  -5 3404.35 379.960  16
   5   6  -5 3087.06 376.634  15
   5   6  -5 3218.15 318.376  13
   5   6  -4 1332.50 241.055  13
   5   6  -4 1390.19 230.987   6
   5   6  -4 1354.31 287.243  16
   5   6  -4 1394.41 281.137  15
   5   6  -3 15.7299 149.538   6
   5   6  -3 49.4266 161.731  16
   5   6  -3 282.896 193.369  15
   5   6  -2 1052.12 249.843  16
   5   6  -2 658.074 208.868  15
   5   6   0 3997.28 689.252  21
   5   6   1 14515.8 1331.70  21
   5   6   2 14375.9 1384.48  21
   5   6   3 12522.3 1335.77  21
   5   6   4 3811.54 801.221  21
   5   6   5 14816.0 1591.05  21
   5   6   6 4821.50 996.654  21
   5   7  -8 233.396 123.523  15
   5   7  -7 1191.46 230.502  15
   5   7  -6-19.2526 157.455  16
   5   7  -6-6.16375 190.349  15
   5   7  -5 5017.79 350.582   6
   5   7  -5 5551.57 456.254  16
   5   7  -5 5328.13 433.987  15
   5   7  -4 14183.0 621.564   6
   5   7  -4 15567.5 755.665  16
   5   7  -4 14760.6 687.968  15
   5   7  -4 13178.7 602.896  13
   5   7  -3 12400.4 630.131   6
   5   7  -3 11685.3 685.458  16
   5   7  -3 11557.7 613.107  15
   5   7  -3 11257.4 587.590  13
   5   7  -2 4394.07 396.632   6
   5   7  -2 4096.32 422.869  16
   5   7  -2 3476.41 351.681  15
   5   7  -1 11314.7 602.988   6
   5   7  -1 12070.3 711.392  19
   5   7  -1 10782.1 661.922  16
   5   7   0 4369.09 461.026  19
   5   7   1 375.057 251.765  21
   5   7   1 231.485 219.283  19
   5   7   2 43.2552 259.031  21
   5   7   2-40.6921 221.710  19
   5   7   3 929.892 446.578  21
   5   7   3 660.397 242.155  19
   5   7   3 620.772 239.540   9
   5   7   4 41806.6 2707.77  21
   5   7   4 42856.7 1257.62  19
   5   7   4 41127.1 1210.08   9
   5   7  11 1716.70 201.286  19
   5   8  -7 1354.07 184.643  15
   5   8  -6 1421.51 213.147  16
   5   8  -6 1307.37 223.199  15
   5   8  -5 1110.12 180.657   6
   5   8  -5 1213.10 240.200  16
   5   8  -5 1336.59 244.818  15
   5   8  -4 577.905 184.585   6
   5   8  -4 630.895 226.384  16
   5   8  -4 701.571 219.657  15
   5   8  -3 19.8736 115.834  13
   5   8  -3-0.21110 171.718   6
   5   8  -3 85.9612 180.201  16
   5   8  -3 103.788 160.123  15
   5   8  -2 78.8690 164.678   6
   5   8  -2 20.9079 183.200  16
   5   8  -1 2695.86 334.637   6
   5   8  -1 2638.13 376.736  16
   5   8   0 3339.58 368.086   6
   5   8   0 3448.59 426.161  19
   5   8   1 6218.86 552.891  19
   5   8   2 8434.07 617.381  19
   5   8   3 93.4785 231.380  19
   5   8   4 31499.1 1154.74  19
   5   8   5 9193.84 646.880  19
   5   8   6 3873.39 456.407  19
   5   8   9-54.7779 191.326  19
   5   8  10 966.626 199.521  19
   5   9  -6 7188.60 246.017   6
   5   9  -6 436.617 121.209  15
   5   9  -5 146.688 106.420   6
   5   9  -5 42.8527 122.794  16
   5   9  -5-160.687 136.372  15
   5   9  -4 1493.84 215.136   6
   5   9  -4 1736.96 248.809  16
   5   9  -4 1558.25 223.193  15
   5   9  -3 5446.90 404.617   6
   5   9  -3 5399.94 429.353  16
   5   9  -2 5879.73 445.529   6
   5   9  -2 5420.32 456.206  16
   5   9  -1 10846.6 600.402   6
   5   9  -1 9059.63 589.750  16
   5   9   0 1243.16 315.531  19
   5   9   0 1173.91 261.192   6
   5   9   0 918.783 261.955  16
   5   9   1 2434.23 385.867  19
   5   9   2 558.488 275.228  19
   5   9   3 2.97036 254.117  19
   5   9   4 250.508 266.263  19
   5   9   5 2467.46 402.409  19
   5   9   6 961.420 304.023  19
   5   9   7 4684.34 453.359  19
   5   9   8 3625.67 372.357  19
   5   9   9 1462.74 234.175  19
   5   9  10 1552.61 176.182  19
   5  10  -5 1573.33 132.942   6
   5  10  -4-160.903 110.961   6
   5  10  -4 109.748 105.688  16
   5  10  -3-17.5009 133.056   6
   5  10  -3 88.9022 126.331  16
   5  10  -2 76.7255 163.855   6
   5  10  -2-72.9600 134.203  16
   5  10  -1 1037.89 232.769   6
   5  10  -1 910.828 229.208  16
   5  10   0 2534.59 317.345   6
   5  10   0 2031.64 302.445  16
   5  10   1 6523.95 467.672   6
   5  10   1 5634.41 489.770  19
   5  10   1 4992.01 427.816  16
   5  10   2 4552.74 456.034  19
   5  10   3 2597.88 366.164  19
   5  10   4 4463.10 437.720  19
   5  10   5 6190.52 497.140  19
   5  10   6 2725.04 354.252  19
   5  10   7 541.638 210.449  19
   5  10   8 603.654 182.547  19
   5  10   9 417.403 120.425  19
   5  11  -3 23.9396 85.3957   6
   5  11  -2 888.958 165.724   6
   5  11  -2 637.434 124.217  16
   5  11  -1 304.863 159.232   6
   5  11  -1 475.462 132.290  16
   5  11   0 427.756 177.571   6
   5  11   0 258.970 134.676  16
   5  11   1 114.122 172.139   6
   5  11   1 149.874 150.207  16
   5  11   2 1044.78 228.260  19
   5  11   2 923.098 216.001   6
   5  11   2 649.486 184.930  16
   5  11   3-115.763 167.387  19
   5  11   3-32.6797 167.310   6
   5  11   3-176.054 146.416  16
   5  11   4 219.598 173.880  19
   5  11   5 311.788 166.408  19
   5  11   6 838.640 187.436  19
   5  11   7 252.158 124.774  19
   5  12  -1-40.8186 78.7249   6
   5  12   0 6.96964 94.2421   6
   5  12   1 486.473 140.539   6
   5  12   2 571.452 147.819   6
   5  12   3 1798.01 194.958   6
   5  12   4 363.991 117.699   6
   5  12   5 810.606 119.982   6
   6  -7  -6 723.552 101.349   4
   6  -7  -5 61.3421 98.7623   4
   6  -7  -4 1750.93 194.500   4
   6  -7  -3 4198.88 283.716   4
   6  -6  -7 6143.38 246.799   4
   6  -6  -6 9059.92 376.132   4
   6  -6  -5 6028.32 363.509   4
   6  -6  -3 16440.3 669.731  14
   6  -6  -2 2827.21 309.607  14
   6  -6  -1 2663.97 295.175  14
   6  -5  -7 132.622 120.842   4
   6  -5  -6 1016.35 201.036   4
   6  -5  -4 691.782 217.931  14
   6  -5  -3-89.4183 173.800  14
   6  -5  -2 2501.93 316.740  14
   6  -5  -1 12679.2 634.107  14
   6  -5   0 19742.9 753.893  14
   6  -4  -8 3678.31 200.253  12
   6  -4  -8 3986.41 222.101   4
   6  -4  -7 4547.43 286.712  12
   6  -4  -7 4534.87 313.384   4
   6  -4  -6 4535.34 324.746  12
   6  -4  -5 6919.38 424.341  12
   6  -4  -5 7038.51 490.228  14
   6  -4  -4 5565.42 465.103  14
   6  -4  -3 4614.70 430.135  14
   6  -4  -2 875.606 239.790  14
   6  -4  -1 6880.25 488.819  14
   6  -4   0 462.029 179.948  14
   6  -3  -8 4781.68 279.972  12
   6  -3  -8 4573.40 260.903   4
   6  -3  -7 7746.47 423.865  12
   6  -3  -7 7425.70 403.892   4
   6  -3  -6 1780.45 255.980  12
   6  -3  -6 1752.30 277.781  14
   6  -3  -5 4096.85 403.137  14
   6  -3  -4 14976.6 732.000  14
   6  -3  -3 18906.5 815.688  14
   6  -3  -2 5540.88 459.177  14
   6  -3  -1 33079.3 1020.71  14
   6  -2  -9-54.0324 87.5913  12
   6  -2  -8 709.529 132.766   4
   6  -2  -8 811.791 169.716  12
   6  -2  -7 2881.76 302.276  12
   6  -2  -6 4057.18 378.342  14
   6  -2  -5 6853.65 504.866  14
   6  -2  -4 69043.8 1532.99  14
   6  -2  -3 302.835 183.067  14
   6  -2  -2 6176.44 458.049  14
   6  -1  -9 8387.77 338.403  12
   6  -1  -8 4279.71 326.858  12
   6  -1  -7 10725.6 564.610  12
   6  -1  -6 10037.0 557.833  14
   6  -1  -5 11398.7 626.468  14
   6  -1  -4 2370.44 314.133  14
   6  -1  -3 29.9399 151.865  14
   6   0  -9 23.7998 96.0676  12
   6   0  -8 151.352 145.116  12
   6   0  -7 260.497 187.430  12
   6   0  -6 122.470 166.759  15
   6   0  -6 206.544 135.737  14
   6   0  -5 6706.31 475.105  14
   6   0  -4 24099.5 878.436  14
   6   0  -3 62672.1 1391.67  14
   6   1  -9 3062.68 207.356  12
   6   1  -8 14143.9 542.034  12
   6   1  -7 13613.8 621.384  12
   6   1  -7 12942.1 566.972  15
   6   1  -6 4306.32 389.779  15
   6   1  -5 4024.17 355.006  14
   6   1  -4 5262.96 417.781  14
   6   1  -4 5283.38 417.426  13
   6   2  -9 167.922 66.9948   5
   6   2  -8 177.953 131.443  12
   6   2  -8 318.205 144.333  15
   6   2  -7 2196.75 278.634  12
   6   2  -7 2668.36 299.661  15
   6   2  -6 1371.40 269.416  15
   6   2  -5 1513.95 240.176  16
   6   2  -5 1561.06 256.223  13
   6   2  -4 4383.63 354.397  16
   6   2  -4 4677.52 391.998  13
   6   2  -3 26818.1 866.020  13
   6   3  -9 4533.14 201.260   5
   6   3  -8 3442.63 285.189  15
   6   3  -7 8374.42 437.839  12
   6   3  -7 8857.12 516.093  15
   6   3  -6 20244.9 805.108  15
   6   3  -5 8991.26 529.954  16
   6   3  -5 7681.18 532.705  15
   6   3  -5 8874.89 536.626  13
   6   3  -4 12212.0 611.753  16
   6   3  -4 13168.2 642.916  13
   6   3  -3 12887.9 599.226  16
   6   3  -3 13571.5 636.834  13
   6   4  -9 690.502 92.7365   5
   6   4  -8 3367.11 277.046  15
   6   4  -7-68.1972 184.908  15
   6   4  -6 640.233 193.774  16
   6   4  -6 418.692 226.948  15
   6   4  -5 479.842 198.656  13
   6   4  -5 607.080 198.724  16
   6   4  -5 429.468 226.138  15
   6   4  -4 7008.15 486.166  16
   6   4  -4 6189.32 489.768  15
   6   4  -4 7517.78 498.153  13
   6   4  -3 4182.01 388.459  16
   6   4  -3 4171.43 383.224  13
   6   5  -8 2547.01 242.281  15
   6   5  -7 3794.89 339.036  15
   6   5  -6 9175.51 530.239  16
   6   5  -6 8296.44 515.443  15
   6   5  -5 10899.3 598.554  16
   6   5  -5 9729.50 590.382  15
   6   5  -5 10796.2 564.752  13
   6   5  -4 1372.79 271.358  16
   6   5  -4 1233.55 277.246  15
   6   5  -4 1579.19 266.762  13
   6   5  -3 10252.9 602.114  16
   6   5  -3 8874.42 567.666  15
   6   5  -3 10223.2 586.305  13
   6   5  -2 8265.49 541.044  16
   6   5  -1 807.829 223.968  16
   6   5   5 8817.68 542.573  19
   6   5   6 5363.91 1024.82  21
   6   6  -8 710.996 138.413  15
   6   6  -7-15.8366 149.826  15
   6   6  -6 454.194 184.377  16
   6   6  -6 332.113 198.956  15
   6   6  -5 1328.40 264.853  16
   6   6  -5 1323.66 281.238  15
   6   6  -5 1539.32 231.550  13
   6   6  -4 1696.37 288.665  16
   6   6  -4 1635.85 296.080  15
   6   6  -4 1485.52 257.737  13
   6   6  -3 4094.59 418.998  16
   6   6  -3 3602.50 384.783  15
   6   6  -3 3918.45 387.757  13
   6   6  -2 10716.3 660.768  16
   6   6  -2 10061.4 591.814  15
   6   6  -1 10960.5 645.091  16
   6   6  -1 9928.11 564.979  15
   6   6   0 45287.5 1261.80  19
   6   6   1 8226.97 1085.06  21
   6   6   1 9060.05 620.328  19
   6   6   2 24419.8 1916.28  21
   6   6   2 27197.0 978.540  19
   6   6   3 4418.81 859.841  21
   6   6   3 4224.76 433.562  19
   6   6   4 10056.7 1334.18  21
   6   6   4 10503.1 638.560  19
   6   6   5 2229.06 706.146  21
   6   6   5 3186.17 387.773  19
   6   6   6 3343.77 392.072  19
   6   6  10 170.915 151.515  19
   6   7  -7 1736.46 203.630  15
   6   7  -6 343.371 152.226  16
   6   7  -6 305.848 174.171  15
   6   7  -5 2102.63 286.241  16
   6   7  -5 1699.45 270.498  15
   6   7  -5 1879.63 217.869  13
   6   7  -4 5043.50 437.071  16
   6   7  -4 5021.37 411.350  15
   6   7  -4 5056.61 383.409  13
   6   7  -3 16171.6 762.161  16
   6   7  -3 14276.6 671.263  15
   6   7  -3 15008.2 669.051  13
   6   7  -2 1727.37 302.722  16
   6   7  -2 1627.66 266.857  15
   6   7  -1 34.3320 163.290  16
   6   7   0 1318.47 316.830  19
   6   7   1-133.076 224.073  19
   6   7   2-586.523 345.087  21
   6   7   2-236.896 253.988  19
   6   7   3 7231.47 1150.63  21
   6   7   3 8031.49 586.065  19
   6   7   4 8139.20 596.137  19
   6   7   5 11967.3 706.673  19
   6   7   6 9545.16 642.296  19
   6   7   7 10039.5 623.541  19
   6   7   8 9321.19 585.827  19
   6   7   9 7748.82 487.730  19
   6   7  10 868.769 188.854  19
   6   8  -6 309.395 131.764  15
   6   8  -5-8.80143 134.600  16
   6   8  -5 104.110 142.399  15
   6   8  -4 1491.71 183.154   6
   6   8  -4 2013.92 281.286  16
   6   8  -4 1922.16 252.839  15
   6   8  -4 1841.48 213.361  13
   6   8  -3 1956.11 236.405   6
   6   8  -3 2330.22 336.929  16
   6   8  -3 2299.36 276.928  15
   6   8  -3 2083.92 261.277  13
   6   8  -2 92.4284 143.972   6
   6   8  -2 156.303 209.505  16
   6   8  -1 803.150 204.590   6
   6   8  -1 753.883 247.231  16
   6   8   0 1498.65 243.384   6
   6   8   0 1612.47 348.775  19
   6   8   0 1483.90 306.641  16
   6   8   1 729.621 293.620  19
   6   8   1 800.615 205.969   6
   6   8   2 4936.08 499.155  19
   6   8   3 4531.40 486.462  19
   6   8   4 9030.75 634.422  19
   6   8   5 365.938 266.929  19
   6   8   6 6570.65 538.122  19
   6   8   7 1641.69 323.496  19
   6   8   8-50.7586 205.683  19
   6   8   9 54.0127 164.837  19
   6   8  10 47.7575 125.953  19
   6   9  -5 3762.39 165.203   6
   6   9  -5 31.1681 93.4806  16
   6   9  -4 761.134 124.142   6
   6   9  -4 883.098 189.542  16
   6   9  -3 4328.44 294.858   6
   6   9  -3 5583.82 406.561  16
   6   9  -2 3174.08 290.632   6
   6   9  -2 3096.95 284.846  13
   6   9  -1 1972.18 261.864   6
   6   9  -1 1823.04 307.676  16
   6   9   0 1535.51 249.077   6
   6   9   0 1280.90 287.192  16
   6   9   1 645.724 278.777  19
   6   9   1 826.982 211.559   6
   6   9   2-99.4853 248.459  19
   6   9   3-74.9076 271.534  19
   6   9   4 692.578 293.137  19
   6   9   5 8532.08 610.529  19
   6   9   6 2122.56 354.894  19
   6   9   7 1705.21 302.235  19
   6   9   8 398.672 196.539  19
   6   9   9 3942.83 297.022  19
   6  10  -4 295.057 99.7688  16
   6  10  -3 791.629 129.634   6
   6  10  -3 1171.84 182.097  16
   6  10  -2 276.674 128.500   6
   6  10  -2 384.796 156.314  16
   6  10  -1 104.038 103.788  13
   6  10  -1 31.9026 128.830   6
   6  10  -1 127.462 156.409  16
   6  10   0 857.122 196.298   6
   6  10   0 665.292 216.788  16
   6  10   1 1309.09 225.094   6
   6  10   1 1365.58 259.435  16
   6  10   2 1581.88 245.347   6
   6  10   2 1904.44 321.209  19
   6  10   3 2191.75 333.776  19
   6  10   4 499.576 238.620  19
   6  10   5 4052.44 395.229  19
   6  10   6 7084.15 464.187  19
   6  10   7 2380.41 283.776  19
   6  10   8 131.549 126.565  19
   6  11  -2 455.169 90.9597   6
   6  11  -2 699.367 118.049  16
   6  11  -1 363.532 112.712   6
   6  11  -1 582.392 129.281  16
   6  11   0 1031.84 168.706   6
   6  11   0 1049.35 178.004  16
   6  11   1-115.465 139.963   6
   6  11   1 133.861 135.465  16
   6  11   2-83.3556 141.152   6
   6  11   2-68.0715 135.463  16
   6  11   3 816.752 203.282  19
   6  11   3 487.857 162.404   6
   6  11   3 683.104 178.747  16
   6  11   4 73.1509 158.970  19
   6  11   4-34.7040 122.770   6
   6  11   5 974.971 206.966  19
   6  11   5 798.186 151.031   6
   6  11   6 760.390 167.095  19
   6  11   7 433.457 119.282  19
   6  12   2 860.266 114.346   6
   7  -7  -3 1516.41 135.666   4
   7  -6  -5 6242.15 273.416   4
   7  -6  -4 4234.96 264.849   4
   7  -6  -2 728.250 169.000  14
   7  -6  -1 1631.71 216.835  14
   7  -5  -6 439.937 119.363   4
   7  -5  -5 128.346 141.730   4
   7  -5  -4-67.3365 140.812  14
   7  -5  -3 5561.68 408.928  14
   7  -5  -2 10831.7 556.846  14
   7  -5  -1 3586.71 343.372  14
   7  -5   0 8299.70 485.523  14
   7  -4  -7 284.217 92.6428   4
   7  -4  -6 11142.7 377.791  12
   7  -4  -6 11504.5 443.636   4
   7  -4  -5 22265.0 619.629  12
   7  -4  -5 22859.6 751.607  14
   7  -4  -4 15599.9 566.031  12
   7  -4  -4 17820.8 714.940  14
   7  -4  -3 9266.84 546.468  14
   7  -4  -2 17950.4 765.145  14
   7  -4  -1 6857.74 493.491  14
   7  -4   0 1353.05 257.911  14
   7  -4   1 3910.22 360.755  14
   7  -3  -7 2672.09 206.151  12
   7  -3  -7 2668.96 203.298   4
   7  -3  -6 411.808 148.356  12
   7  -3  -5-75.7466 164.957  12
   7  -3  -5 108.720 165.967  14
   7  -3  -4 853.894 226.450  14
   7  -3  -3-4.90338 190.867  14
   7  -3  -2 51.7534 175.756  14
   7  -3  -1 13620.9 700.551  14
   7  -3   0 20719.6 829.706  14
   7  -3   1 33232.8 1026.11  14
   7  -3   2 8004.40 509.133  14
   7  -2  -8 156.868 85.5828  12
   7  -2  -7 5559.07 326.651  12
   7  -2  -7 5558.88 295.886   4
   7  -2  -6 11025.8 528.509  12
   7  -2  -6 11708.4 534.316  14
   7  -2  -5 10929.7 576.264  14
   7  -2  -4 21837.7 854.246  14
   7  -2  -3 3223.43 368.484  14
   7  -2  -2 16609.6 780.685  14
   7  -2  -1 438.217 202.796  14
   7  -2   0 1979.84 300.011  14
   7  -2   1 1601.90 286.001  14
   7  -2   2 691.366 215.364  14
   7  -2   3 2498.20 312.933  14
   7  -1  -8 4431.55 247.054  12
   7  -1  -7 4482.54 326.682  12
   7  -1  -7 4360.86 262.866   4
   7  -1  -6 7449.91 439.659  14
   7  -1  -5 6235.79 452.848  14
   7  -1  -4 1133.64 252.557  14
   7  -1  -3 103.736 191.067  14
   7  -1  -2 22811.4 899.296  14
   7  -1  -1 11978.0 655.840  14
   7  -1   0 42327.5 1201.29  14
   7  -1   1 21432.7 848.951  14
   7  -1   4 15465.7 720.365  14
   7   0  -8 177.924 103.264  12
   7   0  -7 81.8515 141.428  12
   7   0  -6 5881.23 379.912  15
   7   0  -6 6329.26 393.489  14
   7   0  -5 6650.84 454.347  14
   7   0  -4 14007.7 685.709  14
   7   0  -3 75713.1 1602.34  14
   7   0  -3 75690.6 1410.98  13
   7   0  -2 1922.08 308.929  14
   7   0  -2 1857.08 250.200  13
   7   0  -1 5384.09 452.155  14
   7   1  -8 12884.5 414.733  12
   7   1  -7 5738.85 369.808  12
   7   1  -7 5482.71 318.844  15
   7   1  -6 10513.8 524.474  15
   7   1  -5 2129.22 271.432  14
   7   1  -4 1540.71 261.669  14
   7   1  -4 1616.29 251.422  13
   7   1  -3 499.294 182.232  13
   7   1  -3 512.759 206.379  14
   7   1  -2 498.377 156.542  13
   7   1  -2 760.130 226.199  14
   7   1  -1 460.542 191.642  14
   7   2  -8 428.494 101.670  12
   7   2  -8 175.526 84.5616  15
   7   2  -7 879.280 182.286  12
   7   2  -7 960.851 183.643  15
   7   2  -6 973.125 224.995  15
   7   2  -5-212.027 208.694  15
   7   2  -4 3585.57 350.621  13
   7   2  -3 16226.9 719.004  14
   7   2  -3 16054.4 694.079  13
   7   2  -2 24762.5 908.219  14
   7   2  -2 25891.5 849.192  13
   7   2  -1 40642.1 1170.30  14
   7   2  -1 39387.4 1032.37  13
   7   3  -8 2916.56 195.774  15
   7   3  -7 10070.8 408.173  12
   7   3  -7 10313.0 458.503  15
   7   3  -6 8522.26 490.850  15
   7   3  -5 4078.75 398.233  15
   7   3  -5 4582.44 382.235  13
   7   3  -4 2053.75 252.387  16
   7   3  -4 2266.13 299.482  13
   7   3  -3 6547.00 461.391  13
   7   3  -2 37.4130 147.503  13
   7   3  -2 70.4478 141.165  14
   7   3  -1 2623.15 326.718  14
   7   4  -8 748.034 119.141  15
   7   4  -7 412.862 159.767  15
   7   4  -6 167.249 183.888  15
   7   4  -5 154.977 154.642  16
   7   4  -5 15.1446 212.019  15
   7   4  -5 25.7774 145.742  13
   7   4  -4 2510.82 295.184  16
   7   4  -4 2289.37 337.216  15
   7   4  -4 2576.97 313.389  13
   7   4  -3 1472.95 242.662  16
   7   4  -3 1585.86 264.552  13
   7   4  -2 19359.0 760.360  16
   7   4  -2 19782.0 807.349  13
   7   4  -1 3053.29 331.123  16
   7   4   0 4766.92 431.406  14
   7   5  -7 3850.67 287.859  15
   7   5  -6 2497.83 288.654  15
   7   5  -5 11299.1 547.857  16
   7   5  -5 11561.6 590.939  15
   7   5  -5 11811.8 565.762  13
   7   5  -4 5181.12 408.654  16
   7   5  -4 4791.01 435.966  15
   7   5  -4 5404.15 421.820  13
   7   5  -3 2732.72 320.309  16
   7   5  -3 2766.40 361.234  15
   7   5  -3 3019.33 345.904  13
   7   5  -2 4062.46 394.313  16
   7   5  -2 4811.43 418.641  13
   7   5  -1 1375.31 263.447  16
   7   5   0 227.867 166.002  16
   7   5   1 294.308 203.669  19
   7   5   2 369.528 237.138  19
   7   5   3 2217.08 315.552  19
   7   5   4 2868.18 344.067  19
   7   5   5 14518.7 689.257  19
   7   5   6 7232.36 505.102  19
   7   5   7 9955.69 560.065  19
   7   6  -7 2071.91 196.417  15
   7   6  -6 109.813 147.175  15
   7   6  -5 545.148 178.617  16
   7   6  -5 512.622 202.883  15
   7   6  -5 438.849 155.318  13
   7   6  -4 133.190 147.098  13
   7   6  -4 126.578 157.614  16
   7   6  -4 250.422 214.692  15
   7   6  -3 2698.92 329.523  16
   7   6  -3 2210.06 313.145  15
   7   6  -3 2546.05 320.959  13
   7   6  -2 1950.77 299.787  16
   7   6  -2 1842.63 295.828  15
   7   6  -1 1755.94 292.475  16
   7   6  -1 1702.67 282.225  15
   7   6   0 19396.9 857.350  16
   7   6   1 29015.2 1033.35  19
   7   6   2 36748.6 2443.56  21
   7   6   2 40811.1 1201.47  19
   7   6   3 1061.03 280.550  19
   7   6   4 6154.70 515.844  19
   7   6   5 4373.44 449.942  19
   7   6   6 284.541 221.851  19
   7   6   7 5.73168 178.116  19
   7   6   8 2614.94 314.819  19
   7   6   9 306.941 177.146  19
   7   7  -6 2642.45 228.003  15
   7   7  -5 4132.83 317.525  16
   7   7  -5 4121.45 319.540  15
   7   7  -4 3808.31 349.438  16
   7   7  -4 3848.46 336.612  15
   7   7  -4 3858.36 316.228  13
   7   7  -3 3070.39 337.282  16
   7   7  -3 2501.89 306.499  15
   7   7  -3 2624.57 295.350  13
   7   7  -2 4809.25 427.629  16
   7   7  -2 4429.99 377.055  15
   7   7  -2 4363.71 394.692  13
   7   7  -1 5856.77 505.907  16
   7   7  -1 5712.38 413.485  15
   7   7   0 359.549 199.507  16
   7   7   1-18.7495 226.028  19
   7   7   2 1039.78 293.629  19
   7   7   3 9839.27 638.327  19
   7   7   4 258.869 225.852  19
   7   7   5 3083.02 392.775  19
   7   7   6 5780.30 484.030  19
   7   7   7 7174.09 520.078  19
   7   7   8 7342.13 483.602  19
   7   7   9 5425.25 370.742  19
   7   7  10 2031.31 192.109  19
   7   8  -5-24.3699 108.174  16
   7   8  -5 113.596 113.526  15
   7   8  -4 918.319 185.774  16
   7   8  -4 978.464 180.851  15
   7   8  -4 894.310 148.447  13
   7   8  -3 1562.31 257.172  16
   7   8  -3 1546.34 216.819  15
   7   8  -3 1361.53 209.617  13
   7   8  -2 2077.26 304.174  16
   7   8  -2 1675.10 252.518  13
   7   8  -1 974.572 247.691  16
   7   8   0 5858.18 482.171  16
   7   8   1 10725.0 674.739  19
   7   8   2 4421.38 462.452  19
   7   8   3 14479.8 765.596  19
   7   8   4 5161.76 495.196  19
   7   8   5 2277.53 355.336  19
   7   8   6 1112.72 286.534  19
   7   8   7 1004.40 252.962  19
   7   8   8 44.8435 173.553  19
   7   8   9 402.790 156.271  19
   7   9  -4 133.451 108.989  16
   7   9  -3 1170.25 199.080  16
   7   9  -2 8114.40 469.824  16
   7   9  -2 6546.12 366.159  13
   7   9  -1 2057.77 291.458  16
   7   9   0 662.477 221.945  16
   7   9   1-96.1173 196.176  16
   7   9   2-23.7870 239.741  19
   7   9   3 63.0929 232.916  19
   7   9   4 2533.65 373.694  19
   7   9   5 5174.29 463.323  19
   7   9   6 7505.00 496.847  19
   7   9   7 6382.86 431.558  19
   7   9   8 498.138 170.491  19
   7   9   9 1263.69 158.712  19
   7  10  -3 503.410 114.457  16
   7  10  -2 796.931 162.432  16
   7  10  -1 55.8439 87.9495  13
   7  10  -1 9.77586 128.942  16
   7  10   0 786.584 198.616  16
   7  10   1 2000.92 278.481  16
   7  10   2 1415.58 246.461  16
   7  10   3 3384.46 358.594  19
   7  10   4 2306.43 306.591  19
   7  10   5 1085.45 244.182  19
   7  10   6 1180.66 226.593  19
   7  10   7 2164.75 236.648  19
   7  10   8-26.6502 96.5185  19
   7  11  -1 1988.81 165.578  16
   7  11   0 1026.14 148.910  16
   7  11   1 606.493 145.856  16
   7  11   2-124.784 119.951  16
   7  11   3-77.3134 118.129  16
   7  11   4-80.8947 117.579  16
   7  11   5 980.949 168.868  19
   7  11   5 868.392 148.849  16
   7  11   6 1089.62 152.137  19
   7  11   6 848.025 124.393  16
   8  -6  -3 1392.61 128.150   4
   8  -6  -2 565.642 108.101   4
   8  -5  -5-35.8896 72.7717   4
   8  -5  -4 121.624 101.334   4
   8  -5  -3 186.464 120.308  14
   8  -5  -2 1867.06 222.951  14
   8  -5  -1 4233.90 315.075  14
   8  -5   0 4786.46 330.161  14
   8  -4  -6 2698.16 150.932   4
   8  -4  -5 5511.23 279.467   4
   8  -4  -4 12630.0 508.306  14
   8  -4  -3 4249.84 337.780  14
   8  -4  -2 14105.8 611.495  14
   8  -4  -1 4444.71 375.999  14
   8  -4   0 374.120 181.846  14
   8  -4   1 5106.46 385.621  14
   8  -3  -6 197.814 92.0165   4
   8  -3  -6 197.026 76.6206  12
   8  -3  -5 143.798 107.687  12
   8  -3  -5 67.0652 117.215  14
   8  -3  -4 2264.91 244.647  12
   8  -3  -4 2309.10 270.754  14
   8  -3  -3 273.711 183.537  14
   8  -3  -2 9144.52 547.968  14
   8  -3  -1 7469.41 511.300  14
   8  -3   0 4874.66 413.056  14
   8  -3   1 3688.88 376.003  14
   8  -3   2 10095.2 560.618  14
   8  -2  -7 7185.79 238.669  12
   8  -2  -6 2847.07 217.037  12
   8  -2  -6 2812.09 212.833   4
   8  -2  -5 15139.3 550.418  12
   8  -2  -5 16080.6 591.307  14
   8  -2  -4 7325.35 456.272  14
   8  -2  -3 18627.6 766.855  14
   8  -2  -2 19742.4 819.373  14
   8  -2  -1 14259.4 709.558  14
   8  -2   0 4670.64 436.842  14
   8  -2   1 425.541 204.778  14
   8  -2   2 1278.45 269.816  14
   8  -2   3-56.6692 167.694  14
   8  -1  -7 1635.62 153.046  12
   8  -1  -6 4640.79 302.201  12
   8  -1  -5 1632.89 228.547  14
   8  -1  -4-55.6814 153.945  14
   8  -1  -3-14.0868 176.462  14
   8  -1  -2 5513.81 461.122  14
   8  -1  -1-10.3291 184.272  14
   8  -1   0 13108.7 694.194  14
   8  -1   1 30086.5 1037.87  14
   8  -1   2 34648.8 1109.32  14
   8  -1   3 12972.0 703.737  14
   8  -1   4 17872.8 787.886  14
   8  -1   5 3974.92 389.734  14
   8   0  -7 169.648 98.5636  12
   8   0  -6 4249.36 307.244  12
   8   0  -5 10850.1 492.946  15
   8   0  -5 11593.4 517.476  14
   8   0  -4 11729.3 588.129  14
   8   0  -3 36600.9 1084.99  14
   8   0  -2 10640.1 620.557  14
   8   0  -1 14743.9 741.293  14
   8   0   0 140.943 194.235  14
   8   0   1 8017.98 563.729  14
   8   0   2 1688.50 309.812  14
   8   0   3 314.733 205.514  14
   8   0   4 256.634 199.160  14
   8   0   5 502.290 219.416  14
   8   0   6 1920.62 302.626  14
   8   1  -7 2243.27 187.038  12
   8   1  -6 4369.69 321.691  12
   8   1  -6 4081.95 278.936  15
   8   1  -5 6902.90 424.843  15
   8   1  -5 7271.92 400.150  14
   8   1  -4 8364.54 490.618  14
   8   1  -3 77.4466 163.092  14
   8   1  -3 55.2908 133.817  13
   8   1  -2 365.235 218.561  14
   8   1  -2 347.745 158.471  13
   8   1  -1 2023.18 313.654  14
   8   1  -1 2341.97 260.777  13
   8   1   0 4943.34 455.590  14
   8   1   1 10328.1 636.522  14
   8   1   2 21745.8 917.501  14
   8   1   3 12472.1 699.430  14
   8   1   4 25491.7 982.699  14
   8   2  -7 374.936 99.9382  12
   8   2  -7 201.109 87.1297  15
   8   2  -6 266.063 134.712  12
   8   2  -6 413.082 149.976  15
   8   2  -5 2355.57 288.711  15
   8   2  -4 12395.1 559.178  14
   8   2  -3 11928.5 605.245  14
   8   2  -3 12114.6 589.184  13
   8   2  -2 30519.3 1011.64  14
   8   2  -2 29924.3 914.415  13
   8   2  -1 21428.4 877.455  14
   8   2  -1 21015.7 763.814  13
   8   2   0 14641.5 758.372  14
   8   2   0 14402.8 619.584  13
   8   2   1 26301.5 994.949  14
   8   2   2 17663.1 824.600  14
   8   3  -7 6592.68 278.352  15
   8   3  -6 6827.47 343.634  12
   8   3  -6 7046.24 382.879  15
   8   3  -5 9849.94 512.832  15
   8   3  -4 3402.21 364.553  15
   8   3  -4 3271.41 323.359  13
   8   3  -3-51.0219 146.864  13
   8   3  -2 588.330 204.989  13
   8   3  -2 707.047 212.015  14
   8   3  -1 56.3523 156.442  13
   8   3  -1-45.6334 187.212  14
   8   3   0 731.792 234.411  14
   8   3   1 15176.1 766.855  14
   8   3   2 12947.8 725.505  14
   8   4  -7 582.423 108.822  15
   8   4  -6 1086.67 188.286  15
   8   4  -5 784.051 220.863  15
   8   4  -4 790.566 163.200  16
   8   4  -4 778.699 238.882  15
   8   4  -4 852.838 199.264  13
   8   4  -3 3001.34 282.558  16
   8   4  -3 3445.63 349.572  13
   8   4  -2 17126.4 733.095  13
   8   4  -1 17237.1 751.276  14
   8   4  -1 17815.1 740.820  13
   8   4   0 28624.8 1008.94  14
   8   4   1 11743.4 679.881  14
   8   5  -6 3963.20 272.699  15
   8   5  -5 4589.45 342.903  15
   8   5  -4 2968.11 270.711  16
   8   5  -4 3363.44 344.837  15
   8   5  -4 3357.09 312.611  13
   8   5  -3 1284.89 238.847  13
   8   5  -3 1295.38 212.812  16
   8   5  -3 948.142 259.439  15
   8   5  -2 1808.20 259.169  16
   8   5  -2 2250.31 306.777  13
   8   5  -1 227.341 153.520  16
   8   5   0 3249.73 339.856  16
   8   5   0 3188.90 360.020  14
   8   5   1 8490.34 523.465  16
   8   5   1 8801.28 582.328  14
   8   5   2 2860.69 347.505  19
   8   5   3 7159.13 494.227  19
   8   5   4 3160.37 347.790  19
   8   6  -6 208.947 103.586  15
   8   6  -5 569.458 157.996  15
   8   6  -4 45.9745 126.379  13
   8   6  -4 160.789 118.384  16
   8   6  -4 140.160 159.284  15
   8   6  -3 1194.08 220.282  13
   8   6  -3 1135.10 206.918  16
   8   6  -3 1117.26 239.532  15
   8   6  -2 2906.00 315.852  16
   8   6  -2 2822.55 334.459  15
   8   6  -2 3208.21 335.528  13
   8   6  -1 6729.64 476.605  16
   8   6  -1 7433.90 485.704  15
   8   6   0 2786.54 344.539  16
   8   6   1 6637.92 482.647  16
   8   6   1 6082.09 471.239  14
   8   6   2 4191.84 423.664  19
   8   6   3 6977.49 509.146  19
   8   6   4 2989.66 367.765  19
   8   6   5 281.633 188.946  19
   8   6   6 155.179 179.758  19
   8   6   7 422.863 183.789  19
   8   7  -5 664.471 133.973  15
   8   7  -4 3978.38 280.035  16
   8   7  -4 3874.43 285.572  15
   8   7  -4 3787.73 269.038  13
   8   7  -3 1744.93 226.257  16
   8   7  -3 1765.62 230.478  15
   8   7  -3 1723.79 228.510  13
   8   7  -2 1203.02 222.054  13
   8   7  -2 1317.83 225.301  16
   8   7  -2 1467.76 227.971  15
   8   7  -1 123.810 158.845  16
   8   7  -1 13.7599 143.752  15
   8   7   0 121.947 162.693  16
   8   7   1 56.3978 171.066  16
   8   7   2 405.624 238.502  19
   8   7   3 3262.38 390.004  19
   8   7   4 392.253 221.702  19
   8   7   5 1940.21 306.074  19
   8   7   6 4745.59 399.731  19
   8   7   7 3879.99 344.179  19
   8   7   8 2911.17 276.380  19
   8   8  -4 67.1283 89.2754  16
   8   8  -3 19.0712 95.2754  13
   8   8  -3 195.624 126.115  16
   8   8  -2 2784.15 278.375  16
   8   8  -2 2907.70 266.536  13
   8   8  -1 2160.46 286.649  16
   8   8  -1 2545.12 278.558  13
   8   8   0 945.483 232.087  16
   8   8   1 5098.91 420.854  16
   8   8   2 6573.79 509.694  19
   8   8   2 5542.17 445.289  16
   8   8   3 11016.0 626.171  19
   8   8   4-9.70648 207.973  19
   8   8   5 1441.99 282.341  19
   8   8   6 416.227 204.078  19
   8   8   7 789.650 199.289  19
   8   8   8 1.33634 118.390  19
   8   9  -3 1265.12 150.831  16
   8   9  -2 2030.67 214.631  16
   8   9  -2 1928.33 183.463  13
   8   9  -1 944.777 174.512  13
   8   9  -1 1202.53 202.043  16
   8   9   0 573.216 186.764  16
   8   9   1 167.549 159.959  16
   8   9   2-80.4584 173.982  16
   8   9   3-155.751 210.097  19
   8   9   4 1130.05 258.954  19
   8   9   5 940.070 234.552  19
   8   9   6 2544.87 280.090  19
   8   9   7 2911.07 267.321  19
   8   9   8 4659.84 259.182  19
   8  10  -2 1671.40 149.066  16
   8  10  -1 720.132 136.802  16
   8  10   0 20.3898 82.1108  13
   8  10   0-21.3343 107.314  16
   8  10   1 137.911 126.744  16
   8  10   2 1949.80 237.496  16
   8  10   3 934.347 189.517  16
   8  10   4 1212.94 212.942  19
   8  10   4 1052.49 190.216  16
   8  10   5 1997.83 236.425  19
   8  10   6 706.031 155.126  19
   8  10   7 33.0234 88.3673  19
   8  11   1 183.043 80.9192  16
   8  11   2 73.2929 84.7861  16
   8  11   3-73.4004 89.4651  16
   8  11   4 18.8338 75.5753  16
   9  -5  -2 6391.03 238.596   4
   9  -4  -4 3533.97 180.673   4
   9  -4  -3 1794.03 175.612  14
   9  -4  -2 1728.38 192.656  14
   9  -4  -1 813.250 161.015  14
   9  -4   0 273.926 133.072  14
   9  -4   1 114.367 113.923  14
   9  -3  -5 23.9602 60.9599   4
   9  -3  -4-8.30105 92.4794  14
   9  -3  -3 476.949 110.360  12
   9  -3  -3 531.110 147.667  14
   9  -3  -2 3711.05 303.252  14
   9  -3  -1 3841.74 326.139  14
   9  -3   0 10515.8 527.124  14
   9  -3   1 4697.01 364.036  14
   9  -3   2 13155.5 566.003  14
   9  -2  -5 5326.32 233.333  12
   9  -2  -4 2057.08 197.692  12
   9  -2  -4 2207.10 217.689  14
   9  -2  -3 30946.9 823.601  14
   9  -2  -2 3772.96 342.346  14
   9  -2  -1 4721.20 387.601  14
   9  -2   0 5580.23 425.201  14
   9  -2   1 319.027 177.155  14
   9  -2   2 2694.53 317.702  14
   9  -2   3 101.355 154.704  14
   9  -2   4 1062.59 202.592  14
   9  -1  -6 5571.49 208.989  12
   9  -1  -5 161.992 100.636  12
   9  -1  -5 228.297 94.9479  14
   9  -1  -4 4969.26 325.771  14
   9  -1  -3 873.844 204.922  14
   9  -1  -2 1615.62 270.400  14
   9  -1  -1 7947.69 515.576  14
   9  -1   0 8436.69 553.707  14
   9  -1   1 8608.63 555.349  14
   9  -1   2 13347.1 684.192  14
   9  -1   3 7030.43 495.978  14
   9  -1   4 8291.21 521.985  14
   9  -1   5 9588.28 523.478  14
   9   0  -6 6967.36 265.385  12
   9   0  -5 7435.53 355.031  12
   9   0  -5 7023.43 295.227  15
   9   0  -5 7791.30 322.579  14
   9   0  -4 15677.2 564.202  14
   9   0  -3 4842.30 370.939  14
   9   0  -2 11227.9 591.324  14
   9   0  -1 19742.6 811.440  14
   9   0   0 5223.74 464.871  14
   9   0   1 961.460 260.765  14
   9   0   2 1069.89 266.282  14
   9   0   3 122.639 197.591  14
   9   0   4 559.665 220.638  14
   9   0   5 2112.52 317.530  14
   9   0   6-91.9789 155.194  14
   9   1  -6 1677.28 149.621  12
   9   1  -5 1541.87 180.697  15
   9   1  -4 559.709 142.918  14
   9   1  -3 190.983 150.921  14
   9   1  -2 88.3663 164.160  14
   9   1  -1 379.613 211.678  14
   9   1   0 4.11656 181.064  14
   9   1   1 3361.85 396.882  14
   9   1   2 29379.2 1053.47  14
   9   1   3 8535.22 592.810  14
   9   1   4 11649.6 677.407  14
   9   1   5 9838.54 611.291  14
   9   1   6 1826.08 303.191  14
   9   1   7 9573.23 535.440  14
   9   2  -6 526.325 97.5722  12
   9   2  -6 353.086 82.0603  15
   9   2  -5 2640.56 233.250  15
   9   2  -4 10219.6 497.574  15
   9   2  -3 5077.57 361.947  14
   9   2  -2 17562.1 721.679  14
   9   2  -2 16942.7 635.777  13
   9   2  -1 21856.7 850.304  14
   9   2  -1 20217.9 699.772  13
   9   2   0 1017.74 190.546  13
   9   2   0 989.365 249.840  14
   9   2   1 2616.77 366.817  14
   9   2   2 5808.57 510.889  14
   9   2   3 1559.01 317.018  14
   9   2   4 251.006 219.257  14
   9   2   5 768.441 266.259  14
   9   2   6 815.889 245.826  14
   9   2   7 33.9613 187.117  14
   9   2   8 1464.60 257.394  14
   9   3  -6 3611.88 191.676  15
   9   3  -5 1719.67 201.774  15
   9   3  -4 5625.01 380.838  15
   9   3  -3 1584.93 218.262  13
   9   3  -2 254.901 151.574  13
   9   3  -2 243.540 155.174  14
   9   3  -1 328.716 146.021  13
   9   3  -1 497.261 200.006  14
   9   3   0 30.4390 125.806  13
   9   3   0-90.2114 196.385  14
   9   3   1 969.788 202.156  13
   9   3   1 1175.36 277.073  14
   9   3   2 1388.19 307.084  14
   9   3   3 7352.40 579.794  14
   9   3   4 9284.23 624.687  14
   9   3   9 88.6208 127.300  14
   9   4  -6 561.252 97.8347  15
   9   4  -5 1212.12 180.280  15
   9   4  -4 500.702 188.655  15
   9   4  -3 6657.52 444.714  15
   9   4  -3 6428.64 390.651  13
   9   4  -2 5526.63 391.692  13
   9   4  -1 9575.46 529.862  14
   9   4  -1 9642.78 515.334  13
   9   4   0 11204.7 616.698  14
   9   4   0 10287.3 544.136  13
   9   4   1 10283.0 624.557  14
   9   4   2 17201.4 815.123  14
   9   4   3 8869.58 614.523  14
   9   4  10 1410.47 158.427  14
   9   5  -5 3994.74 241.761  15
   9   5  -4 7234.83 384.750  15
   9   5  -3 2607.71 287.850  15
   9   5  -3 2635.74 263.176  13
   9   5  -2-1.16946 151.103  13
   9   5  -2 73.7061 183.081  15
   9   5  -1 138.407 146.864  13
   9   5   0 103.229 142.294  13
   9   5   0-43.7353 162.256  14
   9   5   1 1533.59 279.614  14
   9   5   2 2011.55 315.002  14
   9   5   3 4833.67 464.158  14
   9   5  10 1008.99 145.215  14
   9   6  -5 623.494 104.316  15
   9   6  -4 1055.31 163.214  15
   9   6  -3 889.912 167.358  13
   9   6  -3 796.601 134.638  16
   9   6  -3 892.772 179.891  15
   9   6  -2 1623.19 196.278  16
   9   6  -2 2006.55 253.924  15
   9   6  -2 2012.80 244.893  13
   9   6  -1 6813.64 388.481  16
   9   6  -1 7997.37 448.258  15
   9   6  -1 7822.13 454.431  13
   9   6   0 5582.41 375.552  16
   9   6   0 6963.99 436.427  15
   9   6   0 6568.53 438.762  13
   9   6   1 16174.2 638.353  16
   9   6   1 16710.2 686.855  14
   9   6   2 789.449 190.541  16
   9   6   2 907.938 226.067  14
   9   6   3 7645.45 534.476  14
   9   6   4 4962.37 379.882  19
   9   6  10 1381.02 148.682  14
   9   7  -4 2240.79 161.408  15
   9   7  -3 392.204 102.680  16
   9   7  -3 619.429 133.068  15
   9   7  -3 406.075 120.591  13
   9   7  -2 868.708 167.659  13
   9   7  -2 659.628 139.863  16
   9   7  -2 708.988 151.585  15
   9   7  -1 153.820 140.869  13
   9   7  -1 175.280 120.822  16
   9   7  -1 109.147 118.145  15
   9   7   0 5.91234 140.023  13
   9   7   0-46.0061 129.418  16
   9   7   1-61.8297 141.684  16
   9   7   2 5060.37 386.061  16
   9   7   2 4590.59 363.463  14
   9   7   3 573.068 173.837  16
   9   7   3 592.006 195.635  14
   9   7   4 1921.90 265.789  19
   9   7   5 2029.01 262.690  19
   9   7   6 4949.76 337.824  19
   9   8  -3 239.420 74.0076  16
   9   8  -2 20.7431 87.4961  13
   9   8  -2 10.3698 80.5297  16
   9   8  -1 1195.64 173.610  16
   9   8  -1 1233.18 179.886  13
   9   8   0 1764.84 217.873  16
   9   8   0 2230.65 244.772  13
   9   8   1 3075.78 288.228  16
   9   8   2 6478.01 405.072  16
   9   8   3 6019.10 397.809  16
   9   8   4 2289.85 260.103  14
   9   8   5 1455.05 228.764  19
   9   8   6-12.8928 118.645  19
   9   8   7-40.7429 102.391  19
   9   9  -2 485.500 83.5903  16
   9   9  -1 652.054 117.309  16
   9   9  -1 829.637 125.265  13
   9   9   0 772.877 142.194  13
   9   9   0 795.436 141.463  16
   9   9   1 94.1606 106.700  13
   9   9   1-23.2449 110.864  16
   9   9   2-114.413 124.705  16
   9   9   3 580.243 153.026  16
   9   9   4 909.122 167.030  16
   9   9   5 644.487 143.993  16
   9  10   0 1398.54 123.623  16
   9  10   1 612.748 106.701  16
   9  10   1 687.451 102.039  13
   9  10   2 1986.83 176.683  16
   9  10   2 2412.06 177.068  13
   9  10   3 2092.86 184.113  16
   9  10   4 957.200 134.370  16
   9  10   5 780.185 113.423  16
  10  -3  -2 4250.10 225.631  14
  10  -3  -1 4171.90 249.526  14
  10  -3   0 2641.80 219.779  14
  10  -3   1 4090.52 266.845  14
  10  -3   2 8115.44 348.558  14
  10  -2  -3 11312.1 361.406  14
  10  -2  -2 4559.14 277.736  14
  10  -2  -1 3069.84 259.453  14
  10  -2   0 1089.53 189.671  14
  10  -2   1 70.6961 126.187  14
  10  -2   2 362.293 144.265  14
  10  -2   3 191.144 120.147  14
  10  -2   4 166.323 110.412  14
  10  -1  -4 179.560 67.2000  12
  10  -1  -3 167.763 82.3783  15
  10  -1  -3 285.844 111.886  14
  10  -1  -2 1595.38 209.065  14
  10  -1  -1 4758.55 342.320  14
  10  -1   0 10031.6 506.915  14
  10  -1   1 8984.70 492.541  14
  10  -1   2 7829.62 468.574  14
  10  -1   3 6522.67 414.874  14
  10  -1   4 2987.43 284.717  14
  10  -1   5 7739.16 391.067  14
  10   0  -4 5696.98 259.713  12
  10   0  -4 5734.89 232.122  14
  10   0  -3 4982.06 287.663  14
  10   0  -2 27531.0 747.973  14
  10   0  -1 5866.20 398.780  14
  10   0   0 8092.84 490.672  14
  10   0   1 5165.77 413.599  14
  10   0   2 3615.51 359.693  14
  10   0   3 156.718 168.377  14
  10   0   4 99.2103 148.242  14
  10   0   5 17.3942 138.117  14
  10   0   6 2771.41 259.538  14
  10   1  -4 405.638 105.795  15
  10   1  -3 759.571 141.166  14
  10   1  -2 555.295 162.252  14
  10   1  -1 1934.38 259.506  14
  10   1   0 2438.96 303.431  14
  10   1   1 4471.08 403.305  14
  10   1   2 12045.8 630.331  14
  10   1   3 18320.4 776.367  14
  10   1   4 7125.43 490.692  14
  10   1   5 4857.98 408.064  14
  10   1   6 7124.77 438.799  14
  10   1   7 7961.79 404.932  14
  10   2  -4 6054.57 284.345  15
  10   2  -3 10059.6 435.704  15
  10   2  -2 9755.74 447.674  14
  10   2  -1 9447.50 494.367  14
  10   2   0 13431.2 625.991  14
  10   2   1 2657.47 333.755  14
  10   2   2 183.808 191.317  14
  10   2   3 2659.03 345.860  14
  10   2   4 528.150 221.524  14
  10   2   5 450.111 203.749  14
  10   2   6 1287.66 248.613  14
  10   2   7 784.164 210.195  14
  10   2   8 3409.70 258.337  14
  10   3  -4 379.442 112.709  15
  10   3  -3-19.8457 131.933  15
  10   3  -2 27.6714 101.765  14
  10   3  -1-38.0001 137.258  14
  10   3  -1 51.5127 98.2215  13
  10   3   0 693.312 147.003  13
  10   3   0 832.669 220.477  14
  10   3   1 957.315 233.300  14
  10   3   2 4159.46 406.290  14
  10   3   3 18723.0 797.437  14
  10   3   4 10809.2 628.772  14
  10   3   5 5316.68 449.016  14
  10   3   6 8917.40 535.922  14
  10   3   7 4829.19 376.260  14
  10   3   8 893.563 177.401  14
  10   3   9 282.798 92.8507  14
  10   4  -4 1544.91 155.464  15
  10   4  -3 7669.46 365.386  15
  10   4  -2 1799.29 230.394  15
  10   4  -2 1909.07 201.203  13
  10   4  -1 8791.26 421.898  14
  10   4  -1 9064.04 416.683  13
  10   4   0 8533.69 472.194  14
  10   4   0 8642.89 426.038  13
  10   4   1 1411.74 250.703  14
  10   4   1 1227.99 183.447  13
  10   4   2 350.347 132.045  13
  10   4   2 360.516 200.612  14
  10   4   3 888.699 245.171  14
  10   4   4 1136.56 268.310  14
  10   4   5 273.987 218.178  14
  10   4   6 120.869 172.377  14
  10   4   7 569.448 193.555  14
  10   4   8 1357.81 208.651  14
  10   4   9 664.032 125.083  14
  10   5  -4 1537.72 131.689  15
  10   5  -3 2163.97 197.566  15
  10   5  -2 428.318 158.745  15
  10   5  -2 324.262 117.778  13
  10   5  -1 233.484 130.483  13
  10   5  -1 275.291 154.509  15
  10   5   0 609.704 149.527  13
  10   5   0 749.525 164.689  14
  10   5   1 5.30330 108.081  13
  10   5   1 38.9106 138.630  14
  10   5   2 2478.16 308.236  14
  10   5   2 2142.88 234.309  13
  10   5   3 2809.91 337.002  14
  10   5   4 5467.85 436.523  14
  10   5   5 5539.80 441.950  14
  10   5   6 3163.01 345.474  14
  10   5   7 861.094 206.795  14
  10   5   8 2171.98 240.159  14
  10   5   9 315.625 103.226  14
  10   6  -3 421.004 97.8397  15
  10   6  -2 860.556 143.015  15
  10   6  -2 787.852 133.079  13
  10   6  -1 4164.87 273.813  15
  10   6  -1 3940.19 272.350  13
  10   6   0 7131.37 358.953  15
  10   6   0 6813.57 369.659  13
  10   6   1 4652.52 322.390  13
  10   6   2 922.459 169.907  13
  10   6   2 745.451 185.957  14
  10   6   3 5060.40 388.548  14
  10   6   4 1503.37 253.057  14
  10   6   5-59.5684 158.052  14
  10   6   6 143.648 170.009  14
  10   6   7 298.952 154.930  14
  10   6   8 168.138 125.179  14
  10   7  -2 1385.42 137.514  13
  10   7  -1 3.67469 90.6913  13
  10   7   0 237.416 116.576  13
  10   7   1 146.715 115.659  13
  10   7   2 4254.84 293.468  13
  10   7   3 411.070 143.673  14
  10   7   4 1701.59 225.718  14
  10   7   5 1406.03 220.460  14
  10   7   6 2388.65 249.676  14
  10   7   7 1209.14 184.271  14
  10   7   8 1347.56 155.487  14
  10   8  -1 1123.81 120.746  13
  10   8   0 1122.46 109.860  16
  10   8   0 1688.60 161.669  13
  10   8   1 975.711 121.520  16
  10   8   1 1421.28 169.909  13
  10   8   2 2253.35 182.126  16
  10   8   2 2770.07 226.338  13
  10   8   3 63.0626 85.4405  16
  10   8   4 1120.04 137.090  16
  10   8   5 787.768 113.128  16
  10   8   6 608.314 119.176  14
  10   9   1 42.0097 65.2908  13
  10   9   2-32.3649 65.6551  13
  10   9   3 371.722 89.2789  13
  10   9   4 627.418 99.8886  13
  11  -2   0 412.053 83.6508  14
  11  -2   1 1156.06 125.856  14
  11  -2   2 113.354 70.1207  14
  11  -1  -1 2213.45 166.892  14
  11  -1   0 3815.83 241.254  14
  11  -1   1 3717.53 246.541  14
  11  -1   2 3550.13 247.382  14
  11  -1   3 3846.98 244.999  14
  11  -1   4 1465.42 147.127  14
  11   0  -2 8709.40 281.123  14
  11   0  -1 3627.14 228.891  14
  11   0   0 4688.74 288.214  14
  11   0   1 79.0862 116.989  14
  11   0   2 36.8562 114.290  14
  11   0   3-71.7978 118.104  14
  11   0   4-47.6044 112.826  14
  11   0   5 293.137 108.139  14
  11   1  -2 596.215 110.172  15
  11   1  -2 671.473 102.291  14
  11   1  -1 539.917 124.495  14
  11   1   0 1079.86 173.020  14
  11   1   1 10243.8 460.447  14
  11   1   2 1674.30 223.683  14
  11   1   3 4138.67 318.890  14
  11   1   4 2066.27 237.969  14
  11   1   5 1184.42 182.165  14
  11   1   6 3999.75 251.908  14
  11   2  -2 8407.66 318.109  15
  11   2  -1 7569.16 327.279  14
  11   2   0 2652.21 243.004  14
  11   2   1 6588.00 382.147  14
  11   2   2 3674.52 312.593  14
  11   2   3 863.269 197.035  14
  11   2   4-19.6176 145.908  14
  11   2   5 201.809 135.940  14
  11   2   6 568.276 148.397  14
  11   2   7 1039.02 142.539  14
  11   3  -2 0.48495 90.3492  15
  11   3  -1 358.501 100.873  14
  11   3   0 1250.81 176.320  14
  11   3   1 523.382 158.402  14
  11   3   2 938.574 202.986  14
  11   3   3 5882.92 391.550  14
  11   3   4 9454.66 481.606  14
  11   3   5 3834.06 311.544  14
  11   3   6 3082.36 268.600  14
  11   3   7 3723.76 248.604  14
  11   4  -2 5590.07 241.144  15
  11   4  -1 7440.44 321.788  15
  11   4   0 4078.39 249.251  14
  11   4   1 7830.68 381.672  14
  11   4   2 1561.26 218.286  14
  11   4   3 134.831 143.667  14
  11   4   4 157.727 142.756  14
  11   4   5 229.367 153.294  14
  11   4   6 9.38259 123.394  14
  11   4   7 795.088 148.012  14
  11   5  -1 67.4795 82.0193  15
  11   5   0 1346.23 150.507  15
  11   5   0 1179.53 125.834  13
  11   5   1 13.8710 67.1155  13
  11   5   1 22.3949 94.3422  14
  11   5   2 578.012 101.605  13
  11   5   2 603.243 145.649  14
  11   5   3 2783.85 257.677  14
  11   5   4 5844.61 359.540  14
  11   5   5 7531.71 396.575  14
  11   5   6 1980.55 219.966  14
  11   5   7 3613.46 243.766  14
  11   6   0 3850.81 194.145  13
  11   6   1 1304.80 132.267  13
  11   6   2 2165.10 163.740  13
  11   6   3 558.912 96.1974  13
  11   6   3 826.695 141.724  14
  11   6   4 1128.35 167.170  14
  11   6   5 199.158 115.685  14
  11   6   6 173.107 104.612  14
  11   6   7-5.05299 77.3894  14
  11   7   1 324.784 72.9910  13
  11   7   2 116.718 66.3151  13
  11   7   3 1095.47 108.181  13
  11   7   5 1954.15 157.292  14
  12   1   2 2996.25 173.873  14
  12   1   3 3450.39 186.589  14
  12   2   1 2267.04 147.471  14
  12   2   2 21.9399 71.9593  14
  12   2   3 1.22057 75.6936  14
  12   2   4-64.1665 79.7787  14
  12   3   2 3826.69 206.375  14
  12   3   3 1956.57 164.862  14
  12   3   4 1169.72 135.285  14
  12   3   5 2219.98 158.000  14
  12   4   3 402.136 91.8924  14
  12   4   4 110.128 76.6734  14
  12   4   5 274.380 79.3338  14
   0   0   0    0.00    0.00   0

TITL jmwtf62 in P1
REM P1 (#1 in standard setting)
CELL 1.54184   9.663900  10.176353  10.559911  84.3942  76.4586  77.9476
ZERR    2.00   0.000823   0.000716   0.000743   0.0058   0.0066   0.0066
LATT -1
SFAC C H N O Se
UNIT 42.00 42.00 6.00 2.00 2.00
TREF
HKLF 4
END
;
_shelx_hkl_checksum   34978

