 
data_shelx

_audit_creation_method            'SHELXL-2016/6'
_shelx_SHELXL_version_number      '2016/6'
_chemical_name_systematic         ?
_chemical_name_common             ?
_chemical_melting_point           ?
_chemical_formula_moiety          ?
_chemical_formula_sum
 'C20 H23 N3 O Se' 
_chemical_formula_weight          400.37
_chemical_oxdiff_usercomment 'benzyl ebeselen and dabco'

loop_
 _atom_type_symbol
 _atom_type_description
 _atom_type_scat_dispersion_real
 _atom_type_scat_dispersion_imag
 _atom_type_scat_source
 'C'  'C'   0.0181   0.0091
 'International Tables Vol C Tables 4.2.6.8 and 6.1.1.4'
 'H'  'H'   0.0000   0.0000
 'International Tables Vol C Tables 4.2.6.8 and 6.1.1.4'
 'N'  'N'   0.0311   0.0180
 'International Tables Vol C Tables 4.2.6.8 and 6.1.1.4'
 'O'  'O'   0.0492   0.0322
 'International Tables Vol C Tables 4.2.6.8 and 6.1.1.4'
 'Se'  'Se'  -0.7943   1.1372
 'International Tables Vol C Tables 4.2.6.8 and 6.1.1.4'
 
_space_group_crystal_system       monoclinic
_space_group_IT_number            14
_space_group_name_H-M_alt         'P 21/c'
_space_group_name_Hall            '-P 2ybc'
 
_shelx_space_group_comment
;
The symmetry employed for this shelxl refinement is uniquely defined
by the following loop, which should always be used as a source of
symmetry information in preference to the above space-group names.
They are only intended as comments.
;
 
loop_
 _space_group_symop_operation_xyz
 'x, y, z'
 '-x, y+1/2, -z+1/2'
 '-x, -y, -z'
 'x, -y-1/2, z-1/2'
 
_cell_length_a                    10.1249(2)
_cell_length_b                    15.9246(3)
_cell_length_c                    11.4660(2)
_cell_angle_alpha                 90
_cell_angle_beta                  106.572(2)
_cell_angle_gamma                 90
_cell_volume                      1771.93(6)
_cell_formula_units_Z             4
_cell_measurement_temperature   130.00(10) 
_cell_measurement_reflns_used   5731
_cell_measurement_theta_min     4.5380
_cell_measurement_theta_max     77.0710
 
_exptl_crystal_description        'thick plate'
_exptl_crystal_colour             colourless
_exptl_crystal_density_meas       ?
_exptl_crystal_density_method     ?
_exptl_crystal_density_diffrn     1.501          
_exptl_crystal_F_000              824
_exptl_transmission_factor_min    ?
_exptl_transmission_factor_max    ?
_exptl_crystal_size_max                             0.374
_exptl_crystal_size_mid                             0.176
_exptl_crystal_size_min                             0.045
_exptl_absorpt_coefficient_mu     2.965
_shelx_estimated_absorpt_T_min    ?
_shelx_estimated_absorpt_T_max    ?
_exptl_absorpt_correction_T_min                     0.575
_exptl_absorpt_correction_T_max                     0.883
_exptl_absorpt_correction_type            gaussian
_exptl_absorpt_process_details
;
CrysAlisPro 1.171.38.43 (Rigaku Oxford Diffraction, 2015)
Numerical absorption correction based on gaussian integration over
			a multifaceted crystal model
Empirical absorption correction using spherical harmonics,
 implemented in SCALE3 ABSPACK scaling algorithm.
;
_oxdiff_exptl_absorpt_empirical_full_min           0.763
_oxdiff_exptl_absorpt_empirical_full_max           1.273
_oxdiff_exptl_absorpt_empirical_details
;
Empirical correction (ABSPACK) includes:
- Absorption correction using spherical harmonics
- Frame scaling
;
_diffrn_ambient_temperature 130.00(10) 
_diffrn_ambient_environment N~2~
_diffrn_source 'micro-focus sealed X-ray tube'
_diffrn_source_type 'SuperNova (Cu) X-ray Source'
_diffrn_radiation_probe x-ray
_diffrn_radiation_type 'Cu K\a'
_diffrn_radiation_wavelength 1.54184
_diffrn_radiation_monochromator mirror
_diffrn_measurement_device 'four-circle diffractometer'
_diffrn_measurement_device_type 'SuperNova, Dual, Cu at zero, Atlas'
_diffrn_detector 'CCD plate'
_diffrn_detector_type Atlas
_diffrn_measurement_method '\w scans'
_diffrn_detector_area_resol_mean 10.2273
_diffrn_reflns_number             13121
_diffrn_reflns_av_unetI/netI      0.0254
_diffrn_reflns_av_R_equivalents   0.0280
_diffrn_reflns_limit_h_min        -11
_diffrn_reflns_limit_h_max        12
_diffrn_reflns_limit_k_min        -20
_diffrn_reflns_limit_k_max        19
_diffrn_reflns_limit_l_min        -14
_diffrn_reflns_limit_l_max        11
_diffrn_reflns_theta_min          4.556
_diffrn_reflns_theta_max          77.119
_diffrn_reflns_theta_full         67.684
_diffrn_measured_fraction_theta_max   0.988
_diffrn_measured_fraction_theta_full  0.999
_diffrn_reflns_Laue_measured_fraction_max    0.988
_diffrn_reflns_Laue_measured_fraction_full   0.999
_diffrn_reflns_point_group_measured_fraction_max   0.988
_diffrn_reflns_point_group_measured_fraction_full  0.999
_reflns_number_total              3711
_reflns_number_gt                 3333
_reflns_threshold_expression      'I > 2\s(I)'
_reflns_Friedel_coverage          0.000
_reflns_Friedel_fraction_max      .
_reflns_Friedel_fraction_full     .
 
_reflns_special_details
;
 Reflections were merged by SHELXL according to the crystal
 class for the calculation of statistics and refinement.
 
 _reflns_Friedel_fraction is defined as the number of unique
 Friedel pairs measured divided by the number that would be
 possible theoretically, ignoring centric projections and
 systematic absences.
;
 
_computing_data_collection     'CrysAlisPro 1.171.38.43 (Rigaku OD, 2015)'
_computing_cell_refinement     'CrysAlisPro 1.171.38.43 (Rigaku OD, 2015)'
_computing_data_reduction      'CrysAlisPro 1.171.38.43 (Rigaku OD, 2015)'
_computing_structure_solution     ?
_computing_structure_refinement 'SHELXL-2016/6 (Sheldrick, 2016)'
_computing_molecular_graphics     ?
_computing_publication_material   ?
_refine_special_details           ?
_refine_ls_structure_factor_coef  Fsqd
_refine_ls_matrix_type            full
_refine_ls_weighting_scheme       calc
_refine_ls_weighting_details
'w=1/[\s^2^(Fo^2^)+(0.0307P)^2^+0.9873P] where P=(Fo^2^+2Fc^2^)/3'
_atom_sites_solution_primary      ?
_atom_sites_solution_secondary    ?
_atom_sites_solution_hydrogens    geom
_refine_ls_hydrogen_treatment     constr
_refine_ls_extinction_method      none
_refine_ls_extinction_coef        .
_refine_ls_number_reflns          3711
_refine_ls_number_parameters      226
_refine_ls_number_restraints      0
_refine_ls_R_factor_all           0.0308
_refine_ls_R_factor_gt            0.0258
_refine_ls_wR_factor_ref          0.0657
_refine_ls_wR_factor_gt           0.0626
_refine_ls_goodness_of_fit_ref    1.056
_refine_ls_restrained_S_all       1.056
_refine_ls_shift/su_max           0.001
_refine_ls_shift/su_mean          0.000
 
loop_
 _atom_site_label
 _atom_site_type_symbol
 _atom_site_fract_x
 _atom_site_fract_y
 _atom_site_fract_z
 _atom_site_U_iso_or_equiv
 _atom_site_adp_type
 _atom_site_occupancy
 _atom_site_site_symmetry_order  
 _atom_site_calc_flag
 _atom_site_refinement_flags_posn
 _atom_site_refinement_flags_adp
 _atom_site_refinement_flags_occupancy
 _atom_site_disorder_assembly
 _atom_site_disorder_group
C1 C 0.35101(17) 0.42908(11) 0.63387(15) 0.0168(3) Uani 1 1 d . . . . .
C2 C 0.26199(18) 0.49711(12) 0.59711(17) 0.0201(3) Uani 1 1 d . . . . .
H2 H 0.224111 0.509887 0.513256 0.024 Uiso 1 1 calc R U . . .
C3 C 0.23008(19) 0.54567(12) 0.68587(18) 0.0235(4) Uani 1 1 d . . . . .
H3 H 0.170322 0.592495 0.662026 0.028 Uiso 1 1 calc R U . . .
C4 C 0.2839(2) 0.52723(12) 0.80963(17) 0.0233(4) Uani 1 1 d . . . . .
H4 H 0.260042 0.561054 0.868824 0.028 Uiso 1 1 calc R U . . .
C5 C 0.37183(19) 0.45972(12) 0.84565(16) 0.0211(4) Uani 1 1 d . . . . .
H5 H 0.408183 0.446522 0.929518 0.025 Uiso 1 1 calc R U . . .
C6 C 0.40662(17) 0.41120(11) 0.75766(16) 0.0169(3) Uani 1 1 d . . . . .
C7 C 0.50841(18) 0.34219(11) 0.78794(16) 0.0183(3) Uani 1 1 d . . . . .
C8 C 0.62775(18) 0.24361(11) 0.68573(16) 0.0189(3) Uani 1 1 d . . . . .
H8A H 0.594607 0.208910 0.611459 0.023 Uiso 1 1 calc R U . . .
H8B H 0.635947 0.206800 0.757028 0.023 Uiso 1 1 calc R U . . .
C9 C 0.76844(18) 0.27931(11) 0.69141(15) 0.0170(3) Uani 1 1 d . . . . .
C10 C 0.80608(19) 0.29159(12) 0.58475(16) 0.0216(4) Uani 1 1 d . . . . .
H10 H 0.744041 0.276693 0.508471 0.026 Uiso 1 1 calc R U . . .
C11 C 0.9341(2) 0.32556(13) 0.58962(17) 0.0243(4) Uani 1 1 d . . . . .
H11 H 0.959343 0.333056 0.516614 0.029 Uiso 1 1 calc R U . . .
C12 C 1.02521(19) 0.34859(12) 0.70012(18) 0.0227(4) Uani 1 1 d . . . . .
H12 H 1.112490 0.371799 0.702925 0.027 Uiso 1 1 calc R U . . .
C13 C 0.9878(2) 0.33743(12) 0.80683(17) 0.0236(4) Uani 1 1 d . . . . .
H13 H 1.049215 0.353541 0.882820 0.028 Uiso 1 1 calc R U . . .
C14 C 0.86034(19) 0.30264(12) 0.80202(16) 0.0211(4) Uani 1 1 d . . . . .
H14 H 0.835642 0.294678 0.875208 0.025 Uiso 1 1 calc R U . . .
C15 C 0.3073(2) 0.33390(14) 0.25990(18) 0.0303(5) Uani 1 1 d . . . . .
H15A H 0.278620 0.280311 0.289114 0.036 Uiso 1 1 calc R U . . .
H15B H 0.409058 0.334028 0.279721 0.036 Uiso 1 1 calc R U . . .
C16 C 0.2440(2) 0.34061(13) 0.12056(17) 0.0264(4) Uani 1 1 d . . . . .
H16A H 0.318631 0.340897 0.080448 0.032 Uiso 1 1 calc R U . . .
H16B H 0.184728 0.291185 0.090661 0.032 Uiso 1 1 calc R U . . .
C17 C 0.2509(2) 0.48972(13) 0.13801(17) 0.0260(4) Uani 1 1 d . . . . .
H17A H 0.198086 0.542444 0.115188 0.031 Uiso 1 1 calc R U . . .
H17B H 0.329225 0.490939 0.102381 0.031 Uiso 1 1 calc R U . . .
C18 C 0.3067(2) 0.48388(13) 0.27899(17) 0.0280(4) Uani 1 1 d . . . . .
H18A H 0.408634 0.486381 0.303757 0.034 Uiso 1 1 calc R U . . .
H18B H 0.272318 0.532109 0.316376 0.034 Uiso 1 1 calc R U . . .
C19 C 0.10992(19) 0.40393(14) 0.28747(18) 0.0276(4) Uani 1 1 d . . . . .
H19A H 0.076316 0.449703 0.330045 0.033 Uiso 1 1 calc R U . . .
H19B H 0.077734 0.349880 0.312211 0.033 Uiso 1 1 calc R U . . .
C20 C 0.0506(2) 0.41541(14) 0.14768(18) 0.0285(4) Uani 1 1 d . . . . .
H20A H -0.012663 0.368406 0.113678 0.034 Uiso 1 1 calc R U . . .
H20B H -0.002775 0.468323 0.130529 0.034 Uiso 1 1 calc R U . . .
N1 N 0.52716(15) 0.30996(10) 0.68443(13) 0.0181(3) Uani 1 1 d . . . . .
N2 N 0.26178(15) 0.40505(9) 0.32233(13) 0.0179(3) Uani 1 1 d . . . . .
N3 N 0.16188(17) 0.41778(10) 0.08895(14) 0.0238(3) Uani 1 1 d . . . . .
O1 O 0.56914(14) 0.31832(9) 0.89196(12) 0.0239(3) Uani 1 1 d . . . . .
Se1 Se 0.41751(2) 0.35478(2) 0.53423(2) 0.01649(7) Uani 1 1 d . . . . .
 
loop_
 _atom_site_aniso_label
 _atom_site_aniso_U_11
 _atom_site_aniso_U_22
 _atom_site_aniso_U_33
 _atom_site_aniso_U_23
 _atom_site_aniso_U_13
 _atom_site_aniso_U_12
C1 0.0155(8) 0.0179(8) 0.0172(8) -0.0003(6) 0.0051(6) -0.0024(6)
C2 0.0181(8) 0.0215(9) 0.0193(8) 0.0030(7) 0.0032(7) -0.0002(7)
C3 0.0199(9) 0.0217(9) 0.0286(10) 0.0005(7) 0.0065(7) 0.0020(7)
C4 0.0221(9) 0.0244(9) 0.0249(9) -0.0046(7) 0.0091(7) -0.0007(7)
C5 0.0189(8) 0.0266(9) 0.0182(8) -0.0004(7) 0.0060(7) -0.0028(7)
C6 0.0142(7) 0.0196(8) 0.0171(8) 0.0009(6) 0.0047(6) -0.0021(6)
C7 0.0142(8) 0.0236(9) 0.0167(8) 0.0028(7) 0.0039(6) -0.0028(7)
C8 0.0161(8) 0.0178(8) 0.0217(9) 0.0026(7) 0.0035(7) 0.0018(6)
C9 0.0162(8) 0.0157(8) 0.0176(8) 0.0008(6) 0.0026(6) 0.0031(6)
C10 0.0183(8) 0.0285(9) 0.0167(8) -0.0037(7) 0.0026(7) 0.0008(7)
C11 0.0235(9) 0.0321(10) 0.0183(9) 0.0013(7) 0.0077(7) 0.0008(8)
C12 0.0181(8) 0.0236(9) 0.0255(10) 0.0004(7) 0.0045(7) -0.0024(7)
C13 0.0202(9) 0.0268(9) 0.0192(9) -0.0022(7) -0.0019(7) 0.0008(7)
C14 0.0212(9) 0.0271(9) 0.0143(8) 0.0022(7) 0.0037(7) 0.0012(7)
C15 0.0362(11) 0.0320(11) 0.0192(9) -0.0026(8) 0.0023(8) 0.0141(9)
C16 0.0315(10) 0.0258(10) 0.0196(9) -0.0044(7) 0.0034(8) 0.0048(8)
C17 0.0343(10) 0.0255(10) 0.0174(9) 0.0006(7) 0.0060(8) -0.0026(8)
C18 0.0347(11) 0.0292(10) 0.0176(9) -0.0004(7) 0.0032(8) -0.0153(8)
C19 0.0173(9) 0.0384(11) 0.0269(10) -0.0020(8) 0.0060(7) -0.0035(8)
C20 0.0188(9) 0.0338(11) 0.0285(10) -0.0052(8) -0.0002(8) -0.0008(8)
N1 0.0158(7) 0.0211(7) 0.0161(7) 0.0026(6) 0.0027(6) 0.0032(6)
N2 0.0169(7) 0.0190(7) 0.0178(7) -0.0003(6) 0.0049(6) 0.0004(6)
N3 0.0253(8) 0.0244(8) 0.0178(7) -0.0029(6) 0.0001(6) 0.0014(6)
O1 0.0240(7) 0.0293(7) 0.0161(6) 0.0047(5) 0.0018(5) 0.0044(5)
Se1 0.01587(10) 0.01946(10) 0.01324(10) 0.00124(6) 0.00271(7) 0.00128(7)
 
_geom_special_details
;
 All esds (except the esd in the dihedral angle between two l.s. planes)
 are estimated using the full covariance matrix.  The cell esds are taken
 into account individually in the estimation of esds in distances, angles
 and torsion angles; correlations between esds in cell parameters are only
 used when they are defined by crystal symmetry.  An approximate (isotropic)
 treatment of cell esds is used for estimating esds involving l.s. planes.
;
 
loop_
 _geom_bond_atom_site_label_1
 _geom_bond_atom_site_label_2
 _geom_bond_distance
 _geom_bond_site_symmetry_2
 _geom_bond_publ_flag
C1 C2 1.395(2) . ?
C1 C6 1.399(2) . ?
C1 Se1 1.8967(17) . ?
C2 C3 1.388(3) . ?
C2 H2 0.9500 . ?
C3 C4 1.398(3) . ?
C3 H3 0.9500 . ?
C4 C5 1.382(3) . ?
C4 H4 0.9500 . ?
C5 C6 1.393(3) . ?
C5 H5 0.9500 . ?
C6 C7 1.479(2) . ?
C7 O1 1.236(2) . ?
C7 N1 1.355(2) . ?
C8 N1 1.465(2) . ?
C8 C9 1.518(2) . ?
C8 H8A 0.9900 . ?
C8 H8B 0.9900 . ?
C9 C14 1.392(2) . ?
C9 C10 1.395(2) . ?
C10 C11 1.391(3) . ?
C10 H10 0.9500 . ?
C11 C12 1.387(3) . ?
C11 H11 0.9500 . ?
C12 C13 1.391(3) . ?
C12 H12 0.9500 . ?
C13 C14 1.391(3) . ?
C13 H13 0.9500 . ?
C14 H14 0.9500 . ?
C15 N2 1.482(2) . ?
C15 C16 1.546(3) . ?
C15 H15A 0.9900 . ?
C15 H15B 0.9900 . ?
C16 N3 1.470(2) . ?
C16 H16A 0.9900 . ?
C16 H16B 0.9900 . ?
C17 N3 1.467(2) . ?
C17 C18 1.556(2) . ?
C17 H17A 0.9900 . ?
C17 H17B 0.9900 . ?
C18 N2 1.469(2) . ?
C18 H18A 0.9900 . ?
C18 H18B 0.9900 . ?
C19 N2 1.474(2) . ?
C19 C20 1.554(3) . ?
C19 H19A 0.9900 . ?
C19 H19B 0.9900 . ?
C20 N3 1.469(3) . ?
C20 H20A 0.9900 . ?
C20 H20B 0.9900 . ?
N1 Se1 1.9019(14) . ?
 
loop_
 _geom_angle_atom_site_label_1
 _geom_angle_atom_site_label_2
 _geom_angle_atom_site_label_3
 _geom_angle
 _geom_angle_site_symmetry_1
 _geom_angle_site_symmetry_3
 _geom_angle_publ_flag
C2 C1 C6 120.20(16) . . ?
C2 C1 Se1 127.74(13) . . ?
C6 C1 Se1 112.02(13) . . ?
C3 C2 C1 118.46(17) . . ?
C3 C2 H2 120.8 . . ?
C1 C2 H2 120.8 . . ?
C2 C3 C4 121.49(18) . . ?
C2 C3 H3 119.3 . . ?
C4 C3 H3 119.3 . . ?
C5 C4 C3 119.86(17) . . ?
C5 C4 H4 120.1 . . ?
C3 C4 H4 120.1 . . ?
C4 C5 C6 119.30(17) . . ?
C4 C5 H5 120.3 . . ?
C6 C5 H5 120.3 . . ?
C5 C6 C1 120.67(17) . . ?
C5 C6 C7 123.05(16) . . ?
C1 C6 C7 116.19(16) . . ?
O1 C7 N1 124.99(17) . . ?
O1 C7 C6 125.23(17) . . ?
N1 C7 C6 109.77(15) . . ?
N1 C8 C9 111.81(14) . . ?
N1 C8 H8A 109.3 . . ?
C9 C8 H8A 109.3 . . ?
N1 C8 H8B 109.3 . . ?
C9 C8 H8B 109.3 . . ?
H8A C8 H8B 107.9 . . ?
C14 C9 C10 118.85(17) . . ?
C14 C9 C8 120.94(16) . . ?
C10 C9 C8 120.18(15) . . ?
C11 C10 C9 120.26(17) . . ?
C11 C10 H10 119.9 . . ?
C9 C10 H10 119.9 . . ?
C12 C11 C10 120.59(17) . . ?
C12 C11 H11 119.7 . . ?
C10 C11 H11 119.7 . . ?
C11 C12 C13 119.51(18) . . ?
C11 C12 H12 120.2 . . ?
C13 C12 H12 120.2 . . ?
C14 C13 C12 119.87(17) . . ?
C14 C13 H13 120.1 . . ?
C12 C13 H13 120.1 . . ?
C13 C14 C9 120.91(17) . . ?
C13 C14 H14 119.5 . . ?
C9 C14 H14 119.5 . . ?
N2 C15 C16 110.62(16) . . ?
N2 C15 H15A 109.5 . . ?
C16 C15 H15A 109.5 . . ?
N2 C15 H15B 109.5 . . ?
C16 C15 H15B 109.5 . . ?
H15A C15 H15B 108.1 . . ?
N3 C16 C15 110.54(15) . . ?
N3 C16 H16A 109.5 . . ?
C15 C16 H16A 109.5 . . ?
N3 C16 H16B 109.5 . . ?
C15 C16 H16B 109.5 . . ?
H16A C16 H16B 108.1 . . ?
N3 C17 C18 110.67(15) . . ?
N3 C17 H17A 109.5 . . ?
C18 C17 H17A 109.5 . . ?
N3 C17 H17B 109.5 . . ?
C18 C17 H17B 109.5 . . ?
H17A C17 H17B 108.1 . . ?
N2 C18 C17 110.30(15) . . ?
N2 C18 H18A 109.6 . . ?
C17 C18 H18A 109.6 . . ?
N2 C18 H18B 109.6 . . ?
C17 C18 H18B 109.6 . . ?
H18A C18 H18B 108.1 . . ?
N2 C19 C20 110.16(16) . . ?
N2 C19 H19A 109.6 . . ?
C20 C19 H19A 109.6 . . ?
N2 C19 H19B 109.6 . . ?
C20 C19 H19B 109.6 . . ?
H19A C19 H19B 108.1 . . ?
N3 C20 C19 110.77(15) . . ?
N3 C20 H20A 109.5 . . ?
C19 C20 H20A 109.5 . . ?
N3 C20 H20B 109.5 . . ?
C19 C20 H20B 109.5 . . ?
H20A C20 H20B 108.1 . . ?
C7 N1 C8 122.34(15) . . ?
C7 N1 Se1 117.36(12) . . ?
C8 N1 Se1 120.30(11) . . ?
C18 N2 C19 108.55(16) . . ?
C18 N2 C15 108.72(16) . . ?
C19 N2 C15 107.67(16) . . ?
C17 N3 C20 108.20(15) . . ?
C17 N3 C16 108.39(15) . . ?
C20 N3 C16 108.63(16) . . ?
C1 Se1 N1 84.52(7) . . ?
 
loop_
 _geom_torsion_atom_site_label_1
 _geom_torsion_atom_site_label_2
 _geom_torsion_atom_site_label_3
 _geom_torsion_atom_site_label_4
 _geom_torsion
 _geom_torsion_site_symmetry_1
 _geom_torsion_site_symmetry_2
 _geom_torsion_site_symmetry_3
 _geom_torsion_site_symmetry_4
 _geom_torsion_publ_flag
C6 C1 C2 C3 -0.3(3) . . . . ?
Se1 C1 C2 C3 -177.60(14) . . . . ?
C1 C2 C3 C4 -0.6(3) . . . . ?
C2 C3 C4 C5 0.5(3) . . . . ?
C3 C4 C5 C6 0.5(3) . . . . ?
C4 C5 C6 C1 -1.5(3) . . . . ?
C4 C5 C6 C7 174.91(17) . . . . ?
C2 C1 C6 C5 1.4(3) . . . . ?
Se1 C1 C6 C5 179.06(14) . . . . ?
C2 C1 C6 C7 -175.25(16) . . . . ?
Se1 C1 C6 C7 2.4(2) . . . . ?
C5 C6 C7 O1 2.6(3) . . . . ?
C1 C6 C7 O1 179.16(17) . . . . ?
C5 C6 C7 N1 -176.24(16) . . . . ?
C1 C6 C7 N1 0.3(2) . . . . ?
N1 C8 C9 C14 83.4(2) . . . . ?
N1 C8 C9 C10 -94.7(2) . . . . ?
C14 C9 C10 C11 0.8(3) . . . . ?
C8 C9 C10 C11 178.97(17) . . . . ?
C9 C10 C11 C12 -0.8(3) . . . . ?
C10 C11 C12 C13 0.0(3) . . . . ?
C11 C12 C13 C14 0.6(3) . . . . ?
C12 C13 C14 C9 -0.6(3) . . . . ?
C10 C9 C14 C13 -0.2(3) . . . . ?
C8 C9 C14 C13 -178.28(17) . . . . ?
N2 C15 C16 N3 2.7(3) . . . . ?
N3 C17 C18 N2 3.8(2) . . . . ?
N2 C19 C20 N3 4.2(2) . . . . ?
O1 C7 N1 C8 -2.2(3) . . . . ?
C6 C7 N1 C8 176.63(15) . . . . ?
O1 C7 N1 Se1 178.13(14) . . . . ?
C6 C7 N1 Se1 -3.00(19) . . . . ?
C9 C8 N1 C7 -89.0(2) . . . . ?
C9 C8 N1 Se1 90.65(16) . . . . ?
C17 C18 N2 C19 -60.9(2) . . . . ?
C17 C18 N2 C15 56.0(2) . . . . ?
C20 C19 N2 C18 56.3(2) . . . . ?
C20 C19 N2 C15 -61.2(2) . . . . ?
C16 C15 N2 C18 -59.9(2) . . . . ?
C16 C15 N2 C19 57.5(2) . . . . ?
C18 C17 N3 C20 56.6(2) . . . . ?
C18 C17 N3 C16 -61.1(2) . . . . ?
C19 C20 N3 C17 -61.1(2) . . . . ?
C19 C20 N3 C16 56.3(2) . . . . ?
C15 C16 N3 C17 57.2(2) . . . . ?
C15 C16 N3 C20 -60.1(2) . . . . ?
C2 C1 Se1 N1 174.31(17) . . . . ?
C6 C1 Se1 N1 -3.16(13) . . . . ?
 
loop_
 _geom_hbond_atom_site_label_D 
 _geom_hbond_atom_site_label_H 
 _geom_hbond_atom_site_label_A 
 _geom_hbond_distance_DH 
 _geom_hbond_distance_HA 
 _geom_hbond_distance_DA 
 _geom_hbond_angle_DHA 
 _geom_hbond_site_symmetry_A 
C8 H8A O1  0.99 2.49 3.396(2) 151.3 4_565
 
_refine_diff_density_max    0.321
_refine_diff_density_min   -0.416
_refine_diff_density_rms    0.062

_shelx_res_file
;
TITL jmwtf69 in P2(1)/c
    shelx.res
    created by SHELXL-2016/6 at 11:26:03 on 19-Feb-2018
CELL  1.54184  10.1249  15.9246  11.4660   90.000  106.572   90.000
ZERR     4.00   0.0002   0.0003   0.0002    0.000    0.002    0.000
LATT   1
SYMM  - X, 1/2 + Y, 1/2 - Z
SFAC  C    H    N    O    SE
UNIT  80 92 12 4 4
MERG   2
OMIT   -11  10   4
EQIV $1 x, -y+1/2, z-1/2
HTAB C8 O1_$1
FMAP   2
PLAN   20
ACTA
HTAB    2.00000
BOND   $H
CONF
L.S.  10
TEMP  -143.00
WGHT    0.030700    0.987300
FVAR       3.82094
C1    1    0.351013    0.429083    0.633871    11.00000    0.01553    0.01789 =
         0.01717   -0.00034    0.00507   -0.00242
C2    1    0.261994    0.497109    0.597106    11.00000    0.01813    0.02153 =
         0.01930    0.00299    0.00325   -0.00020
AFIX  43
H2    2    0.224111    0.509887    0.513256    11.00000   -1.20000
AFIX   0
C3    1    0.230079    0.545669    0.685873    11.00000    0.01990    0.02168 =
         0.02859    0.00054    0.00645    0.00198
AFIX  43
H3    2    0.170322    0.592495    0.662026    11.00000   -1.20000
AFIX   0
C4    1    0.283892    0.527232    0.809633    11.00000    0.02208    0.02439 =
         0.02487   -0.00462    0.00908   -0.00070
AFIX  43
H4    2    0.260042    0.561054    0.868824    11.00000   -1.20000
AFIX   0
C5    1    0.371827    0.459720    0.845649    11.00000    0.01890    0.02665 =
         0.01821   -0.00035    0.00602   -0.00276
AFIX  43
H5    2    0.408183    0.446522    0.929518    11.00000   -1.20000
AFIX   0
C6    1    0.406617    0.411201    0.757661    11.00000    0.01419    0.01956 =
         0.01714    0.00088    0.00473   -0.00213
C7    1    0.508415    0.342190    0.787941    11.00000    0.01421    0.02359 =
         0.01667    0.00284    0.00395   -0.00278
C8    1    0.627752    0.243608    0.685729    11.00000    0.01614    0.01778 =
         0.02166    0.00262    0.00351    0.00184
AFIX  23
H8A   2    0.594607    0.208910    0.611459    11.00000   -1.20000
H8B   2    0.635947    0.206800    0.757028    11.00000   -1.20000
AFIX   0
C9    1    0.768435    0.279314    0.691413    11.00000    0.01623    0.01569 =
         0.01759    0.00077    0.00257    0.00308
C10   1    0.806084    0.291591    0.584754    11.00000    0.01827    0.02845 =
         0.01670   -0.00367    0.00256    0.00078
AFIX  43
H10   2    0.744041    0.276693    0.508471    11.00000   -1.20000
AFIX   0
C11   1    0.934084    0.325557    0.589620    11.00000    0.02354    0.03207 =
         0.01833    0.00134    0.00768    0.00075
AFIX  43
H11   2    0.959343    0.333056    0.516614    11.00000   -1.20000
AFIX   0
C12   1    1.025206    0.348585    0.700122    11.00000    0.01810    0.02358 =
         0.02550    0.00041    0.00453   -0.00240
AFIX  43
H12   2    1.112490    0.371799    0.702925    11.00000   -1.20000
AFIX   0
C13   1    0.987813    0.337429    0.806830    11.00000    0.02025    0.02680 =
         0.01922   -0.00221   -0.00186    0.00076
AFIX  43
H13   2    1.049215    0.353541    0.882820    11.00000   -1.20000
AFIX   0
C14   1    0.860337    0.302636    0.802019    11.00000    0.02124    0.02709 =
         0.01426    0.00218    0.00369    0.00123
AFIX  43
H14   2    0.835642    0.294678    0.875208    11.00000   -1.20000
AFIX   0
C15   1    0.307274    0.333902    0.259904    11.00000    0.03619    0.03198 =
         0.01922   -0.00260    0.00231    0.01414
AFIX  23
H15A  2    0.278620    0.280311    0.289114    11.00000   -1.20000
H15B  2    0.409058    0.334028    0.279721    11.00000   -1.20000
AFIX   0
C16   1    0.244039    0.340606    0.120562    11.00000    0.03150    0.02579 =
         0.01958   -0.00442    0.00344    0.00475
AFIX  23
H16A  2    0.318631    0.340897    0.080448    11.00000   -1.20000
H16B  2    0.184728    0.291185    0.090661    11.00000   -1.20000
AFIX   0
C17   1    0.250948    0.489716    0.138011    11.00000    0.03429    0.02546 =
         0.01738    0.00064    0.00598   -0.00263
AFIX  23
H17A  2    0.198086    0.542444    0.115188    11.00000   -1.20000
H17B  2    0.329225    0.490939    0.102381    11.00000   -1.20000
AFIX   0
C18   1    0.306707    0.483876    0.278988    11.00000    0.03473    0.02919 =
         0.01757   -0.00036    0.00321   -0.01528
AFIX  23
H18A  2    0.408634    0.486381    0.303757    11.00000   -1.20000
H18B  2    0.272318    0.532109    0.316376    11.00000   -1.20000
AFIX   0
C19   1    0.109916    0.403927    0.287475    11.00000    0.01725    0.03838 =
         0.02690   -0.00203    0.00601   -0.00346
AFIX  23
H19A  2    0.076316    0.449703    0.330045    11.00000   -1.20000
H19B  2    0.077734    0.349880    0.312211    11.00000   -1.20000
AFIX   0
C20   1    0.050598    0.415409    0.147685    11.00000    0.01877    0.03380 =
         0.02848   -0.00524   -0.00020   -0.00079
AFIX  23
H20A  2   -0.012663    0.368406    0.113678    11.00000   -1.20000
H20B  2   -0.002775    0.468323    0.130529    11.00000   -1.20000
AFIX   0
N1    3    0.527157    0.309962    0.684432    11.00000    0.01579    0.02109 =
         0.01614    0.00264    0.00268    0.00317
N2    3    0.261783    0.405048    0.322333    11.00000    0.01691    0.01898 =
         0.01779   -0.00034    0.00490    0.00042
N3    3    0.161880    0.417785    0.088948    11.00000    0.02527    0.02442 =
         0.01781   -0.00295    0.00005    0.00142
O1    4    0.569142    0.318322    0.891956    11.00000    0.02399    0.02928 =
         0.01611    0.00473    0.00185    0.00443
SE1   5    0.417512    0.354781    0.534233    11.00000    0.01587    0.01946 =
         0.01324    0.00124    0.00271    0.00128
HKLF    4




REM  jmwtf69 in P2(1)/c
REM R1 =  0.0258 for    3333 Fo > 4sig(Fo)  and  0.0308 for all    3711 data
REM    226 parameters refined using      0 restraints

END

WGHT      0.0305      0.9943

REM Instructions for potential hydrogen bonds
HTAB C8 O1_$1

REM Highest difference peak  0.321,  deepest hole -0.416,  1-sigma level  0.062
Q1    1   0.6927  0.2703  0.6829  11.00000  0.05    0.32
Q2    1   0.2586  0.6387  0.6027  11.00000  0.05    0.29
Q3    1   0.3655  0.4098  0.6975  11.00000  0.05    0.28
Q4    1   0.3767  0.4292  0.7991  11.00000  0.05    0.28
Q5    1   0.2809  0.3321  0.1935  11.00000  0.05    0.27
Q6    1   0.7928  0.2814  0.6432  11.00000  0.05    0.27
Q7    1   0.5827  0.4321  0.9583  11.00000  0.05    0.27
Q8    1   0.5659  0.2798  0.6799  11.00000  0.05    0.26
Q9    1   0.2465  0.5322  0.7446  11.00000  0.05    0.26
Q10   1   0.2823  0.4949  0.2158  11.00000  0.05    0.25
Q11   1   0.3589  0.3938  0.5987  11.00000  0.05    0.25
Q12   1   0.4501  0.3747  0.7789  11.00000  0.05    0.25
Q13   1   1.0004  0.3455  0.7527  11.00000  0.05    0.25
Q14   1   0.4958  0.4166  0.5586  11.00000  0.05    0.24
Q15   1   0.6017  0.3450  0.4590  11.00000  0.05    0.24
Q16   1   0.2450  0.3620  0.6134  11.00000  0.05    0.23
Q17   1   0.4392  0.2219  0.5489  11.00000  0.05    0.23
Q18   1   0.9335  0.3070  0.7996  11.00000  0.05    0.22
Q19   1   0.3412  0.2905  0.5200  11.00000  0.05    0.22
Q20   1   0.8094  0.3045  0.7342  11.00000  0.05    0.22
;
_shelx_res_checksum    1072

_shelx_hkl_file
;
   0   0  -1 14.8829 30.8358   2
   0   0  -1 14.9189 35.6153  15
   0   0  -1 19.7194 40.3650   1
   0   0  -2 148572. 1282.60   1
   0   0  -2 145296. 1213.31  15
   0   0  -3-18.2441 115.548  15
   0   0  -3-45.0397 123.977   1
   0   0  -4 1184.66 216.719  15
   0   0  -4 1222.12 208.063   1
   0   0  -5 96.8166 141.125  15
   0   0  -5-31.7099 156.437   1
   0   0  -6 14011.8 756.323  15
   0   0  -6 13632.5 724.099   1
   0   0  -7 50.6705 155.351   1
   0   0  -7 383.502 219.731  15
   0   0  -8 18824.4 1032.87   1
   0   0  -8 19724.0 1140.79  15
   0   0  -9 315.800 185.406   6
   0   0  -9-273.558 244.608  15
   0   0 -10 3369.08 435.370   6
   0   0 -10 2999.45 445.853   4
   0   0 -11 85.1835 196.975   6
   0   0 -11 762.284 395.431   4
   0   0 -11 244.786 191.835   5
   0   0 -12 25409.5 955.563   5
   0   0 -12 26202.0 994.801   6
   0   0 -13-308.918 110.068   5
   0   0 -13-2.23334 120.294   6
   0  -1  -1 43889.4 548.265   1
   0  -1  -1 45627.5 521.085  15
   0   1  -2 116613. 1137.61  15
   0   1  -2 121857. 1282.43   1
   0  -1  -2 120458. 1168.15   1
   0  -1  -2 115912. 1106.24  15
   0  -1  -3 47609.9 898.009   1
   0   1  -3 46411.0 951.771   1
   0   1  -3 47777.0 889.744  15
   0  -1  -3 47695.0 879.063  15
   0   1  -4 121240. 1716.82   1
   0   1  -4 120918. 1657.75  15
   0  -1  -4 121378. 1665.63  15
   0  -1  -4 126565. 1691.33   1
   0  -1  -5 85061.3 1618.28  15
   0   1  -5 78971.4 1574.83   1
   0  -1  -5 81887.8 1566.31   1
   0   1  -5 81809.4 1579.85  15
   0  -1  -6 33531.6 1167.97  15
   0   1  -6 30565.9 1091.77   1
   0   1  -6 32315.8 1144.56  15
   0  -1  -6 30438.9 1078.20   1
   0  -1  -7 8804.25 693.529  15
   0  -1  -7 7975.01 627.139   1
   0   1  -7 8315.61 630.103   1
   0   1  -7 8365.11 668.894  15
   0   1  -8 57700.2 1785.79   1
   0   1  -8 62594.0 1995.96  15
   0  -1  -8 54619.7 1762.76   1
   0  -1  -8 63381.7 2007.35  15
   0  -1  -9 2609.66 449.101  15
   0  -1  -9 1749.85 327.639   6
   0  -1  -9 1628.32 345.289   4
   0   1  -9 1088.58 341.678   4
   0   1  -9 1734.91 318.221   6
   0   1  -9 2754.35 463.227  15
   0   1  -9 2481.02 416.980  14
   0  -1 -10 3589.68 490.647   4
   0   1 -10 4553.33 490.706   6
   0   1 -10 5061.09 558.427   4
   0  -1 -10 4616.59 515.441   6
   0   1 -11 2683.51 368.497   5
   0   1 -11 2896.88 397.311   6
   0  -1 -11 3252.52 421.053   6
   0  -1 -11 2636.04 435.052   4
   0  -1 -11 2755.82 364.548   5
   0   1 -12 11417.7 663.478   5
   0  -1 -12 11853.9 636.801   5
   0  -1 -12 11703.2 680.247   6
   0   1 -12 12171.3 662.163   6
   0   1 -13 10115.3 497.971   5
   0  -1 -13 10833.4 528.726   6
   0   1 -13 10599.6 498.401   6
   0   2   0 4203.50 195.650  16
   0   2   1 38396.3 668.670  16
   0   2  -1 36659.3 638.923  16
   0  -2  -1 38294.0 635.751   1
   0  -2  -2 12207.2 399.192  15
   0   2  -2 11939.5 406.415  15
   0  -2  -2 12222.2 427.201   1
   0   2  -2 11768.9 490.458  16
   0   2  -3 51742.9 1053.56   1
   0  -2  -3 54047.5 1008.28   1
   0   2  -3 53417.9 985.218  15
   0  -2  -4 26602.5 822.347   1
   0   2  -4 25495.4 805.198  15
   0  -2  -4 24909.9 789.219  15
   0   2  -4 27579.5 884.091   1
   0   2  -5 113683. 1907.91  15
   0  -2  -5 116974. 1921.35  15
   0   2  -5 109895. 1932.29   1
   0  -2  -5 107661. 1859.64   1
   0  -2  -6 596.977 219.134  15
   0   2  -6 672.704 231.147  15
   0   2  -6 515.431 198.231   1
   0  -2  -6 544.965 202.221   1
   0   2  -7 84372.3 2021.47   1
   0   2  -7 81633.5 2069.09  15
   0  -2  -7 77298.2 1967.28   1
   0   2  -8 8481.26 766.512  15
   0  -2  -8 8742.45 756.087  15
   0   2  -8 8315.77 685.881   1
   0  -2  -8 8339.15 701.749   1
   0   2  -9 25362.5 1068.10   6
   0   2  -9 25197.1 1091.39   4
   0   2  -9 27719.0 1466.64  15
   0  -2  -9 26121.8 1128.69   6
   0   2  -9 25669.0 1116.15  14
   0  -2  -9 27235.5 1390.30  15
   0  -2  -9 26717.6 1170.55   4
   0  -2 -10 4795.16 533.516   6
   0  -2 -10 4022.51 526.070   4
   0   2 -10 5206.16 498.868   6
   0  -2 -10 4464.01 443.667   5
   0   2 -11 32649.5 1169.57   6
   0   2 -11 31260.8 1207.63   5
   0  -2 -11 32009.6 1220.04   6
   0  -2 -11 30590.4 1101.33   5
   0  -2 -11 32592.1 1200.34   4
   0   2 -12 1856.65 301.634   5
   0  -2 -12 2239.37 266.433   5
   0  -2 -12 2097.16 348.182   6
   0   2 -12 1596.20 260.994   6
   0  -2 -13 1735.14 240.826   6
   0   2 -13 1542.41 223.065   5
   0   2 -13 1075.52 201.181   6
   0   3   0 70.7898 112.223  16
   0   3  -1 149150. 1460.22  16
   0   3   1 143125. 1498.00  16
   0   3  -2 211.821 44.3494   2
   0  -3  -2 258.794 129.737  15
   0  -3  -2 180.556 140.838   1
   0   3  -2 386.475 180.859  16
   0  -3  -3 79175.8 1245.88  15
   0   3  -3 82588.5 1301.79  15
   0  -3  -3 78087.0 1320.71   1
   0  -3  -4 107260. 1669.28  15
   0  -3  -4 108821. 1749.48   1
   0   3  -4 112503. 1840.76   1
   0   3  -4 114144. 1748.38  15
   0  -3  -5 53956.6 1375.69   1
   0  -3  -5 53573.3 1335.91  15
   0   3  -5 56045.2 1451.20   1
   0   3  -5 53464.6 1369.52  15
   0   3  -6 5480.19 514.897   1
   0  -3  -6 5223.65 494.935   1
   0  -3  -6 5445.37 512.349  15
   0   3  -6 5239.15 506.431  15
   0   3  -7 1656.90 345.725  15
   0   3  -7 1610.40 322.422   1
   0  -3  -7 1768.20 339.693  15
   0  -3  -7 1485.05 318.374   1
   0   3  -8 12029.9 917.902  15
   0  -3  -8 11278.8 849.083   1
   0  -3  -8 12623.9 904.022  15
   0   3  -8 12047.4 850.430   1
   0  -3  -9 34931.6 1317.08   6
   0   3  -9 33023.8 1235.00   4
   0   3  -9 34781.3 1226.31  11
   0  -3  -9 34705.8 1347.89   4
   0   3  -9 34633.4 1210.52   6
   0  -3 -10 18295.8 970.979   6
   0   3 -10 20826.0 951.644   6
   0  -3 -10 19934.5 1020.30   4
   0   3 -11 11414.2 743.679   5
   0   3 -11 11991.1 695.021   6
   0  -3 -11 11380.0 734.695   6
   0  -3 -11 10837.2 719.008   4
   0   3 -12-67.7264 193.509   5
   0   3 -12-25.2317 134.186   6
   0  -3 -12 36.3050 177.650   6
   0  -3 -12 546.363 268.477   4
   0   3 -13 6738.88 412.308   5
   0  -3 -13 6632.21 416.284   6
   0   4   0 130232. 1510.28  16
   0   4  -1 269376. 2250.37  16
   0   4   1 272044. 2327.99  16
   0   4   2 72655.3 1316.14  16
   0   4  -2 69320.8 1276.10  16
   0   4  -3 26105.2 791.490  15
   0   4   3 26435.7 884.999  16
   0  -4  -3 26097.0 832.997   1
   0   4  -3 28002.1 960.957  16
   0  -4  -4 75753.8 1550.55   1
   0   4  -4 73700.1 1566.89   1
   0   4  -4 76799.1 1506.13  15
   0  -4  -4 76054.1 1460.33  15
   0   4  -5 5473.80 497.955   1
   0   4  -5 5206.42 468.482  15
   0  -4  -5 5266.97 481.888   1
   0  -4  -5 5286.46 457.620  15
   0  -4  -6 400.346 198.581   1
   0   4  -6 12.5931 185.778  15
   0  -4  -6 120.544 164.519  15
   0   4  -6 176.321 168.005   1
   0  -4  -7 68353.1 1912.56  15
   0  -4  -7 69694.6 1976.73   1
   0   4  -7 71286.8 2013.84  15
   0   4  -7 71896.0 2018.19   1
   0   4   8 274.540 268.929  16
   0  -4  -8 441.571 257.429  15
   0   4  -8 247.571 279.974  15
   0  -4  -8 240.712 150.083   6
   0  -4  -8 288.299 175.794   1
   0  -4  -9 18789.7 967.764   6
   0  -4  -9 20985.9 1064.60   4
   0   4  -9 18354.7 917.543  11
   0   4 -10 12782.4 736.738  11
   0  -4 -10 14429.8 866.157   4
   0  -4 -10 14503.0 848.266   6
   0   4 -10 14297.1 758.079   6
   0  -4 -11 28287.0 1129.23   6
   0  -4 -11 27048.9 1088.56   4
   0   4 -11 27610.2 1130.02   5
   0   4 -12 18754.2 833.200   5
   0  -4 -12 18933.8 825.549   6
   0  -4 -12 18419.4 736.528   4
   0  -4 -13 2811.21 276.373   6
   0   4 -13 2844.22 278.764   5
   0   5   0 30.2291 163.165  16
   0   5   1 472.069 189.032  16
   0   5  -1 330.768 175.345  16
   0   5   2 5324.23 429.889  16
   0   5  -2 5518.14 414.008  16
   0   5  -3 10118.0 627.277  16
   0   5   3 9652.50 593.542  16
   0   5   4 89877.3 1896.55  16
   0   5  -4 86680.4 1686.38  15
   0   5  -5 6698.97 550.312  15
   0   5  -5 6699.07 558.560   1
   0   5   5 6149.82 578.683  16
   0   5  -6 74327.5 1919.95  15
   0   5  -6 75798.0 1983.65   1
   0   5   6 76778.9 2122.65  16
   0   5   7 9305.64 820.936  16
   0   5  -7 9313.45 757.598   1
   0   5  -7 8192.06 724.929  15
   0  -5  -8 82349.3 2045.36  10
   0  -5  -8 83388.4 2070.31   4
   0   5  -8 77209.5 1859.49  11
   0   5  -8 81610.5 2409.91  15
   0   5   8 84611.1 2619.41  16
   0  -5  -8 79648.1 1895.56   6
   0   5  -9 426.801 194.721  11
   0  -5  -9 633.959 250.354   6
   0  -5  -9 772.191 320.855   4
   0  -5 -10 27417.6 1176.84   4
   0  -5 -10 26344.9 1131.85   6
   0   5 -10 26346.7 1072.01  11
   0  -5 -11 3747.44 450.750   4
   0  -5 -11 4620.22 468.157   6
   0   5 -11 4238.18 473.297   5
   0   5 -11 4637.33 403.583  11
   0  -5 -12 5110.89 434.747   6
   0  -5 -12 3977.89 372.094   4
   0   5 -12 4462.66 421.225   5
   0   5 -13 8428.26 429.762   5
   0  -5 -13 8897.12 438.116   6
   0   6   0 235454. 2564.34  16
   0   6   1 1456.44 262.755  16
   0   6  -1 1623.26 275.127  16
   0   6  -2 35270.9 1078.76  16
   0   6   2 35774.6 1101.56  16
   0   6   3 63.1980 190.163  16
   0   6  -3 199.961 217.065  16
   0   6  -4 16838.7 920.429  16
   0   6   4 16573.3 887.248  16
   0   6  -4 16650.4 792.887  15
   0   6  -5 70683.1 1768.24  15
   0   6   5 72217.7 1967.64  16
   0   6  -5 72332.2 1883.40   1
   0   6   6 669.978 328.374  16
   0   6  -6 422.116 236.617   1
   0   6  -6 308.836 208.405  15
   0   6   7 40524.6 1742.68  16
   0   6  -7 40157.3 1592.87  15
   0   6  -7 36947.9 1539.40   1
   0   6   8-344.147 302.295  16
   0   6  -8-142.510 201.075  15
   0  -6  -8 55.5302 125.555   6
   0  -6  -8 73.5330 236.747   4
   0   6  -8-246.605 192.654  11
   0   6  -9 31016.4 1201.40  11
   0  -6  -9 33534.9 1374.16   4
   0  -6  -9 31893.6 1238.79   6
   0  -6 -10 442.085 265.178   4
   0  -6 -10 285.110 214.748   6
   0   6 -10 413.870 171.579  11
   0  -6 -11 9069.25 613.991   6
   0  -6 -11 7584.57 580.044   4
   0   6 -11 9015.01 556.617  11
   0   6 -11 8990.43 641.862   5
   0  -6 -12 20217.2 779.948   6
   0  -6 -12 19719.6 697.121   4
   0   6 -12 21461.9 827.341   5
   0   6 -13-57.7046 90.9636   5
   0  -6 -13 121.248 82.9313   6
   0   7   0-82.5146 212.952  16
   0   7   1 102704. 1908.97  16
   0   7  -1 102741. 1893.72  16
   0   7  -2 1275.77 295.602  16
   0   7   2 1538.97 306.474  16
   0   7  -3 132752. 2436.26  16
   0   7   3 140289. 2481.11  16
   0   7  -4 4334.92 517.069  16
   0   7  -4 4443.91 462.898  15
   0   7   4 4906.00 537.275  16
   0   7  -5 6028.03 568.447  15
   0   7  -5 5224.66 557.522   1
   0   7   5 5983.48 622.417  16
   0   7   6 90.8603 249.106  16
   0   7  -6-2.07240 168.707  15
   0   7  -6 444.478 187.399   1
   0   7  -7 232.892 191.666   1
   0   7  -7 727.904 307.076  15
   0   7  -7 729.637 210.069  11
   0   7   7 481.997 313.309  16
   0  -7  -7 148.584 229.743   4
   0  -7  -8 1771.86 382.124   4
   0   7  -8 1180.05 259.404  11
   0  -7  -8 1015.92 266.357   6
   0  -7  -9 1825.55 327.755   6
   0  -7  -9 1663.68 372.386   4
   0   7  -9 1501.20 313.433  11
   0   7 -10 49.8626 148.962  11
   0  -7 -10-74.2361 217.730   4
   0  -7 -10 37.0205 163.121   6
   0   7 -10-90.1640 224.588   5
   0  -7 -11 17293.8 805.144   6
   0   7 -11 16855.3 817.818   5
   0  -7 -11 16730.9 803.102   4
   0   7 -11 16737.1 738.119  11
   0   7 -12 114.783 134.397   5
   0  -7 -12 150.972 122.751   6
   0   8   0 1453.38 307.845  16
   0   8  -1 6539.98 560.259  16
   0   8   1 5980.31 532.091  16
   0   8   2 28737.9 1156.51  16
   0   8  -2 29405.8 1155.15  16
   0   8  -3 49137.2 1583.22  16
   0   8   3 48508.9 1552.94  16
   0   8  -4 33700.6 1434.38  16
   0   8  -4 34616.6 1275.90  15
   0   8   4 33926.7 1387.02  16
   0   8   5 23496.6 1233.85  16
   0   8  -5 24724.8 1153.98  15
   0   8  -6 3324.61 503.872  15
   0   8  -6 3150.29 484.013   1
   0   8   6 3351.23 550.094  16
   0   8  -7 68563.2 2205.11  15
   0  -8  -7 67644.6 1908.19   4
   0   8   7 73826.1 2487.79  16
   0   8  -7 68216.8 1790.47  11
   0  -8  -7 65293.8 1645.02   6
   0   8  -7 61591.9 2063.86   1
   0  -8  -7 66110.1 1813.46   3
   0  -8  -8 479.149 184.715   6
   0  -8  -8 364.646 282.873   4
   0   8  -8 405.529 252.129  11
   0  -8  -9 11401.4 807.483   4
   0   8  -9 9931.10 695.155  11
   0  -8  -9 10811.1 697.990   6
   0   8 -10 5642.49 517.845   5
   0  -8 -10 6001.78 549.366   4
   0  -8 -10 5700.03 497.347   6
   0   8 -10 5822.53 512.283  11
   0   8 -11 12360.4 655.580   5
   0  -8 -11 13093.4 672.433   4
   0   8 -11 10891.7 590.359   7
   0  -8 -11 12152.0 629.339   6
   0   8 -11 11845.9 603.605  11
   0   8 -12 6502.23 346.655   7
   0   8 -12 7363.17 418.843   5
   0  -8 -12 6793.03 392.210   6
   0   9   0 21.3434 216.431  16
   0   9   1 347.349 226.540  16
   0   9  -1 379.435 231.079  16
   0   9  -2 10261.9 758.815  16
   0   9   2 11057.8 774.515  16
   0   9  -3 21058.1 1113.09  16
   0   9   3 20545.4 1091.15  16
   0   9   4 12265.0 885.414  16
   0   9  -4 14104.9 994.565  16
   0   9  -4 13054.7 845.852  15
   0   9   5 1691.66 417.623  16
   0   9  -5 1424.23 349.137  15
   0  -9  -6 78703.4 2020.69   4
   0   9  -6 76806.1 2257.30  15
   0   9  -6 77523.1 1898.79  11
   0   9   6 73595.3 2410.05  16
   0  -9  -6 73325.3 1954.76   3
   0  -9  -7 4057.25 532.654   4
   0   9  -7 3953.02 466.404  11
   0  -9  -7 3515.72 402.506   6
   0  -9  -7 3835.57 485.728   3
   0   9  -8 32452.7 1271.36  11
   0  -9  -8 32308.1 1171.38   6
   0  -9  -8 33548.0 1372.01   4
   0  -9  -8 33176.0 1295.43   3
   0   9  -9 3180.92 414.227   5
   0  -9  -9 3830.87 420.470   6
   0   9  -9 3353.34 439.639  11
   0  -9  -9 4239.84 511.442   4
   0  -9 -10 25067.6 941.708   6
   0   9 -10 24391.7 955.197   5
   0   9 -10 24285.1 971.510  11
   0  -9 -10 24603.5 1025.38   4
   0   9 -11 4360.30 368.394   7
   0   9 -11 5300.16 383.580  11
   0  -9 -11 4323.26 378.545   4
   0   9 -11 4942.05 390.769   5
   0  -9 -11 5000.14 376.869   6
   0   9 -12 13327.7 439.971   7
   0   9 -12 14578.6 489.644   5
   0  10   0 34816.0 1438.28  16
   0  10  -1 5242.22 575.575  16
   0  10   1 5989.55 620.114  16
   0  10  -2 50536.1 1765.23  16
   0  10   2 51068.9 1756.09  16
   0  10   3 6552.19 674.196  16
   0  10  -3 5814.05 653.086  16
   0  10  -4 38807.8 1508.23  15
   0  10   4 38486.0 1653.07  16
   0  10  -4 39786.5 1733.83  16
   0  10  -5 5360.89 605.480  15
   0 -10  -5 5167.45 540.494   3
   0  10   5 5749.05 699.212  16
   0  10  -5 4948.03 491.588  11
   0  10  -5 5061.06 480.481  12
   0  10   6 14907.3 1153.97  16
   0 -10  -6 14336.9 932.702   4
   0  10  -6 14407.7 851.976  11
   0 -10  -6 13710.6 887.555   3
   0  10  -6 12526.7 980.729   1
   0  10  -6 13533.5 994.740  15
   0  10  -6 13377.4 760.301  12
   0  10  -7 4016.91 427.690  12
   0 -10  -7 4450.34 518.000   3
   0  10  -7 4140.64 470.709  11
   0 -10  -7 3847.46 533.226   4
   0  10  -8 1124.73 307.559  11
   0  10  -8 1973.59 308.418   5
   0 -10  -8 1110.90 288.233   3
   0 -10  -8 1293.76 371.338   4
   0 -10  -8 915.503 204.410   6
   0  10  -9 4131.39 471.265  11
   0 -10  -9 4530.17 518.648   4
   0  10  -9 4692.72 433.855   5
   0 -10  -9 4330.50 404.451   6
   0 -10 -10 9953.86 544.716   6
   0  10 -10 9303.60 590.760  11
   0 -10 -10 9653.67 619.328   4
   0  10 -10 10226.4 565.842   5
   0  10 -10 9062.94 586.855   7
   0  10 -11 468.192 132.853   5
   0  10 -11 235.889 148.320   7
   0  11   0 98.3433 210.400  16
   0  11   1 51546.0 1858.44  16
   0  11  -1 49857.3 1828.04  16
   0  11  -2 10379.0 880.375  16
   0  11   2 10666.3 872.663  16
   0  11  -3 25867.7 1403.95  16
   0  11   3 27250.5 1407.78  16
   0 -11  -4 10099.5 758.620   3
   0  11   4 10479.4 936.965  16
   0  11  -4 10603.3 693.129  12
   0  11  -4 9838.62 819.024  15
   0  11  -4 11142.9 742.080  11
   0  11  -4 10353.9 938.161  16
   0 -11  -4 10991.3 693.773   9
   0  11  -5 3787.91 474.370  11
   0  11   5 4061.06 611.414  16
   0 -11  -5 4113.09 515.867   3
   0  11  -5 3904.32 525.315  15
   0  11  -5 3377.89 404.018  12
   0  11  -6 5596.32 513.423  12
   0 -11  -6 6228.11 620.214   3
   0 -11  -6 6135.75 648.449   4
   0  11  -6 6347.31 596.102  11
   0 -11  -7 561.792 258.475   3
   0 -11  -7 472.232 298.092   4
   0  11  -7 347.380 236.293  11
   0  11  -7 216.929 162.115  12
   0 -11  -8 14104.2 905.421   4
   0  11  -8 14063.7 846.224  11
   0 -11  -8 15699.1 897.212   3
   0 -11  -9 961.965 241.123   3
   0 -11  -9 815.002 296.181   4
   0  11  -9 1149.07 277.446  11
   0  11  -9 842.040 261.874   7
   0 -11 -10 11791.2 631.175   4
   0  11 -10 11918.1 621.781   7
   0 -11 -11 6481.53 354.904   4
   0  11 -11 8805.58 428.969   7
   0  12   0 34710.1 1623.66  16
   0  12   1 12614.5 1000.66  16
   0  12  -1 11490.2 958.962  16
   0 -12  -2 3737.06 425.349   9
   0  12   2 4679.26 630.911  16
   0 -12  -2 3730.71 477.316   3
   0  12  -2 3755.00 413.592  12
   0  12  -2 3585.86 578.776  16
   0  12   3 4440.05 636.201  16
   0  12  -3 4618.23 558.683  15
   0  12  -3 3972.95 630.562  16
   0  12  -3 4714.92 469.949  12
   0 -12  -3 4289.54 520.242   3
   0 -12  -3 4421.62 480.662   9
   0  12   4 699.294 288.641  16
   0  12  -4 304.699 220.462  11
   0 -12  -4 833.723 283.637   3
   0  12  -4 1321.55 398.406  16
   0 -12  -4 994.861 297.786   9
   0  12  -4 1317.79 347.035  15
   0  12  -4 529.663 235.964  12
   0 -12  -5 32198.8 1391.92   3
   0  12  -5 32130.1 1290.96  11
   0  12  -5 29919.9 1171.25  12
   0 -12  -6 4283.40 543.562   3
   0 -12  -6 4965.52 580.462   4
   0  12  -6 4640.41 470.214  12
   0  12  -6 4434.95 525.884  11
   0 -12  -7 58554.4 1801.60   4
   0  12  -7 58195.8 1473.79  12
   0 -12  -7 59496.5 1816.01   3
   0  12  -7 61829.7 1765.41  11
   0  12  -8 4544.48 494.195  11
   0 -12  -8 4638.25 498.421   3
   0 -12  -8 4554.79 525.042   4
   0  12  -8 4560.79 466.288   7
   0  12  -9 22757.4 902.852   7
   0 -12  -9 23395.2 980.172   4
   0 -12 -10 437.374 172.526   4
   0  12 -10 285.533 155.855   7
   0  12 -11 11705.5 412.341   7
   0  12  11 10034.8 367.860  13
   0  13   0-75.1597 173.443  12
   0  13   0 587.283 319.525  16
   0 -13   0 331.749 202.545   9
   0 -13  -1 26203.1 1170.41   3
   0  13   1 27793.5 1093.10  12
   0  13   1 28674.9 1570.42  16
   0 -13  -1 27994.2 1143.74   9
   0  13  -1 29043.7 1577.91  16
   0  13  -1 28640.8 1144.60  12
   0 -13   1 26909.1 1100.84   9
   0 -13  -2 3801.17 452.999   9
   0 -13  -2 4240.79 519.394   3
   0  13  -2 3541.87 605.456  16
   0  13  -2 4263.85 476.326  12
   0  13   2 4425.60 660.475  16
   0 -13   2 4050.82 455.633   9
   0  13   2 4247.02 435.636  12
   0  13  -3 19546.1 959.609  12
   0 -13  -3 20091.4 995.497   9
   0 -13  -3 19783.0 1069.25   3
   0  13   3 18785.0 858.181  12
   0  13  -4 6503.00 575.295  12
   0 -13  -4 5921.82 626.317   3
   0 -13  -4 6975.01 606.143   9
   0  13  -4 6148.30 528.893   7
   0  13  -5 5025.18 505.164  12
   0  13  -5 4717.19 466.723   7
   0 -13  -5 5143.02 594.461   3
   0  13  -6 25229.1 1023.55  12
   0 -13  -6 28164.3 1276.56   3
   0  13  -6 25358.1 1047.28   7
   0 -13  -6 26907.7 1259.39   4
   0 -13  -7 488.213 293.945   4
   0 -13  -7 318.401 218.625   3
   0  13  -7 496.542 253.443   7
   0  13  -7 286.520 155.949  12
   0 -13  -7 257.049 169.401   8
   0 -13  -8 3436.28 410.119   3
   0 -13  -8 3737.68 457.434   4
   0  13  -8 3477.39 398.394   7
   0  13  -9 430.063 191.998   7
   0 -13  -9 555.135 190.321   4
   0  13 -10 11231.2 476.534   7
   0 -13 -10 9193.78 420.149   4
   0 -14   0 38590.3 1362.00   9
   0  14   0 37193.1 1302.81  12
   0 -14   1 5903.90 552.807   9
   0 -14  -1 6041.32 578.462   9
   0  14  -1 6295.79 574.033  12
   0  14   1 6204.67 549.711  12
   0 -14  -1 6064.82 600.457   3
   0  14   2 49621.1 1424.80  12
   0  14  -2 48251.1 1506.62  12
   0 -14  -2 50371.1 1674.46   3
   0 -14   2 51517.9 1483.53   9
   0 -14  -2 48686.1 1549.57   9
   0 -14   3 119.981 199.540   9
   0  14  -3 418.920 214.495  12
   0 -14  -3 171.303 231.673   3
   0  14   3 410.521 216.794  12
   0 -14  -3 537.995 253.089   9
   0 -14  -4 10616.5 818.018   3
   0  14  -4 11127.5 737.500  12
   0  14  -4 10778.9 653.962   7
   0 -14  -5 8045.37 725.928   4
   0 -14  -5 6744.56 657.382   3
   0  14  -5 7281.50 585.613  12
   0  14  -5 7027.90 546.316   7
   0  14  -6 205.012 167.730   7
   0 -14  -6-21.5626 216.307   3
   0 -14  -6-101.680 271.147   4
   0  14  -6-35.7779 149.408  12
   0 -14  -7 928.647 283.563   4
   0 -14  -7 1214.01 316.071   3
   0  14  -7 926.403 250.006   7
   0 -14  -7 1258.42 240.798   8
   0  14  -7 954.784 207.208  12
   0 -14  -8 82.1809 239.340   4
   0 -14  -8-0.67418 138.902   3
   0  14  -8 125.118 159.694   7
   0  14  -9 272.454 147.863   7
   0 -14  -9 334.083 169.897   4
   0  15   0-2.41273 203.546  12
   0 -15   0 79.2692 214.078   9
   0 -15  -1 14820.6 886.633   3
   0  15   1 13595.6 778.228  12
   0  15  -1 12673.7 783.304  12
   0 -15   1 14865.3 829.131   9
   0 -15  -1 13741.3 836.814   9
   0 -15   2 27530.9 1076.06   9
   0  15  -2 28110.1 1142.56  12
   0  15   2 26045.1 1023.90  12
   0 -15  -2 28070.2 1181.11   9
   0 -15  -2 28526.0 1251.78   3
   0 -15  -3 942.981 338.569   3
   0 -15  -3 1269.40 327.440   9
   0  15  -3 963.226 289.568  12
   0 -15   3 1198.47 249.649   9
   0  15   3 1102.21 238.435  12
   0 -15  -4 20632.7 1080.11   3
   0  15  -4 21328.9 967.102  12
   0  15  -5 27.5931 183.946  12
   0 -15  -5 250.993 269.939   3
   0  15  -5-55.5377 155.697   7
   0 -15  -5 62.3520 305.896   4
   0 -15  -6 4374.46 526.650   4
   0 -15  -6 4391.19 489.172   3
   0  15  -6 4649.69 411.750   7
   0  15  -6 4414.70 403.835  12
   0  15  -7 162.430 116.681  12
   0 -15  -7 159.832 224.658   4
   0 -15  -7 343.022 194.800   3
   0  15  -7 36.3801 129.025   7
   0 -15  -8 17334.4 710.880   4
   0  15  -8 18407.2 644.657   7
   0 -15  -9 307.077 96.1252   4
   0  15  -9 265.116 94.1635   7
   0 -16   0 28745.8 1129.50   9
   0  16   0 28682.8 1094.49  12
   0 -16  -1 1764.76 381.670   9
   0  16  -1 1601.08 316.593  12
   0 -16   1 1729.26 319.337   9
   0  16   1 1938.96 319.118  12
   0 -16  -1 1945.79 350.551   3
   0  16   2 164.526 173.084  12
   0 -16  -2 224.945 215.587   3
   0 -16  -2 37.3899 238.170   9
   0  16  -2 136.981 193.276  12
   0 -16   2 47.6446 183.362   9
   0 -16   3 2323.33 319.172   9
   0  16  -3 2222.77 354.147  12
   0 -16  -3 2308.27 394.723   3
   0  16   3 2276.73 308.655  12
   0  16  -4 10007.7 634.997  12
   0 -16  -4 11110.3 761.044   3
   0 -16  -5 20003.1 989.884   4
   0  16  -5 18818.4 796.497  12
   0 -16  -5 19535.9 956.527   3
   0 -16  -6 430.468 173.304   8
   0 -16  -6 696.872 260.424   4
   0  16  -6 813.779 176.444   7
   0 -16  -6 864.277 250.185   3
   0  16  -6 550.488 174.917  12
   0  16  -7 22446.6 650.711   7
   0 -16  -7 20584.3 794.897   4
   0 -16  -8 702.255 157.130   4
   0  17   0 1.30954 166.374  12
   0  17   1 17950.0 790.334  12
   0  17  -1 18927.9 849.730  12
   0 -17  -1 19310.1 877.424   3
   0 -17  -2 6714.76 540.958   3
   0  17   2 6274.07 449.930  12
   0  17  -2 6522.95 516.368  12
   0 -17  -3 16375.0 836.125   3
   0  17  -3 16830.2 775.894  12
   0 -17  -4 1461.50 305.371   3
   0  17  -4 1384.12 261.592  12
   0 -17  -4 1485.99 320.622   4
   0 -17  -5 7340.89 551.824   4
   0  17  -5 6825.31 437.756  12
   0 -17  -5 6598.48 515.139   3
   0  17  -6 1519.15 187.228  12
   0 -17  -6 1200.01 249.380   4
   0 -17  -7-20.5857 96.3039   4
   0  18   0 16316.8 695.437  12
   0  18  -1 980.589 226.232  12
   0  18   1 522.276 165.045  12
   0  18  -2 6096.39 447.272  12
   0  18   2 5043.76 351.737  12
   0 -18  -2 5901.88 445.821   3
   0  18  -3 152.108 155.705  12
   0 -18  -3-175.382 160.597   3
   0 -18  -3-69.0508 198.231   4
   0  18  -4 4121.19 335.765  12
   0 -18  -4 3915.62 386.050   4
   0 -18  -4 4075.19 364.230   3
   0  18  -5 9080.63 413.239  12
   0 -18  -5 8780.43 501.082   4
   0 -18  -6 1851.62 209.000   4
   0  19   0 22.7558 103.315  12
   0  19   1 928.924 149.989  12
   0  19  -1 1153.39 189.072  12
   0  19  -2 209.645 131.409  12
   0 -19  -2 242.172 162.622   4
   0 -19  -3 38.8234 118.779   4
   0  19  -3-26.5420 112.539  12
   0  19  -4 11736.4 421.564  12
   0 -19  -4 10296.8 464.034   4
   0 -20   0 9861.90 385.771   4
   0 -20  -1-8.92884 58.7938   4
   1   0 -13 103.025 143.292   5
   1   0 -13-28.6936 152.902   6
   1   0 -12 34514.2 1145.88   5
   1   0 -12 36968.5 1221.53   6
   1   0 -11-126.885 172.614   5
   1   0 -11-121.621 326.475   4
   1   0 -11 141.238 208.450   6
   1   0 -10 104359. 2238.79   6
   1   0 -10 99881.1 2166.03   5
   1   0 -10 106398. 2415.46  14
   1   0 -10 100366. 2297.18   4
   1   0  -9 376.792 239.365  14
   1   0  -9-249.246 230.820  15
   1   0  -9 161.089 185.800   6
   1   0  -8 11642.7 868.716  15
   1   0  -7-62.1080 201.745  15
   1   0  -7-273.600 126.991   1
   1   0  -6 37987.9 1038.32   1
   1   0  -6 35725.2 1183.04  15
   1   0  -5 66.6500 165.801  15
   1   0  -5-20.5671 96.7509   1
   1   0  -4 23940.3 653.399   2
   1   0  -4 23520.1 608.375   1
   1   0  -4 23224.1 731.299  15
   1   0  -3 18.9889 75.1525   1
   1   0  -3 38.0597 130.374  15
   1   0  -3 110.739 108.597   2
   1   0  -2 887.411 129.353  15
   1   0  -2 902.979 134.735   2
   1   0  -2 952.321 80.0068   1
   1   0  -1 14.9640 60.1228   2
   1   0  -1 28.2319 47.6693  15
  -1   0   0 210338. 1112.03   1
   1   0   0 205379. 1384.99   2
  -1   0  -1 30.9441 95.2498   1
  -1   0  -1 4.49120 46.6285  15
  -1   0  -2 169352. 1769.29   1
  -1   0  -2 169027. 1320.46  15
  -1   0  -3 7.37468 108.146  15
  -1   0  -3 31.7171 157.077   1
  -1   0  -4 433771. 3175.69  15
  -1   0  -4 426098. 3669.85   1
  -1   0  -5-28.0080 147.941  15
  -1   0  -5-36.4077 206.623   1
  -1   0  -6 1352.70 302.749   1
  -1   0  -6 1563.94 299.233  15
  -1   0  -7 112.758 194.506   1
  -1   0  -7 226.728 184.342  15
  -1   0  -8 28420.0 1397.74   1
  -1   0  -8 29834.1 1318.91  15
  -1   0  -9 354.926 169.462   6
  -1   0 -10-129.581 165.451   6
  -1   0 -11-3.07253 155.348   5
  -1   0 -11 51.9999 183.030   6
  -1   0 -12 3580.95 359.989   5
  -1   0 -12 4258.81 383.535   6
  -1   0 -13-53.1388 83.8861   6
   1  -1 -14 6190.09 325.145   6
   1  -1 -13 15872.9 689.898   6
   1   1 -13 14928.0 652.388   5
   1   1 -13 16696.2 682.243   6
   1  -1 -12 1076.58 241.311   5
   1  -1 -12 1299.31 299.823   6
   1   1 -12 1252.14 290.411   6
   1   1 -12 1125.00 274.960   5
   1   1 -11 11996.7 755.840   6
   1  -1 -11 11871.4 767.331   6
   1  -1 -11 11922.6 799.736   4
   1   1 -11 11243.3 733.434   5
   1  -1 -11 10481.7 682.713   5
   1   1 -11 13309.1 854.066   4
   1   1 -10 1925.07 334.568   5
   1  -1 -10 662.696 379.980   4
   1  -1 -10 1641.57 329.240   6
   1   1 -10 1581.93 394.772   4
   1   1 -10 1861.06 367.996  14
   1   1 -10 1945.59 347.499   6
   1  -1 -10 2427.76 356.478   5
   1  -1  -9 24641.1 1135.78   4
   1  -1  -9 26369.4 1198.58  14
   1  -1  -9 25564.4 1086.30   6
   1   1  -9 25130.9 1052.90   6
   1   1  -9 23514.5 1336.33  15
   1   1  -9 22321.0 1080.04   4
   1   1  -9 23324.1 1100.78  14
   1  -1  -9 24956.0 1376.00  15
   1   1  -8 130869. 2819.50  15
   1  -1  -8 123952. 2781.49  15
   1  -1  -7 6040.45 575.368  15
   1   1  -7 6413.03 483.452   1
   1   1  -7 5658.46 558.698  15
   1  -1  -7 6146.17 487.400   1
   1  -1  -6 84089.8 1824.52  15
   1   1  -6 88437.1 1596.00   1
   1  -1  -6 90839.0 1644.77   1
   1   1  -6 86075.4 1828.44  15
   1  -1  -5 87.2896 114.555   1
   1  -1  -5 66.3194 164.466  15
   1   1  -5 98.8263 159.746  15
   1   1  -5 140.521 108.223   1
   1  -1  -4 18435.8 662.718  15
   1  -1  -4 18204.0 632.499   2
   1  -1  -4 17677.5 550.653   1
   1   1  -4 18363.8 554.688   1
   1   1  -4 18555.0 511.298   2
   1   1  -4 17922.4 643.463  15
   1   1  -3 11156.8 441.481  15
   1   1  -3 11634.2 373.544   2
   1  -1  -3 11270.6 452.460   2
   1  -1  -3 11743.5 369.958   1
   1  -1  -3 11829.2 462.217  15
   1   1  -3 11319.2 367.686   1
   1  -1  -2 23650.8 543.936  15
   1  -1  -2 24219.0 419.271   1
   1  -1  -2 23422.5 581.166   2
   1   1  -2 24661.0 491.874   2
   1   1  -2 23866.4 520.170  15
   1  -1  -1 123638. 999.335  15
   1   1  -1 123333. 657.536  16
  -1   1   1 124451. 874.628  16
  -1   1   0 20212.6 389.493  16
  -1  -1   0 21331.4 376.108   1
   1  -1   0 20792.5 410.665   2
  -1  -1  -1 16921.5 272.410  15
  -1   1  -1 17577.1 513.885  16
  -1  -1  -1 16610.2 440.484   1
  -1   1  -1 16445.2 455.396   1
  -1   1  -2 8055.14 323.589  15
  -1   1  -2 7833.28 409.521   1
  -1  -1  -2 7611.53 281.944  15
   1  -1   2 8229.10 264.170   2
  -1  -1  -2 7680.34 381.098   1
  -1  -1  -3 48807.7 1069.46   1
  -1  -1  -3 47970.2 869.664  15
  -1   1  -3 47381.4 916.662  15
  -1   1  -3 50965.9 1139.14   1
  -1  -1  -4 9305.53 478.902  15
  -1   1  -4 9801.10 593.221   1
  -1   1  -4 9341.18 489.314  15
  -1  -1  -4 8791.68 545.439   1
  -1   1  -5 12144.7 734.890   1
  -1   1  -5 12414.6 646.183  15
  -1  -1  -5 12700.5 712.866   1
  -1  -1  -5 14365.6 693.466  15
  -1  -1  -6 87337.6 2040.27   1
  -1   1  -6 90009.9 2110.91   1
  -1   1  -6 95805.2 2021.68  15
  -1  -1  -6 97833.0 1989.41  15
  -1   1  -7 34368.0 1437.40   1
  -1  -1  -7 33502.0 1407.77   1
  -1   1  -7 37846.3 1394.33  15
  -1  -1  -7 38811.3 1377.05  15
  -1  -1  -8 30425.5 1167.96   6
  -1   1  -8 31633.8 1477.11   1
  -1  -1  -8 30923.6 1316.15  15
  -1  -1  -8 28594.6 1407.75   1
  -1   1  -8 31085.0 1363.00  15
  -1   1  -9-81.6182 174.556  11
  -1  -1  -9-184.873 226.041   6
  -1   1 -10 43467.9 1414.59   6
  -1  -1 -10 41414.5 1415.35   6
  -1  -1 -11 2412.97 381.002   6
  -1   1 -11 2434.35 343.899   6
  -1  -1 -11 2250.80 325.582   5
  -1  -1 -12 23088.2 817.760   5
  -1   1 -12 22721.1 863.219   5
  -1   1 -12 24250.8 844.275   6
  -1  -1 -12 23806.3 888.434   6
  -1  -1 -13 2257.40 217.577   6
  -1   1 -13 2005.28 206.425   5
   1  -2 -14 1738.51 195.185   6
   1   2 -13 3007.33 309.615   6
   1   2 -13 2708.73 307.214   5
   1  -2 -13 2820.35 316.153   6
   1   2 -12 617.295 235.499   5
   1  -2 -12 313.354 177.428   5
   1   2 -12 635.463 215.701   6
   1  -2 -12 570.410 304.899   4
   1  -2 -12 814.963 272.100   6
   1  -2 -11 518.959 184.301   5
   1  -2 -11 371.335 237.919   6
   1  -2 -11-159.616 379.312   4
   1   2 -11 188.510 176.785   6
   1   2 -11 163.448 215.557   5
   1  -2 -10 3940.32 548.807   4
   1   2 -10 5275.12 603.943   4
   1   2 -10 5089.16 537.795  14
   1  -2 -10 5048.41 532.165   6
   1  -2 -10 5583.58 508.116   5
   1   2 -10 5636.46 530.496   6
   1   2  -9 50808.4 1951.24  15
   1   2  -9 47458.3 1543.27   4
   1  -2  -9 45506.7 1479.95  10
   1  -2  -9 49521.9 1614.47   4
   1   2  -9 51009.1 1485.66   6
   1  -2  -9 45030.2 1375.35   5
   1  -2  -9 50354.6 1954.59  15
   1  -2  -9 49176.1 1517.25   6
   1   2  -9 49956.4 1576.07  14
   1  -2  -9 52502.6 1693.19  14
   1  -2  -8 2861.89 474.136  15
   1   2  -8 2411.58 465.000  15
   1  -2  -7 38641.0 1427.46  15
   1   2  -7 37157.3 1366.63  15
   1  -2  -7 36911.5 1206.48   1
   1   2  -7 37919.5 1179.98   1
   1  -2  -6 4389.96 381.083   1
   1   2  -6 4457.44 449.790  15
   1  -2  -6 5251.50 492.769  15
   1   2  -6 4507.16 390.363   1
   1   2  -5 188104. 2184.32   1
   1  -2  -5 187846. 2464.52  15
   1   2  -5 194172. 2441.79  15
   1  -2  -5 192787. 2202.77   1
   1   2  -4 8559.38 421.278   1
   1  -2  -4 8918.18 491.224  15
   1   2  -4 8752.47 470.781  15
   1   2  -4 8427.77 296.899   2
   1  -2  -4 9209.60 501.381   2
   1  -2  -4 8416.18 415.028   1
   1   2  -3 115903. 1053.82   2
   1   2  -3 112276. 1394.81  15
   1  -2  -3 107342. 1423.98  15
   1  -2  -3 106262. 1241.14   1
   1  -2  -3 110301. 1515.70   2
   1   2  -2 56324.3 830.607  15
   1  -2  -2 55963.0 898.529  15
   1   2  -2 56530.6 870.474  16
  -1   2   2 56995.0 891.969  16
   1   2  -1 134806. 984.481  16
  -1   2   1 125756. 1147.72  16
  -1   2   0 9407.99 332.753  16
   1  -2   0 9240.18 311.557   2
  -1  -2   0 9465.43 322.542   1
   1   2   0 9360.08 304.434  16
  -1  -2  -1 13598.3 441.551   1
   1  -2   1 12998.5 303.736   2
  -1   2  -1 14029.3 486.556  16
  -1   2  -2 4911.44 386.307  16
  -1  -2  -2 5397.55 340.138   1
  -1  -2  -2 5254.54 248.266  15
   1  -2   2 4826.04 149.028   2
  -1   2  -3 32818.4 928.711   1
  -1  -2  -3 33575.6 743.555  15
  -1   2  -3 32223.4 802.240  15
  -1  -2  -3 32991.6 905.624   1
  -1   2  -4 1229.52 236.200  15
  -1  -2  -4 1259.07 261.776   1
  -1   2  -4 1599.85 279.733   1
  -1  -2  -4 1345.26 214.233  15
  -1  -2  -5 595.354 197.307  15
  -1   2  -5 408.620 209.364   1
  -1  -2  -5 518.145 234.678   1
  -1   2  -5 516.503 211.414  15
  -1  -2  -6 17788.8 949.376   1
  -1   2  -6 19651.7 1012.02   1
  -1   2  -6 19883.0 943.888  15
  -1  -2  -6 19848.0 885.919  15
  -1   2  -7 42199.9 1507.71  15
  -1  -2  -7 42753.2 1413.07  15
  -1   2  -7 40578.8 1591.33   1
  -1   2  -8 1689.46 388.749   1
  -1   2  -8 1645.72 337.647  15
  -1  -2  -8 1875.63 413.867   1
  -1   2  -9 75644.8 1820.96   6
  -1  -2  -9 72487.2 1899.07   6
  -1   2  -9 71024.0 1821.19  11
  -1   2 -10 2215.14 340.421  11
  -1  -2 -10 2380.00 382.188   6
  -1   2 -10 2732.65 384.336   6
  -1   2 -11 36852.1 1184.58   6
  -1  -2 -11 35969.6 1255.54   6
  -1  -2 -11 35127.9 1137.34   5
  -1   2 -12 2365.17 268.440   6
  -1  -2 -12 1956.20 294.207   6
  -1   2 -12 2647.36 336.516   5
  -1   2 -13 14251.2 517.528   5
  -1  -2 -13 15154.5 542.197   6
   1  -3 -14 549.086 139.976   6
   1   3 -13 9120.89 467.899   6
   1  -3 -13 10514.0 554.411   6
   1   3 -13 10218.6 542.677   5
   1  -3 -12 32.0229 323.564   4
   1   3 -12 312.048 210.508   5
   1   3 -12 399.199 173.825   6
   1  -3 -12 475.821 231.554   6
   1   3 -11 18529.4 951.035   5
   1  -3 -11 17760.3 924.531   6
   1   3 -11 18640.5 893.411   6
   1  -3 -11 16077.8 931.018   4
   1   3 -10 8169.93 654.538  14
   1   3 -10 8790.33 637.448   6
   1  -3 -10 9257.77 744.728   4
   1  -3 -10 8895.92 670.613   6
   1   3  -9 121361. 2413.94  14
   1  -3  -9 133880. 2506.70   6
   1  -3  -9 139030. 3289.24  15
  -1   3   9 126118. 3062.08  16
   1  -3  -9 129346. 2628.10   4
   1  -3  -9 120789. 2442.24  10
   1   3  -9 136992. 3196.94  15
   1   3  -9 119762. 2401.89   4
   1   3  -9 126701. 2308.04   6
   1   3  -8 1411.20 353.600  15
   1  -3  -8 1379.31 364.674  15
   1  -3  -7 5662.43 505.405   1
   1  -3  -7 6149.18 600.962  15
   1   3  -7 6180.91 506.929   1
   1   3  -7 5343.05 563.959  15
   1  -3  -6 5534.32 452.392   1
   1   3  -6 6127.81 528.165  15
   1  -3  -6 6196.86 541.318  15
   1   3  -6 6052.55 461.775   1
   1   3  -5 9676.94 593.787  15
   1   3  -5 9961.49 552.382   1
   1  -3  -5 9455.99 528.705   1
   1  -3  -5 10407.9 618.502  15
   1   3  -4 22520.1 768.739  15
   1  -3  -4 22768.2 843.302   2
   1   3  -4 24320.4 782.239   1
   1  -3  -4 22745.8 797.505  15
   1  -3  -4 22411.0 719.284   1
   1  -3  -3 46043.4 1001.11  15
  -1   3   3 46037.2 1010.48  16
   1   3  -3 46128.5 942.598  15
   1   3  -3 46603.2 672.777   2
   1  -3  -3 45877.7 1076.22   2
   1   3  -3 46596.8 1023.14  16
  -1   3   2 14975.4 537.303  16
   1   3  -2 15157.9 468.941  15
   1   3  -2 14911.1 454.999   2
   1   3  -2 15021.9 495.992  16
   1   3  -1 282979. 1820.79  16
  -1   3   1 282333. 2035.44  16
  -1   3   0 373324. 2376.51  16
   1   3   0 371248. 2224.82  16
  -1  -3  -1 3864.84 291.106   1
  -1   3  -1 3715.27 304.667  16
   1  -3   1 4114.46 208.527   2
  -1   3  -2 518.578 215.285  16
  -1  -3  -2 354.293 164.662   1
   1  -3   2 251.416 44.6732   2
  -1  -3  -3 48996.1 930.978  15
  -1   3  -3 50961.1 1201.61   1
  -1  -3  -3 48345.8 1163.80   1
  -1   3  -3 50004.5 1069.17  15
  -1  -3  -4 46472.3 1277.34   1
  -1   3  -4 48483.9 1310.91   1
  -1   3  -4 49565.7 1213.08  15
  -1  -3  -4 49600.1 1092.53  15
  -1   3  -5 153818. 2402.88  15
  -1  -3  -5 155495. 2580.64   1
  -1   3  -5 151448. 2570.99   1
  -1   3  -6 3941.51 463.460  15
  -1   3  -6 3056.66 450.645   1
  -1  -3  -6 3883.23 397.282  15
  -1  -3  -6 3615.75 474.043   1
  -1   3  -7 43309.1 1583.16  15
  -1   3  -7 44895.4 1692.83   1
  -1  -3  -7 47407.4 1470.49  15
  -1  -3  -8 8566.00 819.120   1
  -1   3  -8 9833.50 868.405   1
  -1   3  -8 9204.26 670.214  11
  -1   3  -8 9919.51 844.972  15
  -1   3  -9 638.276 239.098  11
  -1  -3  -9 622.882 260.337   6
  -1   3  -9 813.419 222.209   6
  -1  -3  -9 813.735 232.049   4
  -1   3 -10 6466.60 522.318   6
  -1   3 -10 5890.25 529.045  11
  -1  -3 -10 6141.15 576.418   6
  -1   3 -11 2923.65 328.328   6
  -1  -3 -11 3329.08 428.617   6
  -1   3 -11 3082.46 342.297  11
  -1   3 -12 1904.15 297.205   5
  -1  -3 -12 1786.68 283.086   6
  -1  -3 -13 25428.1 686.358   6
  -1   3 -13 24398.5 673.817   5
   1   4 -13 302.288 161.536   5
   1  -4 -13 216.368 138.805   6
   1  -4 -12 26910.1 1007.15   6
   1   4 -12 28057.8 1048.75   5
   1  -4 -12 25209.0 982.381   4
   1   4 -12 26385.8 910.152   6
   1   4 -11 2432.81 337.498   6
   1   4 -11 2350.49 392.402   5
   1  -4 -11 2255.04 363.200   6
   1  -4 -11 2429.92 433.406   4
   1  -4 -10 36992.2 1433.17   4
   1   4 -10 38171.7 1274.56   6
   1  -4 -10 35055.3 1314.01   6
   1   4 -10 33122.1 1294.19   5
   1  -4  -9 5152.49 634.808  10
  -1   4   9 5705.06 683.404  16
   1  -4  -9 4471.55 651.524  15
   1   4  -9 4610.28 459.082   6
   1  -4  -9 4562.16 480.470   6
   1  -4  -9 4617.37 562.381   4
   1   4  -9 5039.02 652.184  15
   1   4  -8 4798.52 584.223  15
   1  -4  -8 4250.37 592.706  15
  -1   4   8 3963.68 556.306  16
  -1   4   7 17569.2 1011.83  16
   1  -4  -7 17315.5 1004.90  15
   1   4  -7 16342.5 949.866  15
   1   4  -7 17786.4 880.178   1
   1   4  -6 38203.2 1295.73  15
  -1   4   6 35797.5 1311.61  16
   1  -4  -6 38450.0 1330.68  15
   1   4  -6 37269.4 1209.08   1
   1   4  -5 27383.9 1002.26   1
  -1   4   5 26954.4 1043.40  16
   1   4  -5 27772.4 997.085  15
   1  -4  -5 25328.3 982.701  15
   1   4  -4 32653.5 956.712  15
  -1   4   4 31156.9 1009.52  16
   1  -4  -4 31514.4 978.055  15
  -1   4   3 34257.5 960.117  16
   1   4  -3 34534.7 656.085   2
   1   4  -3 35037.2 978.419  16
   1  -4  -3 36051.2 1043.60   2
   1   4  -3 35607.5 880.691  15
  -1   4   2 52466.3 1079.60  16
   1   4  -2 52727.3 1005.14  16
  -1   4   1 21359.4 657.656  16
   1  -4  -1 21180.4 670.072   2
   1   4  -1 20024.9 582.066  16
   1  -4   0 13181.5 479.812   2
   1   4   0 12835.5 488.454  16
   1  -4   1 65204.4 908.290   2
   1   4   1 64867.4 1189.68  16
  -1  -4  -2 215134. 2351.15   1
  -1   4  -2 224443. 2520.56  16
  -1  -4  -3 22.7370 174.511   1
  -1   4  -3 54.7106 232.273  16
  -1  -4  -4 77960.4 1744.61   1
  -1   4  -4 81263.3 1619.54  15
  -1  -4  -4 79127.3 1410.80  15
  -1   4  -4 83867.6 1805.08   1
  -1  -4  -5 2528.13 395.480   1
  -1  -4  -5 3274.07 338.465  15
  -1   4  -5 2829.04 397.907   1
  -1   4  -5 3187.79 394.524  15
  -1   4  -6 28122.7 1206.92  15
  -1  -4  -6 27000.7 1243.93   1
  -1  -4  -6 30376.1 1075.77  15
  -1   4  -6 28987.0 1266.00   1
  -1  -4  -7 12531.0 924.918   1
  -1   4  -7 12700.5 926.752   1
  -1   4  -7 11976.0 876.644  15
  -1   4  -8 13973.3 989.989  15
  -1  -4  -8 12650.0 983.034   1
  -1   4  -8 13587.0 1011.79   1
  -1   4  -8 13022.3 802.851  11
  -1  -4  -9 10664.2 745.494   6
  -1   4  -9 10702.6 735.939  11
  -1  -4  -9 11478.6 757.608   4
  -1  -4 -10 3024.14 415.312   4
  -1  -4 -10 3428.83 470.388   6
  -1   4 -10 4125.80 432.528  11
  -1  -4 -11 17274.7 866.467   6
  -1   4 -11 16358.8 756.287  11
  -1  -4 -12 1821.13 270.429   6
  -1   4 -12 1799.11 275.026   5
  -1  -4 -13 1645.45 187.274   6
  -1   4 -13 1788.76 193.047   5
   1  -5 -13 1768.25 231.911   6
   1   5 -13 1767.54 235.366   5
   1  -5 -12 564.406 203.196   6
   1   5 -12 639.803 247.239   5
   1  -5 -11 680.784 299.126   4
   1   5 -11 882.576 217.620   7
   1  -5 -11 966.868 265.717   6
   1   5 -11 1102.93 300.678   5
   1  -5 -10 11755.2 761.348   6
   1  -5 -10 11419.7 822.501   4
   1   5 -10 10721.0 757.994   5
   1  -5  -9 3879.61 449.896   6
   1  -5  -9 3942.26 551.545   4
   1   5  -9 3071.85 387.241  11
   1   5  -8 47508.4 1784.96  15
   1  -5  -8 47905.3 1554.26  10
   1  -5  -8 47231.0 1585.01   4
  -1   5   8 47467.7 1855.13  16
   1  -5  -8 45787.3 1402.79   6
  -1   5   7 13132.0 921.837  16
   1   5  -7 11344.6 827.025  15
   1   5  -6 90617.2 2044.33  15
  -1   5   6 94127.3 2210.53  16
   1   5  -6 92509.5 2041.01   1
  -1   5   5 60892.8 1628.98  16
   1   5  -5 59757.6 1564.12   1
   1   5  -5 61071.5 1521.70  15
   1   5  -4 183011. 2355.39  15
   1   5  -4 174398. 2534.09  16
  -1   5   4 179724. 2542.97  16
   1   5  -3 6272.70 414.985  15
  -1   5   3 6124.89 472.799  16
   1   5  -3 6369.29 456.433  16
   1   5  -3 6623.92 342.522   2
   1   5  -2 16909.2 643.648  16
   1  -5  -2 17558.2 738.706   2
  -1   5   2 17394.9 699.815  16
  -1   5   1 1057.48 238.851  16
   1  -5  -1 1150.42 224.403   2
   1   5  -1 1128.84 207.519  16
  -1   5   0 87806.8 1463.60  16
   1  -5   0 84708.8 1335.97   2
   1   5   0 83670.6 1367.31  16
  -1   5  -1 102372. 1657.18  16
   1   5   1 99278.3 1604.88  16
   1   5   2 364.515 208.730  16
  -1   5  -2 316.280 210.346  16
   1   5   3 2904.34 389.347  16
  -1   5  -3 2799.63 403.128  16
  -1  -5  -3 2679.48 356.784   1
  -1   5  -4 3671.65 398.842  15
  -1  -5  -4 3305.44 423.044   1
  -1   5  -4 2887.75 392.666   1
  -1   5  -5 18312.3 909.870  15
  -1  -5  -5 17105.6 951.346   1
  -1   5  -5 18901.1 985.473   1
  -1  -5  -6 18671.1 1075.29   1
  -1   5  -6 19469.8 1079.57   1
  -1   5  -6 19738.6 1042.99  15
  -1   5  -7 397.787 242.345  15
  -1   5  -7 569.056 280.098   1
  -1  -5  -7 46.2964 225.627   1
   1   5   7 383.512 329.144  16
  -1   5  -8 112113. 2864.09   1
  -1  -5  -8 115421. 2390.28   4
  -1   5  -8 115508. 2836.31  15
  -1   5  -8 112392. 2321.12  11
  -1  -5  -8 108930. 2147.15   8
  -1  -5  -9 2220.13 375.290   4
  -1  -5  -9 2516.49 395.607   6
  -1   5  -9 2598.72 401.501  11
  -1  -5 -10 17674.4 868.869   4
  -1  -5 -10 17450.4 925.905   6
  -1   5 -10 17290.1 884.577  11
  -1  -5 -11 219.802 186.593   6
  -1   5 -11 46.6961 220.987   5
  -1   5 -11 86.5434 123.294  11
  -1   5 -12 15197.0 685.895   5
  -1  -5 -12 17271.3 721.220   6
  -1  -5 -13 1219.99 152.244   6
  -1   5 -13 1312.35 157.851   5
   1   6 -13 182.925 123.725   5
   1  -6 -13 66.4241 97.6640   6
   1   6 -12 32849.6 1062.60   5
   1  -6 -12 32425.0 1019.11   6
   1  -6 -12 31987.8 1036.82   4
   1   6 -11 5757.14 529.248   5
   1   6 -11 5531.18 449.644   7
   1  -6 -11 6620.31 590.566   4
   1  -6 -11 5945.89 517.433   6
   1   6 -10 13326.3 751.747  11
   1   6 -10 14010.0 838.829   5
   1  -6 -10 14532.0 917.407   4
   1  -6 -10 13474.7 800.635   6
   1  -6  -9 903.455 355.177   4
   1   6  -9 887.011 234.253  11
   1  -6  -8 8105.69 713.182  10
   1   6  -8 7891.67 753.794  15
   1  -6  -8 7896.27 694.119   4
   1  -6  -8 7003.29 558.894   6
  -1   6   8 7157.80 785.278  16
   1   6  -8 6280.54 531.903  11
   1   6  -7 21377.0 1141.18  15
  -1   6   7 20297.9 1168.15  16
  -1   6   6 2164.10 422.073  16
   1   6  -6 1730.59 333.635   1
   1   6  -6 2465.29 377.206  15
  -1   6   5 111827. 2320.77  16
   1   6  -5 108456. 2115.47  15
   1   6  -4 3935.03 401.279  15
  -1   6   4 4348.71 463.693  16
   1   6  -4 3753.50 436.413  16
   1   6  -3 20353.7 633.654   2
   1   6  -3 19465.6 824.388  16
  -1   6   3 20091.2 860.651  16
   1   6  -3 19316.2 750.251  15
   1   6  -2 640.884 211.437  16
  -1   6   2 342.743 215.322  16
  -1   6   1 46081.4 1180.05  16
   1   6  -1 45987.6 1109.63  16
  -1   6   0 75880.5 1516.29  16
   1   6   0 72755.8 1415.46  16
   1   6   1 28388.7 945.748  16
  -1   6  -1 28513.9 972.107  16
  -1   6  -2 132174. 2228.26  16
   1   6   2 138813. 2227.80  16
   1   6   3 854.370 272.063  16
  -1   6  -3 758.721 306.429  16
   1   6   4 11394.9 783.046  16
  -1   6  -4 11484.5 695.863  15
  -1   6  -5 25279.7 1195.17   1
  -1   6  -5 25873.5 1125.69  15
   1   6   5 27817.4 1305.08  16
  -1   6  -6 9853.11 775.190  15
  -1   6  -6 9553.32 796.228   1
   1   6   6 9677.17 865.164  16
  -1   6  -7 18686.8 1154.86   1
  -1   6  -7 20705.7 991.820  11
   1   6   7 21677.0 1370.69  16
  -1   6  -7 20970.3 1194.45  15
  -1  -6  -8 9827.23 720.358   4
  -1   6  -8 9381.85 846.805  15
  -1   6  -8 9422.61 704.662  11
  -1  -6  -8 8868.78 645.827   8
  -1   6  -9 35546.6 1320.43  11
  -1  -6  -9 34947.9 1324.48   6
  -1  -6  -9 34653.7 1307.40   4
  -1  -6 -10-5.06955 198.838   6
  -1  -6 -10 25.3276 143.403   4
  -1   6 -10 5.55004 168.602  11
  -1  -6 -11 8206.11 572.393   6
  -1   6 -11 7767.05 523.145  11
  -1   6 -11 7916.53 578.161   5
  -1   6 -12 221.209 150.804   5
  -1  -6 -12 33.5457 134.400   6
   1   7 -13 33066.0 761.710   5
   1  -7 -13 32854.7 726.962   6
   1  -7 -12 39.3072 111.710   6
   1   7 -12 106.633 147.101   5
   1   7 -12 382.240 131.864   7
   1  -7 -11 36577.3 1173.17   6
   1   7 -11 36341.3 1068.12  11
   1  -7 -11 37125.1 1275.85   4
   1   7 -11 38700.1 1253.88   5
   1   7 -11 34907.4 1091.23   7
   1  -7 -10 7296.32 571.050   6
   1   7 -10 7711.78 575.189  11
   1   7 -10 7549.84 611.196   5
   1  -7 -10 7819.95 686.520   4
   1   7  -9 608.994 198.492  11
   1  -7  -9 656.615 240.139   6
   1  -7  -9 709.968 320.416   4
   1   7  -9 444.392 221.906   5
   1  -7  -8 25398.0 1218.79  10
   1  -7  -8 22685.7 1001.71   6
   1  -7  -8 24262.0 1191.44   4
   1   7  -8 22981.7 1025.09  11
  -1   7   8 24513.2 1426.23  16
   1   7  -8 26788.1 1387.22  15
   1   7  -7 28267.3 1340.21  15
  -1   7   7 26412.4 1390.10  16
   1   7  -6 2103.25 361.852  15
   1   7  -6 1839.59 343.595   1
  -1   7   6 2444.24 420.434  16
   1   7  -5 4142.29 464.082  15
  -1   7   5 4926.05 543.139  16
   1   7  -4 120.016 163.488  15
   1   7  -4 254.003 218.019  16
  -1   7   4 302.694 223.485  16
   1   7  -3 17519.6 838.192  16
  -1   7   3 17269.3 861.108  16
  -1   7   2 145.601 189.931  16
   1   7  -2 222.369 188.795  16
  -1   7   1 35950.8 1153.73  16
   1   7  -1 33074.6 1060.38  16
   1   7   0 8696.95 563.754  16
  -1   7   0 8229.25 583.621  16
  -1   7  -1 84822.1 1805.17  16
   1   7   1 83332.9 1736.35  16
   1   7   2 9762.88 654.731  16
  -1   7  -2 10027.9 691.021  16
   1   7   3 210179. 3158.44  16
  -1   7  -3 221555. 3346.20  16
  -1   7  -4 3013.16 483.354  16
   1   7   4 3654.94 489.923  16
  -1   7  -4 3921.71 451.895  15
   1   7   5 53930.4 1883.81  16
  -1   7  -5 58833.4 1884.69   1
  -1   7  -5 55490.7 1717.06  15
  -1   7  -6 2884.92 479.354   1
   1   7   6 2875.30 508.539  16
  -1   7  -6 2796.27 457.087  15
  -1  -7  -7 34569.1 1309.43   4
  -1  -7  -7 32502.7 1228.50   8
  -1   7  -7 33032.2 1267.69  11
  -1   7  -7 30341.1 1484.98   1
  -1   7  -7 33057.2 1506.29  15
   1   7   7 32860.0 1717.92  16
  -1   7  -8-78.6296 165.242  11
  -1  -7  -8-384.406 160.898   8
  -1   7  -9 9257.47 693.253  11
  -1  -7  -9 10057.0 729.220   4
  -1  -7  -9 9654.08 698.455   6
  -1  -7 -10 2448.11 355.502   4
  -1   7 -10 2575.00 369.349  11
  -1  -7 -10 2179.06 342.916   6
  -1   7 -11 1330.65 239.808  11
  -1  -7 -11 1266.13 254.457   6
  -1   7 -11 970.406 237.664   5
  -1  -7 -12 1764.78 224.922   6
  -1   7 -12 2092.99 252.520   5
   1   8 -12 1518.62 195.657   7
   1  -8 -12 1464.30 207.601   6
   1   8 -12 1280.58 216.055   5
   1   8 -11 4256.76 361.892  11
   1  -8 -11 3769.27 379.644   6
   1   8 -11 3518.79 372.301   7
   1   8 -11 4219.70 418.073   5
   1  -8 -11 3723.92 442.639   4
   1   8 -10 5775.89 509.282  11
   1  -8 -10 5869.27 504.658   6
   1   8 -10 5986.70 531.373   5
   1  -8 -10 5711.81 597.833   4
   1  -8  -9 22894.9 1001.74   6
   1  -8  -9 23520.2 1170.96   4
   1   8  -9 23638.9 1042.53  11
   1   8  -9 22727.4 1028.65   5
   1   8  -8 15302.5 863.626  11
   1  -8  -8 15658.0 974.724   4
   1  -8  -8 14352.8 851.263   3
   1  -8  -8 14877.2 798.002   6
   1  -8  -7 10854.1 747.212   3
  -1   8   7 11483.6 964.795  16
   1  -8  -7 10658.0 784.597   4
   1  -8  -7 12904.5 861.021  10
   1   8  -7 11647.4 902.341  15
   1   8  -7 11605.8 725.164  11
   1   8  -6 104.999 163.807  15
   1   8  -6-43.7536 169.812   1
  -1   8   6-182.651 226.936  16
   1   8  -5 38723.9 1391.66  15
  -1   8   5 37512.2 1492.10  16
  -1   8   4 1222.27 326.977  16
   1   8  -4 1102.04 280.912  16
   1   8  -4 1223.36 268.116  15
  -1   8   3 121453. 2410.29  16
   1   8  -3 119530. 2354.98  16
   1   8  -2 24405.8 1006.69  16
  -1   8   2 26349.7 1097.12  16
   1   8  -1 3808.57 427.374  16
  -1   8   1 3638.52 448.384  16
  -1   8   0 13161.0 781.706  16
   1   8   0 13952.9 763.016  16
   1   8   1 36326.8 1250.86  16
  -1   8  -1 37633.0 1311.00  16
  -1   8  -2 22726.5 1081.50  16
   1   8   2 21701.5 1020.23  16
  -1   8  -3 271.679 252.020  16
   1   8   3 72.7433 214.090  16
   1   8   4 62432.9 1963.32  16
  -1   8  -4 63400.9 1801.61  15
  -1   8  -4 66344.7 2082.99  16
   1   8   5 9036.26 824.837  16
  -1   8  -5 9621.96 827.311   1
  -1   8  -5 10092.7 783.622  15
   1   8   6 1461.44 431.842  16
  -1   8  -6 1297.81 276.698  11
  -1   8  -6 1357.57 371.406   1
  -1   8  -6 1378.55 367.202  15
  -1   8  -7 66332.7 2253.19   1
  -1  -8  -7 74738.7 1893.23   8
   1   8   7 75567.8 2635.17  16
  -1   8  -7 71274.1 2275.24  15
  -1  -8  -7 75167.7 1955.75   4
  -1  -8  -7 70618.7 1898.85   3
  -1   8  -7 71854.2 1910.87  11
  -1  -8  -8-28.4399 151.386   6
  -1  -8  -8-330.926 192.474   8
  -1  -8  -8 319.150 235.521   4
  -1   8  -8-63.4943 192.468  11
  -1  -8  -9 18301.9 915.473   6
  -1   8  -9 18975.1 966.835  11
  -1  -8  -9 20535.5 993.394   4
  -1   8 -10-81.5081 159.405  11
  -1   8 -10-45.0715 184.009   5
  -1  -8 -10 367.967 191.415   4
  -1  -8 -10-264.672 181.940   6
  -1  -8 -11 12941.4 623.058   6
  -1   8 -11 13258.8 618.504  11
  -1   8 -11 13450.0 649.591   5
  -1  -8 -12 2291.60 216.765   6
  -1   8 -12 2361.03 224.269   5
   1   9 -12 244.650 103.740   7
   1   9 -12 260.983 114.266   5
   1  -9 -11 3353.31 382.432   4
   1   9 -11 3408.65 352.066   7
   1   9 -11 3280.42 334.200   5
   1  -9 -11 3371.42 315.065   6
   1   9 -10 3378.17 391.088   5
   1   9 -10 3309.72 384.748  11
   1   9 -10 3238.18 401.881   7
   1  -9 -10 3394.66 468.966   4
   1  -9 -10 3191.84 356.741   6
   1  -9  -9 2233.90 309.349   6
   1   9  -9 2363.19 331.699   5
   1  -9  -9 2323.14 451.654   4
   1   9  -9 2403.26 370.978  11
   1  -9  -8 36043.2 1201.40   6
   1  -9  -8 37712.8 1508.17   4
   1  -9  -8 36070.0 1359.77   3
   1   9  -8 36630.0 1327.83  11
   1   9  -8 36377.9 1242.42   5
   1  -9  -7 14622.4 895.395   3
   1  -9  -7 15323.0 966.501   4
  -1   9   7 13854.7 1056.52  16
   1  -9  -7 17838.1 1080.96  10
   1   9  -7 15473.1 1052.89  15
   1   9  -7 14009.7 830.532  11
   1   9  -6 12070.1 896.129  15
   1  -9  -6 11642.5 783.927   3
  -1   9   6 10931.9 923.095  16
   1  -9  -6 12960.7 850.446   4
   1   9  -6 11048.3 846.134   1
   1   9  -6 12574.4 754.421  11
  -1   9   5 10111.2 840.384  16
   1   9  -5 11399.4 801.092  15
   1   9  -4 121756. 2721.70  16
   1   9  -4 120290. 2405.36  15
  -1   9   3 9111.95 727.802  16
   1   9  -3 8780.37 702.285  16
   1   9  -2 83282.1 2018.87  16
  -1   9   2 87221.7 2141.08  16
   1   9  -1 1986.11 361.521  16
  -1   9   1 1636.02 372.896  16
  -1   9   0 8999.11 707.840  16
   1   9   0 10063.0 703.933  16
  -1   9  -1 18922.5 1025.39  16
   1   9   1 18917.3 983.879  16
   1   9   2 2174.46 388.463  16
  -1   9  -2 2259.92 433.293  16
  -1   9  -3 3229.82 501.634  16
   1   9   3 4278.67 536.241  16
   1   9   4 45733.5 1760.43  16
  -1   9  -4 44908.6 1817.27  16
  -1   9  -4 43606.5 1591.98  15
  -1   9  -5 1805.89 415.333  15
   1   9   5 2234.84 455.409  16
  -1   9  -5 1472.07 379.133   1
  -1   9  -6 16022.0 1075.68  15
  -1  -9  -6 16808.2 944.290   4
  -1   9  -6 14307.0 1060.44   1
  -1   9  -6 15397.8 828.182  12
   1   9   6 16421.9 1212.89  16
  -1  -9  -6 16943.9 968.528   3
  -1   9  -6 16255.6 902.475  11
  -1  -9  -7 24926.1 1164.23   3
  -1  -9  -7 24414.2 1095.09   8
  -1   9  -7 23906.6 1009.91  12
  -1  -9  -7 24640.5 1143.85   4
  -1   9  -7 25395.6 1158.74  11
  -1  -9  -8 16992.3 923.141   3
  -1  -9  -8 18743.8 986.714   4
  -1  -9  -8 16866.0 886.510   6
  -1   9  -8 17646.5 967.932  11
  -1  -9  -8 17146.8 886.488   8
  -1  -9  -9 771.147 244.454   6
  -1   9  -9 921.941 279.754  11
  -1  -9  -9 1150.23 292.896   4
  -1   9 -10 22663.1 932.003  11
  -1  -9 -10 21029.2 854.176   6
  -1  -9 -10 22533.3 860.014   4
  -1   9 -10 23331.4 900.036   5
  -1   9 -11 214.804 112.994  11
   1   9  11 195.635 127.379  13
  -1  -9 -11 96.8262 104.749   6
  -1   9 -11 272.592 130.798   7
  -1   9 -11 136.020 111.259   5
   1  10 -12 19808.7 517.610   7
   1 -10 -12 17913.6 530.858   4
   1  10 -11 21.5191 134.986   7
   1 -10 -11 169.722 159.178   4
   1  10 -11 201.807 105.130   5
   1  10 -10 22761.4 854.881   5
   1 -10 -10 21897.9 998.877   4
   1  10 -10 20285.2 880.298   7
   1 -10 -10 21614.3 783.876   6
   1 -10  -9 970.867 262.697   3
   1  10  -9 1351.19 319.275   7
   1 -10  -9 1079.06 349.208   4
   1  10  -9 1132.27 272.568  11
   1  10  -9 1367.54 262.849   5
   1 -10  -8 12699.0 892.973   4
   1  10  -8 12731.9 801.225  11
   1 -10  -8 11275.1 787.782   3
   1  10  -7 1634.26 348.487  11
   1 -10  -7 1623.98 402.842   4
   1 -10  -7 1497.01 310.573   3
   1  10  -6 10389.8 848.546  15
   1  10  -6 9345.68 619.003  12
   1  10  -6 9579.90 691.884  11
   1 -10  -6 9589.52 747.140   3
  -1  10   6 8938.44 889.537  16
   1 -10  -6 9309.77 777.725   4
   1 -10  -5 5437.14 549.344   3
  -1  10   5 5306.58 660.302  16
   1  10  -5 5820.43 608.609  15
   1  10  -5 5926.90 535.280  11
   1  10  -4 5351.84 554.402  15
  -1  10   4 6978.05 708.791  16
   1  10  -4 5496.60 645.807  16
  -1  10   3 10308.3 836.170  16
   1  10  -3 9629.90 785.914  16
   1  10  -2 27835.7 1282.72  16
  -1  10   2 29325.9 1347.43  16
   1  10  -1 3102.30 455.407  16
  -1  10   1 2779.12 445.180  16
   1  10   0 58055.9 1809.32  16
  -1  10   0 59705.8 1899.36  16
   1  10   1 10816.1 801.530  16
  -1  10  -1 10653.1 827.449  16
   1  10   2 71097.2 2084.92  16
  -1  10  -2 69923.6 2160.48  16
  -1  10  -3 1060.94 377.736  16
   1  10   3 1023.42 319.085  16
  -1  10  -4 33729.0 1661.57  16
   1  10   4 33404.5 1577.01  16
  -1  10  -4 34440.7 1479.16  15
  -1  10  -5 4751.78 659.923   1
  -1  10  -5 4361.78 570.175  15
  -1 -10  -5 4843.95 544.514   3
  -1  10  -5 5350.30 487.070  12
  -1  10  -5 4900.69 516.180  11
   1  10   5 4698.62 646.087  16
  -1  10  -6 41168.9 1457.59  11
  -1  10  -6 39482.5 1789.24   1
  -1  10  -6 38806.4 1326.02  12
  -1 -10  -6 42145.5 1546.19   3
  -1 -10  -6 41486.9 1510.17   4
  -1 -10  -7 15258.8 877.855   8
  -1 -10  -7 15559.1 935.126   4
  -1  10  -7 15722.3 924.443  11
  -1 -10  -7 15207.7 925.728   3
  -1 -10  -7 14434.4 779.275   6
  -1  10  -7 14708.0 800.525  12
  -1 -10  -8 2897.79 373.250   6
  -1  10  -8 3011.31 419.226  11
  -1 -10  -8 2653.23 407.832   3
  -1 -10  -8 2801.14 375.685   8
  -1 -10  -8 2992.69 433.574   4
  -1  10  -9 878.475 271.832  11
  -1 -10  -9 752.001 209.994   6
  -1  10  -9 990.494 239.374   5
  -1 -10  -9 1157.93 282.249   4
  -1  10 -10 843.773 221.077  11
  -1 -10 -10 335.005 161.112   4
  -1  10 -10 768.847 186.749   5
  -1 -10 -10 529.462 145.646   6
   1  10  11 250.166 110.079  13
  -1  10 -11 69.6466 82.1121   5
  -1  10 -11 137.837 121.781   7
   1 -11 -11 17149.3 661.160   4
   1  11 -11 17567.8 632.859   7
   1  11 -10 3094.64 353.176   7
   1 -11 -10 3669.92 432.981   4
   1 -11  -9 1573.22 291.488   3
   1  11  -9 1806.26 341.497   7
   1 -11  -9 2176.93 416.761   4
   1 -11  -8 18337.8 983.351   3
   1 -11  -8 18505.7 1046.02   4
   1  11  -8 15640.3 863.478   7
   1  11  -8 17265.0 917.428  11
   1  11  -7 16404.1 923.719  11
   1 -11  -7 16434.0 1018.12   4
   1 -11  -7 15800.1 962.864   3
   1 -11  -6 3415.77 514.563   4
   1 -11  -6 3341.41 480.534   3
   1  11  -6 2408.07 334.276  12
   1  11  -6 3520.37 477.687  11
  -1  11   5 708.712 295.069  16
   1  11  -5 1240.88 276.359  11
   1 -11  -5 1207.97 317.409   3
   1  11  -5 1086.83 261.163  12
   1 -11  -5 917.746 223.605   9
   1  11  -5 934.594 302.546  15
   1  11  -4 17301.2 1169.85  16
   1  11  -4 17676.5 853.905  12
   1 -11  -4 17577.3 872.098   9
   1  11  -4 17855.4 919.428  11
   1  11  -4 17191.0 1019.13  15
  -1  11   4 17305.3 1164.86  16
   1 -11  -4 18582.0 1013.91   3
  -1  11   3 27151.9 1404.78  16
   1  11  -3 25528.8 1346.04  16
   1  11  -3 26875.3 1220.30  15
  -1  11   2 8596.51 793.981  16
   1  11  -2 9541.13 817.706  16
  -1  11   1 522.185 279.485  16
   1  11  -1 391.417 246.785  16
  -1  11   0 30553.5 1456.04  16
   1  11   0 27663.9 1356.36  16
   1  11   1 93969.6 2492.16  16
  -1  11  -1 99390.4 2663.70  16
  -1  11  -2 854.354 330.999  16
   1  11   2 514.310 296.256  16
  -1  11  -3 74528.3 2495.54  16
   1  11   3 73592.0 2338.17  16
  -1  11  -3 74269.1 1817.98  12
  -1  11  -4 6822.57 593.932  11
  -1  11  -4 8094.82 622.318  12
  -1  11  -4 7714.85 851.133  16
  -1 -11  -4 7582.75 670.388   3
  -1  11  -4 7098.74 708.386  15
   1  11   4 7521.06 808.428  16
  -1  11  -5 1024.42 335.548  15
  -1  11  -5 929.151 243.157  12
  -1  11  -5 746.403 366.583   1
  -1  11  -5 1043.97 264.071  11
  -1 -11  -5 1332.06 320.967   3
   1  11   5 411.081 254.278  16
  -1  11  -6 4899.33 548.658  11
  -1 -11  -6 5187.30 577.212   3
  -1  11  -6 5136.40 518.967  12
  -1 -11  -6 5205.40 576.768   4
  -1 -11  -7 13049.5 796.356   8
  -1 -11  -7 13634.5 880.752   3
  -1  11  -7 13347.7 846.231  11
  -1 -11  -7 14018.1 885.188   4
  -1  11  -7 13100.3 741.112  12
  -1 -11  -8 14204.3 709.561   6
  -1 -11  -8 14062.1 836.165   3
  -1 -11  -8 15142.4 849.013   4
  -1  11  -8 15946.2 893.469  11
  -1 -11  -8 13524.9 748.630   8
  -1 -11  -9 3095.92 376.695   4
  -1 -11  -9 3003.67 303.765   6
  -1  11  -9 2642.93 357.439  11
  -1  11 -10 4397.05 378.630   7
  -1  11 -10 3985.45 360.311  11
  -1 -11 -10 4334.82 325.369   4
   1  11  11 2466.67 201.294  13
  -1  11 -11 2823.38 223.506   7
   1 -12 -11-517.242 174.795   4
   1  12 -11 304.129 114.843   7
   1 -12 -10 24.7041 175.508   4
   1  12 -10-12.6760 143.047   7
   1 -12  -9 11120.1 659.067   3
   1  12  -9 11204.4 662.614   7
   1 -12  -9 11321.5 741.688   4
   1 -12  -8 1338.92 370.717   4
   1 -12  -8 1177.06 313.082   3
   1  12  -8 1636.26 316.989   7
   1  12  -7 47635.4 1467.81   7
   1  12  -7 48975.9 1326.98  12
   1 -12  -7 48812.7 1664.55   3
   1 -12  -7 51165.5 1732.22   4
   1 -12  -6 4123.16 530.614   3
   1 -12  -6 4689.52 600.761   4
   1  12  -6 3947.93 437.654  12
   1  12  -6 3939.24 453.441   7
   1  12  -5 28782.0 1137.09   7
   1 -12  -5 30436.1 1361.84   3
   1  12  -5 28465.3 1110.13  12
   1 -12  -5 29450.5 1160.50   9
   1  12  -4 799.020 258.097   7
   1  12  -4 111.985 268.497  16
   1 -12  -4 936.705 289.378   3
   1 -12  -4 748.732 256.701   9
  -1  12   4 612.263 346.812  16
   1  12  -4 972.183 252.737  15
   1  12  -4 597.049 226.415  12
  -1  12   3 86606.2 2619.68  16
   1 -12  -3 85054.9 1966.29   9
   1  12  -3 85808.7 1924.72  12
   1  12  -3 78536.8 2172.09  15
   1 -12  -3 84018.4 2147.98   3
  -1  12   2 16390.2 1162.55  16
   1 -12  -2 16205.5 938.183   3
   1 -12  -2 17538.1 893.921   9
   1  12  -2 16395.4 837.694  12
   1 -12  -1 6840.50 567.850   9
   1  12  -1 6515.14 541.525  12
   1  12  -1 6094.18 676.716  16
  -1  12   1 7325.33 791.124  16
   1  12   0 393.374 265.438  16
  -1  12   0 382.234 287.188  16
   1  12   1 9509.83 864.173  16
  -1  12  -1 9105.54 646.524  12
  -1 -12  -1 9648.59 661.175   9
   1  12   1 8878.75 618.340  12
  -1  12  -1 9275.14 900.598  16
   1 -12   2 1489.12 284.422   9
   1  12   2 2931.88 361.902  12
  -1 -12  -2 2938.97 395.417   9
  -1  12  -2 2639.59 549.371  16
  -1 -12  -2 3462.57 468.770   3
   1  12   2 2734.32 499.446  16
  -1  12  -2 2945.01 393.331  12
  -1 -12  -3 111.080 158.289   9
  -1 -12  -3 92.2997 250.014   3
   1  12   3 274.915 156.894  12
  -1  12  -3-32.9542 195.140  11
   1  12   3 551.480 300.341  16
  -1  12  -3 110.379 175.290  16
  -1  12  -3-50.5929 179.127  12
  -1  12  -4 11579.8 789.258  11
  -1 -12  -4 11930.6 861.693   3
  -1  12  -4 11846.9 773.776  12
  -1  12  -5 32019.6 1235.99  12
  -1 -12  -5 34623.5 1442.12   3
  -1  12  -5 34624.3 1357.39  11
  -1  12  -6 16821.2 954.577  11
  -1  12  -6 15531.0 846.384  12
  -1 -12  -6 16752.4 1006.09   3
  -1 -12  -6 16405.5 952.568   4
  -1 -12  -7 7474.54 659.894   3
  -1  12  -7 6727.10 520.211  12
  -1  12  -7 7497.95 649.964  11
  -1 -12  -7 7474.03 638.283   4
  -1 -12  -7 6900.99 579.753   8
  -1  12  -8-42.7013 211.264  11
  -1  12  -8 306.421 143.452  12
  -1 -12  -8 23.3097 220.970   4
  -1 -12  -8 348.154 140.165   8
  -1 -12  -8 288.835 186.652   3
  -1  12  -9 35807.2 1121.11  11
  -1  12  -9 33615.5 1037.97   7
  -1 -12  -9 35794.9 1046.14   4
  -1  12 -10 50.7329 133.485   7
   1 -13 -10 3912.97 340.406   4
   1  13 -10 3484.15 299.962   7
   1 -13  -9 7784.41 573.937   4
   1  13  -9 7036.86 489.692   7
   1 -13  -9 7134.78 504.700   3
   1 -13  -8 3822.61 452.520   3
   1 -13  -8 4353.83 526.427   4
   1  13  -8 3866.88 432.141   7
   1  13  -7 128.297 197.519   7
   1 -13  -7 554.337 301.461   4
   1 -13  -7 551.692 285.950   3
   1  13  -7 291.003 162.175  12
   1 -13  -6 9817.17 808.610   4
   1 -13  -6 10086.8 801.833   3
   1  13  -6 9800.06 638.270  12
   1  13  -6 9475.40 660.852   7
   1  13  -5 11692.3 734.439  12
   1 -13  -5 13478.2 800.462   9
   1  13  -5 12194.0 740.201   7
   1 -13  -5 11751.9 867.849   3
   1 -13  -4 27233.8 1285.14   3
   1  13  -4 25364.6 1022.94   7
   1  13  -4 25015.8 1073.24  12
   1 -13  -4 27150.8 1144.69   9
   1 -13  -3 3563.05 510.217   3
   1 -13  -3 3473.46 445.297   9
   1  13  -3 3721.06 447.847  12
   1  13  -3 3234.27 518.360  15
   1  13  -2 38124.8 1773.68  16
   1 -13  -2 44638.8 1456.25   9
  -1  13   2 43139.9 1313.93  12
  -1  13   2 45396.9 1978.46  16
   1  13  -2 42755.0 1391.55  12
  -1 -13   2 41292.7 1299.97   9
   1 -13  -2 42961.6 1540.36   3
  -1  13   1 44243.6 1957.38  16
   1  13  -1 41173.8 1363.00  12
   1 -13  -1 40207.3 1384.73   9
   1  13  -1 38349.3 1779.96  16
   1 -13  -1 40011.2 1439.80   3
  -1 -13   1 41382.3 1343.93   9
  -1  13   1 42877.1 1349.49  12
   1  13   0 1754.44 449.893  16
   1 -13   0 1651.27 333.849   9
  -1  13   0 2300.22 513.086  16
  -1 -13   0 1960.44 339.420   9
  -1 -13   0 1677.46 347.694   3
  -1  13   0 1646.59 312.889  12
   1  13   0 1884.39 317.107  12
  -1  13  -1 22992.9 1448.70  16
   1 -13   1 20686.8 983.299   9
  -1 -13  -1 22389.2 1034.28   9
   1  13   1 22176.1 1371.23  16
  -1 -13  -1 22883.1 1100.47   3
  -1  13  -1 20695.9 991.457  12
   1  13   1 21694.8 970.932  12
  -1  13  -2 1551.57 499.563  16
   1 -13   2 2086.33 340.066   9
  -1 -13  -2 2344.43 415.134   9
   1  13   2 2105.58 333.300  12
  -1 -13  -2 2552.63 431.596   3
   1  13   2 1884.67 461.210  16
  -1  13  -2 2563.66 399.617  12
  -1 -13  -3 34490.3 1430.58   3
  -1  13  -3 35627.7 1321.20  12
   1  13   3 34707.7 1169.26  12
   1 -13   3 34897.5 1186.99   9
  -1 -13  -4 10364.8 814.351   3
  -1  13  -4 10644.9 753.079  11
  -1  13  -4 9725.68 702.740  12
  -1  13  -5 4313.38 490.684  12
  -1 -13  -5 3951.18 526.694   3
  -1  13  -5 4287.54 515.653  11
  -1  13  -6 962.596 295.954  11
  -1 -13  -6 518.398 295.672   4
  -1  13  -6 585.260 226.492  12
  -1 -13  -6 586.492 309.345   3
  -1 -13  -7 11574.7 779.952   3
  -1  13  -7 12005.8 652.547  12
  -1 -13  -7 11201.9 689.995   8
  -1 -13  -7 10769.3 720.096   4
  -1  13  -7 11709.1 763.245  11
  -1 -13  -8 5220.17 403.051   8
  -1 -13  -8 6795.42 516.800   4
  -1  13  -8 6578.36 504.454   7
  -1 -13  -9-40.4859 97.8948   4
  -1  13  -9 362.436 154.759   7
  -1  13 -10 12082.0 437.197   7
   1  13  10 11571.1 437.072  13
   1  14 -10 18160.3 525.679   7
   1 -14 -10 16374.0 535.884   4
   1 -14  -9 507.041 205.689   4
   1  14  -9 702.295 180.152   7
   1 -14  -8 7285.67 555.619   3
   1  14  -8 6822.13 484.336   7
   1 -14  -8 7585.38 601.553   4
   1  14  -7 2292.06 272.404  12
   1 -14  -7 2356.05 395.722   3
   1  14  -7 2174.22 316.980   7
   1 -14  -7 2419.74 435.823   4
   1 -14  -6 1792.97 376.237   3
   1 -14  -6 909.051 362.389   4
   1  14  -6 1474.71 290.687   7
   1  14  -6 1162.62 252.606  12
   1  14  -5 18527.2 870.735   7
   1  14  -5 18598.8 887.721  12
   1 -14  -5 18535.5 1061.56   3
   1 -14  -5 20316.2 1100.81   4
   1  14  -4 5979.67 494.071   7
   1  14  -4 5644.38 532.310  12
   1 -14  -4 5117.46 608.240   3
   1 -14  -4 5737.33 553.463   9
   1 -14  -3 434.159 248.117   3
   1 -14  -3 112.486 210.224   9
   1  14  -3 154.918 183.104  12
  -1 -14   2 5068.40 483.373   9
   1  14  -2 5348.07 529.663  12
  -1  14   2 5879.81 521.417  12
   1 -14  -2 5302.75 565.764   3
   1 -14  -2 5074.49 535.975   9
   1 -14  -1 339.322 219.923   9
   1  14  -1 134.492 178.618  12
  -1 -14   1 16.9082 176.883   9
   1 -14  -1 350.082 221.603   3
  -1  14   1 140.337 189.623  12
  -1 -14   0 15660.4 865.841   9
  -1 -14   0 15489.8 891.540   3
  -1  14   0 14326.5 829.604  12
   1  14   0 15451.6 854.272  12
   1 -14   0 14616.1 861.395   9
   1 -14   1 122.952 193.205   9
  -1 -14  -1 22.3559 173.116   3
   1  14   1 118.749 167.800  12
  -1 -14  -1 228.033 228.517   9
  -1  14  -1 59.6855 217.793  12
   1 -14   2 79040.6 1867.92   9
  -1 -14  -2 82220.9 2135.77   3
   1  14   2 81308.0 1829.59  12
  -1 -14  -2 84621.8 2034.54   9
  -1  14  -2 82316.9 1988.72  12
  -1  14  -3 198.358 215.026  12
   1  14   3 496.651 216.326  12
   1 -14   3 174.883 187.639   9
  -1 -14  -3 89.6240 224.546   3
  -1  14  -4 29509.2 1183.76  12
  -1 -14  -4 30376.3 1337.06   3
  -1 -14  -5 648.991 328.626   4
  -1 -14  -5 113.172 238.690   3
  -1  14  -5 242.777 196.603  12
  -1  14  -5 429.586 192.599   7
  -1 -14  -6 6690.56 625.801   3
  -1  14  -6 6185.25 501.251  12
  -1  14  -6 6288.21 509.705   7
  -1 -14  -6 6683.12 609.755   4
  -1 -14  -7 861.615 217.685   8
  -1 -14  -7 453.448 223.973   3
  -1 -14  -7 279.454 225.231   4
  -1  14  -7 465.125 197.883   7
  -1  14  -7 471.236 168.879  12
  -1  14  -8 6248.20 428.607   7
  -1 -14  -8 4998.36 407.225   4
  -1 -14  -9 4024.25 243.704   4
  -1  14  -9 5523.66 330.977   7
   1 -15  -9 2525.17 263.281   4
   1  15  -9 3048.03 242.172   7
   1  15  -8 17907.6 660.507   7
   1 -15  -8 18265.4 802.966   4
   1 -15  -8 16499.2 732.818   3
   1 -15  -7-191.687 245.626   4
   1  15  -7-81.2544 157.839   7
   1  15  -7 15.8861 88.6453  12
   1 -15  -7 114.824 183.949   3
   1 -15  -6 5273.02 578.698   4
   1  15  -6 4397.27 394.596  12
   1  15  -6 4697.18 415.151   7
   1 -15  -6 5329.49 549.976   3
   1  15  -5 337.607 164.401   7
   1 -15  -5 381.604 292.082   4
   1  15  -5 192.162 179.074  12
   1 -15  -5-147.456 262.446   3
   1 -15  -4 38291.7 1320.49   9
   1 -15  -4 37277.0 1443.24   3
   1  15  -4 36100.9 1234.72  12
   1 -15  -3 920.229 294.116   3
   1 -15  -3 1195.26 325.145   9
   1  15  -3 1262.42 310.034  12
   1 -15  -2 6903.12 650.571   3
  -1 -15   2 7091.24 565.026   9
   1 -15  -2 7245.64 625.191   9
  -1  15   2 7302.24 557.449  12
   1  15  -2 6811.30 596.712  12
   1 -15  -1 6425.87 599.117   9
   1 -15  -1 6490.93 599.622   3
  -1  15   1 6434.03 556.178  12
   1  15  -1 6812.35 586.753  12
  -1 -15   1 5889.88 542.713   9
   1 -15   0 34339.1 1284.67   9
  -1 -15   0 35364.4 1284.83   9
  -1  15   0 33651.0 1228.48  12
   1  15   0 33866.7 1236.31  12
  -1 -15   0 36828.0 1326.00   3
   1  15   1 16427.0 848.049  12
   1 -15   1 16452.2 871.770   9
  -1  15  -1 16063.9 876.052  12
  -1 -15  -1 17414.3 958.442   3
  -1 -15  -1 16586.2 903.666   9
   1 -15   2 9.17829 200.327   9
   1  15   2-202.792 172.121  12
  -1  15  -2-144.402 199.517  12
  -1 -15  -2-68.1971 198.122   3
   1 -15   3 2207.48 337.414   9
  -1 -15  -3 2583.85 434.321   3
   1  15   3 2361.56 340.118  12
  -1  15  -3 2358.27 387.295  12
  -1  15  -4 17827.0 893.900  12
  -1 -15  -4 18220.1 1017.59   3
  -1 -15  -5 6172.65 607.640   3
  -1  15  -5 6617.65 477.343   7
  -1 -15  -5 6481.78 614.541   4
  -1  15  -5 6547.76 529.156  12
  -1 -15  -6 3667.91 444.663   3
  -1 -15  -6 2745.95 390.938   4
  -1  15  -6 3246.34 344.797  12
  -1  15  -6 3284.89 334.620   7
  -1 -15  -6 2742.76 338.450   8
  -1  15  -7 473.352 163.876   7
  -1 -15  -7 386.456 220.465   4
  -1 -15  -7 313.907 132.289   8
  -1  15  -7 394.737 144.752  12
  -1 -15  -8 10210.8 457.569   4
  -1  15  -8 10823.6 449.037   7
   1 -16  -8 316.282 158.219   4
   1  16  -8 269.064 100.162   7
   1 -16  -7 10572.9 624.674   4
   1 -16  -7 10926.3 615.967   3
   1  16  -7 11828.3 500.286   7
   1  16  -6 484.693 153.167   7
   1 -16  -6 349.878 243.881   4
   1  16  -6 520.555 168.411  12
   1 -16  -6 591.031 247.689   3
   1  16  -5 31753.5 1023.49  12
   1  16  -5 33432.0 941.566   7
   1 -16  -5 33992.3 1254.61   3
   1 -16  -5 34344.9 1278.46   4
   1  16  -4 255.796 197.952  12
   1 -16  -4 142.061 220.043   3
   1  16  -3 16244.5 833.125  12
   1 -16  -3 16556.7 866.496   9
   1 -16  -3 16002.1 913.246   3
   1 -16  -2 14219.2 840.193   3
   1 -16  -2 13023.8 801.224   9
   1  16  -2 11629.1 728.367  12
  -1  16   2 11890.6 657.298  12
   1 -16  -1 12570.9 769.529   3
   1  16  -1 12813.8 757.027  12
   1 -16  -1 12088.9 763.073   9
  -1  16   1 12054.9 706.147  12
   1 -16   0 221.621 242.011   9
   1  16   0 150.166 196.682  12
  -1  16   0 226.303 195.249  12
  -1  16  -1 739.359 256.892  12
   1 -16   1 860.808 276.024   9
   1  16   1 1212.88 268.777  12
  -1 -16  -1 1180.71 287.835   3
  -1 -16  -2 517.786 237.569   3
   1 -16   2 428.985 223.489   9
  -1  16  -2 654.813 255.053  12
   1  16   2 731.978 230.046  12
  -1 -16  -3 3014.77 433.911   3
  -1  16  -3 3709.69 445.162  12
   1  16   3 3444.40 357.337  12
   1 -16   3 3539.10 371.956   9
  -1  16  -4 21401.7 911.187  12
  -1 -16  -4 21198.4 1023.06   3
  -1 -16  -5 769.303 265.699   4
  -1 -16  -5 901.201 276.632   3
  -1  16  -5 860.979 228.167  12
  -1 -16  -6-237.625 179.842   4
  -1  16  -6-13.3604 114.120  12
  -1 -16  -6-77.3436 130.307   8
  -1 -16  -7 8694.53 446.601   4
  -1  16  -7 8796.17 359.327   7
   1 -17  -7 1719.21 236.249   4
   1 -17  -6 1110.29 246.923   4
   1 -17  -6 896.753 230.083   3
   1  17  -6 696.804 158.578  12
   1  17  -5 2477.35 274.894  12
   1 -17  -5 2777.05 367.097   4
   1 -17  -5 2113.44 333.715   3
   1 -17  -4 689.182 236.092   3
   1 -17  -4 503.593 254.654   4
   1  17  -4 459.742 175.407  12
   1  17  -3 9406.20 587.132  12
   1 -17  -3 9619.71 648.439   3
   1 -17  -2 3238.61 411.537   9
   1 -17  -2 3901.69 432.805   3
  -1  17   2 3129.19 324.397  12
   1  17  -2 4101.79 429.907  12
   1 -17  -1 24097.2 956.200   3
   1 -17  -1 23970.3 991.693   9
   1  17  -1 24389.5 961.211  12
  -1  17   1 23741.9 905.846  12
   1 -17   0 744.014 266.485   9
   1  17   0 456.373 212.024  12
  -1  17   0 519.594 211.170  12
  -1 -17  -1 23153.5 959.799   3
   1 -17   1 23620.6 924.273   9
   1  17   1 22002.2 867.805  12
  -1  17  -1 23035.9 927.467  12
   1 -17   2 259.440 169.900   9
  -1 -17  -2 373.244 199.769   3
   1  17   2 234.446 179.017  12
  -1  17  -2 106.878 169.330  12
  -1  17  -3 13356.8 690.448  12
  -1 -17  -3 13062.3 744.872   3
   1  17   3 11275.1 540.124  12
  -1 -17  -4 259.248 243.755   4
  -1 -17  -4 152.125 211.926   3
  -1  17  -4 141.456 152.601  12
  -1  17  -5 6531.78 423.869  12
  -1 -17  -5 7213.51 491.997   4
  -1 -17  -6 1948.28 238.962   4
  -1 -17  -6 1486.87 191.284   8
  -1  17  -6 2094.18 206.231  12
   1 -18  -6-73.4680 94.1076   4
   1 -18  -5 12432.6 588.711   3
   1  18  -5 12625.4 484.008  12
   1 -18  -5 11807.5 574.646   4
   1  18  -4-0.42342 120.240  12
   1 -18  -4 27.9649 166.310   4
   1 -18  -4 67.0842 123.069   3
   1 -18  -3 5610.21 459.840   4
   1 -18  -3 6060.17 453.080   3
   1  18  -3 5805.46 415.025  12
  -1  18   2 3144.48 273.700  12
   1 -18  -2 3495.92 341.321   3
   1  18  -2 3383.01 341.976  12
  -1  18   1 1348.85 223.965  12
   1  18  -1 1896.47 278.314  12
  -1  18   0 13111.0 624.079  12
   1  18   0 12667.1 612.853  12
   1  18   1 102.659 115.913  12
  -1  18  -1-39.6395 177.619  12
   1  18   2 4461.20 332.111  12
  -1  18  -2 4789.02 398.131  12
  -1  18  -3 944.306 205.755  12
  -1 -18  -3 931.440 248.384   4
  -1 -18  -4 11346.4 572.766   4
  -1  18  -4 11764.8 524.787  12
  -1 -18  -5 794.357 142.572   8
  -1 -18  -5 1109.83 196.564   4
   1  19  -4 12667.4 436.833  12
   1 -19  -4 11164.6 469.207   4
   1 -19  -3 67.1745 113.110   4
   1  19  -3 11.1497 98.5609  12
   1 -19  -2 10261.8 510.540   4
   1  19  -2 11619.8 500.333  12
  -1  19   1 721.225 129.676  12
   1  19  -1 517.933 155.835  12
  -1  19   0 2126.14 237.786  12
   1  19   0 2221.92 232.051  12
   1  19   1 570.630 133.423  12
  -1  19  -1 309.581 144.756  12
  -1  19  -2 260.181 122.413  12
  -1 -19  -2 78.8809 145.824   4
  -1  19  -3 1483.89 184.142  12
  -1 -19  -3 1534.18 220.671   4
  -1  19  -4 1079.76 133.538  12
  -1 -20   0 4601.19 277.735   4
   2   0 -14 3388.98 287.384   6
   2   0 -13 238.310 146.272   5
   2   0 -13 148.899 158.237   6
   2   0 -12 39791.4 1298.25   6
   2   0 -12 36205.9 1206.00   5
   2   0 -12 40002.1 1330.72   4
   2   0 -11-137.867 367.763   4
   2   0 -11 4.05308 272.973  14
   2   0 -11-394.924 229.859   6
   2   0 -11-0.84262 182.831   5
   2   0 -10 70285.7 1971.73   4
   2   0 -10 73422.9 2037.58  14
   2   0 -10 72459.0 1870.98   6
   2   0 -10 71635.4 1839.50   5
   2   0  -9-34.8760 143.567   5
   2   0  -9-102.403 279.428  14
   2   0  -9-15.8342 197.109  15
   2   0  -9 318.923 168.830   6
   2   0  -8 57232.5 1855.90  15
   2   0  -7-97.2485 178.166  15
   2   0  -6 5089.17 326.820   1
   2   0  -6 4572.01 385.484   2
   2   0  -6 4882.89 470.167  15
   2   0  -5 7.79500 61.3826   1
   2   0  -5 86.0532 175.860  15
   2   0  -5-11.6006 122.952   2
   2   0  -4 96816.8 1498.97  15
   2   0  -4 91967.3 892.646   1
   2   0  -4 95371.7 1493.33   2
   2   0  -3 60.9100 120.684  15
   2   0  -3 260.220 151.779   2
   2   0  -2 30041.9 753.132   2
   2   0  -2 29084.5 601.620  15
  -2   0   2 29289.8 334.096  16
   2   0  -1 156.506 80.9329  15
  -2   0   1 56.2493 53.4921   1
   2   0   0 1876.23 240.212   2
  -2   0   0 1944.47 181.175   1
  -2   0  -1 7.22298 53.4884  15
   2   0   1 30.9013 144.280   2
  -2   0  -1 60.7716 139.362   1
   2   0   2 51186.4 966.124   2
  -2   0  -2 51366.0 761.978  15
  -2   0  -2 50938.3 1101.34   1
  -2   0  -3 21.4034 187.471   1
  -2   0  -3 23.5627 95.7059  15
  -2   0  -4 499905. 3453.78  15
  -2   0  -4 501136. 4476.69   1
  -2   0  -5 4.45427 119.192  15
  -2   0  -5 37.6629 219.757   1
  -2   0  -6 30338.5 1059.01  15
  -2   0  -6 27074.4 1274.99   1
  -2   0  -7-263.082 273.913   1
  -2   0  -8 22400.7 1029.52   6
  -2   0  -8 24230.8 1429.25   1
  -2   0  -8 21698.7 989.035   8
  -2   0  -9-8.03819 151.003   6
  -2   0  -9 205.806 226.754  11
  -2   0 -10 16322.2 877.034   6
  -2   0 -10 16745.5 861.633  11
  -2   0 -11 60.3544 144.328   6
  -2   0 -12 295.263 133.229   5
  -2   0 -12 317.666 144.746   6
   2   1 -14 2409.49 203.747   5
   2   1 -14 1757.28 222.766   6
   2  -1 -14 2229.00 246.249   6
   2  -1 -13 7896.65 472.217   5
   2   1 -13 7614.46 489.037   5
   2  -1 -13 8160.78 528.810   6
   2   1 -13 8018.05 514.359   6
   2   1 -12 3270.27 399.784   5
   2  -1 -12 3324.83 385.436   5
   2  -1 -12 3857.16 504.160   4
   2  -1 -12 3041.37 414.925   6
   2   1 -12 3200.17 407.817   6
   2   1 -11 10857.2 728.359   6
   2   1 -11 10924.0 792.134  14
   2  -1 -11 10801.4 811.732   4
   2  -1 -11 11416.5 755.038   6
   2   1 -11 11641.7 849.684   4
   2  -1 -11 10661.3 700.556   5
   2   1 -11 11955.8 761.643   5
   2   1 -10 7040.81 609.420   5
   2  -1 -10 7380.64 601.142   5
   2  -1 -10 6419.30 646.332   4
   2   1 -10 6211.44 673.279   4
   2   1 -10 7287.90 678.715  14
   2  -1 -10 7635.67 715.248  14
   2  -1 -10 7165.89 611.084   6
   2   1 -10 7208.54 614.380   6
   2  -1 -10 7440.26 637.577  10
   2  -1  -9 29994.4 1209.48  10
   2  -1  -9 31522.8 1164.43   5
   2  -1  -9 32533.4 1211.18   6
   2  -1  -9 31786.7 1315.41  14
   2   1  -9 31516.8 1294.35   4
   2   1  -9 31477.8 1279.71  14
   2   1  -9 34649.3 1586.00  15
   2  -1  -9 31939.4 1310.32   4
   2   1  -9 34463.4 1227.47   6
   2  -1  -9 33103.5 1553.31  15
   2   1  -9 31141.0 1186.52   5
   2  -1  -8 30089.2 1359.26  15
   2   1  -8 29579.1 1337.71  15
   2  -1  -7 8078.32 657.954  15
   2   1  -7 8208.46 661.232  15
   2   1  -6 34569.1 1161.15  15
   2  -1  -6 34844.2 1103.66   2
   2  -1  -6 32628.5 1161.52  15
   2   1  -6 34966.9 941.275   2
   2  -1  -6 34765.6 866.913   1
   2   1  -5 18432.9 504.940   1
   2  -1  -5 17297.4 759.774  15
   2   1  -5 17783.5 647.014   2
   2   1  -5 17003.3 729.477  15
   2  -1  -5 17316.0 527.409   1
   2  -1  -5 16816.2 722.593   2
   2   1  -4 75201.9 805.584   1
   2   1  -4 76296.0 1261.19   2
   2  -1  -4 75473.3 1400.81   2
   2  -1  -4 72311.9 1341.83  15
   2   1  -4 73449.9 1298.41  15
   2  -1  -3 1997.32 235.348  15
   2   1  -3 1558.07 83.4692   1
   2   1  -3 1956.27 214.839  15
   2  -1  -3 1945.84 251.839   2
   2   1  -3 2142.97 238.198   2
  -2   1   3 2011.86 176.523  16
   2   1  -2 53874.9 1042.37   2
   2  -1  -2 53846.3 862.233  15
  -2   1   2 52072.5 642.454  16
   2   1  -2 51323.9 770.698  15
   2   1  -1 41407.1 511.438  15
  -2   1   1 41540.3 572.678  16
  -2  -1   1 43094.3 528.371   1
  -2  -1   0 104037. 1081.45   1
  -2   1   0 101215. 1152.52  16
  -2   1   0 104171. 1132.50   1
   2  -1   0 104661. 1403.72   2
   2  -1   1 106456. 1344.00   2
  -2   1  -1 106832. 1370.62   1
  -2  -1  -1 108141. 1364.43   1
  -2   1  -2 70127.9 982.825  15
  -2   1  -2 68515.3 1270.84   1
  -2  -1  -2 69379.1 1292.11   1
  -2  -1  -2 71217.5 794.203  15
   2  -1   2 70079.6 1100.64   2
  -2  -1  -3 151333. 2184.36   1
  -2   1  -3 151716. 1726.56  15
  -2  -1  -3 151617. 1501.47  15
  -2   1  -3 153352. 2166.65   1
   2  -1   3 145812. 1630.50   2
  -2  -1  -4 34766.8 861.026  15
  -2   1  -4 33547.8 1152.26   1
  -2  -1  -4 35592.9 1219.18   1
  -2   1  -4 35038.8 962.516  15
   2  -1   4 35557.2 807.778   2
  -2   1  -5 10211.3 724.257   1
  -2  -1  -5 11415.0 565.214  15
  -2  -1  -5 10692.9 767.947   1
  -2   1  -5 11127.7 607.098  15
  -2   1  -6 18688.4 866.541  15
  -2  -1  -6 18075.5 1068.60   1
  -2  -1  -6 18995.2 826.741  15
  -2   1  -6 19102.3 1068.60   1
  -2   1  -7 29592.0 1187.04  15
  -2  -1  -7 27910.3 1437.97   1
  -2   1  -7 29625.3 1436.60   1
  -2   1  -8 30633.4 1172.58   6
  -2   1  -8 30506.5 1577.00   1
  -2  -1  -8 29485.7 1579.18   1
  -2  -1  -8 27582.7 1114.80   8
  -2   1  -9 5715.67 542.665  11
  -2   1  -9 6597.14 566.495   6
  -2  -1  -9 6569.07 605.397   6
  -2  -1 -10 19507.5 905.507  11
  -2  -1 -10 20579.6 996.752   6
  -2   1 -10 20391.4 950.799   6
  -2   1 -10 19316.9 938.753  11
  -2  -1 -11 146.685 171.332   6
  -2   1 -11-156.176 110.798  11
  -2   1 -11 41.5477 143.092   6
  -2  -1 -11-15.7834 124.987   5
  -2   1 -12 7653.41 461.337   5
  -2  -1 -12 8304.94 463.864   6
  -2   1 -12 7983.05 414.097   6
   2   2 -14 8271.16 372.696   5
   2  -2 -14 8054.80 411.205   6
   2  -2 -13 3532.45 361.701   6
   2   2 -13 3667.22 357.513   5
   2   2 -13 2666.56 335.932   6
   2   2 -12 1306.43 280.021   6
   2   2 -12 1336.27 290.153   5
   2  -2 -12 881.397 350.711   4
   2  -2 -12 1298.11 314.530   6
   2  -2 -12 979.021 221.682   5
   2  -2 -11 574.678 203.295   5
   2   2 -11 521.694 241.399   6
   2   2 -11 679.015 272.526  14
   2  -2 -11 715.069 301.036   6
   2   2 -11 343.409 236.788   5
   2   2 -10 620.516 281.765  14
   2  -2 -10 370.768 223.793   6
   2   2 -10 350.328 374.121   4
   2   2 -10 419.484 198.783   5
   2  -2 -10-649.332 374.041   4
   2  -2 -10 401.712 292.251  14
   2  -2 -10 501.928 195.470   5
   2  -2 -10 387.067 306.016  10
   2   2 -10 554.108 259.772   6
   2  -2  -9 120.727 247.093  15
   2  -2  -9-42.5219 288.031  10
   2  -2  -9 194.121 140.043   5
   2  -2  -9 383.525 243.546   4
   2   2  -9-120.176 175.074  14
   2   2  -9 511.755 200.174   5
   2   2  -9-38.3948 417.338   4
   2  -2  -9 416.692 275.392  14
   2   2  -9 354.921 213.110   6
   2  -2  -9 616.882 209.604   6
   2   2  -9 277.011 257.688  15
   2  -2  -8 5356.93 610.517  15
  -2   2   8 6824.23 615.847  16
   2   2  -8 5990.99 637.472  15
   2  -2  -7 45481.3 1530.69  15
   2   2  -7 45473.0 1493.29  15
   2  -2  -6 1344.02 262.695   2
   2  -2  -6 1898.16 334.263  15
   2   2  -6 1846.34 304.570  15
   2   2  -5 8015.90 523.228  15
   2   2  -5 7635.46 405.248   2
   2   2  -5 8075.48 366.834   1
   2  -2  -5 7347.57 527.515   2
   2  -2  -5 7226.76 521.217  15
   2   2  -4 57126.7 1061.10   2
  -2   2   4 59060.0 1106.58  16
   2  -2  -4 58470.5 1314.62   2
   2   2  -4 58289.9 1169.77  15
   2   2  -4 54893.5 809.343   1
   2  -2  -4 56835.7 1225.50  15
  -2   2   3 92710.1 1224.80  16
   2  -2  -3 93988.4 1536.54   2
   2   2  -3 90985.7 1341.64   2
   2   2  -3 91225.1 1262.18  15
  -2   2   2 45402.7 750.373  16
   2   2  -2 47874.6 1017.78   2
   2   2  -2 45314.8 737.105  15
   2  -2  -2 46280.1 876.822  15
   2   2  -1 986499. 2627.85  15
   2   2  -1 999999. 2423.96  16
  -2  -2   0 182998. 1591.08   1
   2  -2   0 181883. 1751.94   2
  -2   2  -1 2014.51 265.724  16
  -2  -2  -1 1602.70 215.253   1
   2  -2   1 1580.22 194.599   2
  -2  -2  -2 3800.66 180.084  15
  -2  -2  -2 3691.37 332.884   1
  -2   2  -2 3794.36 341.117   1
   2  -2   2 4008.42 262.950   2
  -2  -2  -3 44018.6 1194.68   1
  -2   2  -3 44143.5 1189.74   1
  -2  -2  -3 44461.9 783.323  15
   2  -2   3 45577.5 772.948   2
  -2   2  -3 45269.1 1013.95  15
  -2   2  -4 9170.58 531.381  15
  -2  -2  -4 8441.18 623.142   1
  -2  -2  -4 8664.95 423.772  15
  -2   2  -4 8651.48 604.338   1
  -2   2  -5 40126.5 1200.63  15
  -2  -2  -5 41281.8 1045.42  15
  -2   2  -5 38193.6 1362.78   1
  -2  -2  -5 38734.7 1427.07   1
  -2   2  -6 4938.84 474.064  15
  -2  -2  -6 4378.29 551.041   1
  -2   2  -6 4139.75 519.969   1
  -2   2  -7 10669.3 877.567   1
  -2   2  -7 10999.3 757.378  15
  -2  -2  -7 10531.9 901.918   1
  -2   2  -8 556.951 226.242  11
  -2  -2  -8 150.373 188.446   8
  -2   2  -8 300.912 212.757   1
  -2  -2  -8 116.330 204.403   1
  -2  -2  -9 4021.72 445.119   8
  -2  -2  -9 4877.23 542.331   6
  -2   2  -9 4802.83 486.028   6
  -2   2  -9 4751.65 528.568  11
  -2   2 -10 5390.90 511.342  11
  -2   2 -10 5766.42 509.677   6
  -2  -2 -10 5683.20 558.625   6
  -2  -2 -11 37871.8 1103.65   5
  -2   2 -11 39722.7 1153.66  11
  -2  -2 -11 42138.1 1284.59   6
  -2   2 -11 40844.3 1113.85   6
  -2  -2 -12 787.432 185.794   6
  -2   2 -12 1048.07 207.738   5
   2   3 -14 5659.82 309.518   5
   2  -3 -14 5225.26 326.167   6
   2   3 -13 11158.4 571.915   6
   2   3 -13 12258.0 617.704   5
   2  -3 -13 12357.6 626.276   6
   2   3 -12 60.0768 195.053   5
   2   3 -12 140.266 173.321   6
   2  -3 -12 150.760 186.882   6
   2   3 -11 28148.7 1175.08   5
   2  -3 -11 28732.7 1163.02   6
   2   3 -11 27781.1 1119.47   6
   2   3 -11 27388.5 1165.69  14
   2  -3 -11 28077.5 1246.19   4
   2  -3 -11 29548.6 1065.36   5
   2   3 -10 12953.0 781.249   6
   2   3 -10 11776.6 809.527  14
   2   3 -10 12141.9 791.938   5
   2   3 -10 13842.1 964.069   4
   2  -3 -10 12240.6 717.996   5
   2  -3 -10 12580.0 875.163   4
   2  -3 -10 12584.4 789.095   6
   2  -3 -10 11849.4 825.960  10
   2  -3  -9 28751.8 1290.18  14
   2   3  -9 29090.4 1167.73   5
   2  -3  -9 25903.0 1187.30  10
   2  -3  -9 28554.5 1475.35  15
   2  -3  -9 30428.4 1180.34   6
   2   3  -9 31075.1 1508.43  15
   2   3  -9 27518.4 1185.18  14
   2  -3  -9 29795.7 1300.95   4
   2   3  -9 28197.8 1112.87   6
   2   3  -9 27731.6 1227.85   4
   2   3  -8 17089.0 1043.28  15
   2  -3  -8 17426.9 1087.69  15
  -2   3   8 15720.2 951.067  16
   2   3  -7 62425.5 1765.02  15
  -2   3   7 61723.9 1692.30  16
   2  -3  -7 62135.2 1834.05  15
   2   3  -6 29363.1 1091.93  15
   2  -3  -6 28763.8 1133.01  15
  -2   3   6 28990.2 1051.25  16
   2  -3  -6 29022.1 1148.19   2
  -2   3   5 66086.8 1416.79  16
   2  -3  -5 65870.1 1605.03   2
   2   3  -5 64864.3 1068.43   2
   2   3  -5 67482.1 1153.82   1
   2   3  -5 67910.5 1469.71  15
   2  -3  -5 65916.0 1548.15  15
   2   3  -4 1710.21 201.385   2
   2  -3  -4 1773.42 291.063  15
   2  -3  -4 1774.35 308.966   2
   2   3  -4 1843.05 256.434  15
  -2   3   4 1795.36 243.489  16
   2   3  -4 1622.93 195.790   1
   2  -3  -3 1086.84 237.866   2
   2  -3  -3 1474.13 245.707  15
   2   3  -3 1181.67 208.079   2
  -2   3   3 1107.34 189.683  16
   2   3  -3 1185.01 189.913  15
   2   3  -2 29834.0 828.869   2
   2   3  -2 27782.1 567.500  16
   2   3  -2 29053.2 627.087  15
  -2   3   2 28355.9 699.872  16
   2   3  -1 25524.9 529.182  16
   2   3  -1 26070.0 485.126  15
   2  -3  -1 26234.5 755.115   2
  -2   3   1 27202.0 675.270  16
  -2  -3   0 36440.2 802.802   1
  -2   3   0 35988.6 838.194  16
   2  -3   0 35642.5 812.634   2
   2   3   0 35945.8 747.595  16
  -2   3  -1 66725.5 1275.43  16
  -2  -3  -1 67320.9 1215.65   1
  -2   3  -2 5558.33 454.623  16
  -2  -3  -2 5423.17 414.680   1
   2  -3   2 5216.89 261.180   2
  -2   3  -3 105312. 1649.22  15
  -2   3  -3 108975. 1932.70   1
  -2  -3  -3 103531. 1202.24  15
  -2  -3  -3 104990. 1905.27   1
  -2   3  -4 8879.42 545.467  15
  -2  -3  -4 9503.63 438.439  15
  -2   3  -4 9496.56 650.273   1
  -2  -3  -4 9574.92 667.156   1
  -2   3  -5 106515. 2285.44   1
  -2   3  -5 105905. 2028.39  15
  -2  -3  -5 100633. 2317.23   1
  -2   3  -6 330.067 231.807   1
  -2   3  -6 240.445 182.153  15
  -2  -3  -6-22.5806 200.768   1
  -2   3  -7 51873.6 1908.35   1
  -2   3  -7 52173.3 1667.98  15
  -2  -3  -7 52583.6 2005.05   1
  -2   3  -8 1440.43 314.724  11
  -2  -3  -8 2053.92 338.283   8
  -2   3  -8 1735.85 396.379   1
  -2  -3  -8 1477.52 392.581   1
  -2  -3  -9 6666.60 545.680   8
  -2   3  -9 7861.02 643.373  11
  -2  -3  -9 6455.36 606.324   6
  -2   3 -10 9044.97 656.598  11
  -2  -3 -10 8362.00 667.533   6
  -2   3 -11 5067.69 428.303  11
  -2  -3 -11 5643.22 499.009   6
  -2  -3 -12 5411.98 392.522   6
  -2   3 -12 5428.86 396.214   5
   2   4 -14 519.421 108.420   5
   2  -4 -14 299.755 123.537   6
   2   4 -13 633.611 206.347   6
   2   4 -13 1058.15 230.219   5
   2  -4 -13 1015.18 216.919   6
   2  -4 -12 32934.8 1132.28   6
   2   4 -12 32707.8 1155.37   5
   2  -4 -12 30843.2 1157.17   4
   2   4 -12 29956.4 1040.23   6
   2  -4 -11 121.161 200.066   6
   2  -4 -11-241.490 397.418   4
   2   4 -11 272.684 215.620  14
   2   4 -11 281.148 189.166   6
   2   4 -11 202.050 207.412   5
   2   4 -10 14996.8 874.399   5
   2   4 -10 14083.9 854.978  14
   2  -4 -10 15316.9 965.750   4
   2   4 -10 15284.7 829.158   6
   2   4 -10 13348.3 717.783   7
   2  -4 -10 14751.4 844.326   6
   2  -4 -10 16019.1 969.430  10
   2  -4  -9 5761.18 711.354  15
   2  -4  -9 5925.83 593.276  10
   2   4  -9 6487.65 606.838  14
   2  -4  -9 6976.03 583.110   6
   2  -4  -9 7118.55 663.668   4
   2   4  -9 6822.55 730.208  15
   2  -4  -9 7003.53 650.349  14
   2   4  -9 6674.54 556.797   6
   2   4  -9 6874.77 593.700   5
   2  -4  -8 69044.5 2170.49  15
   2   4  -8 67112.1 2060.37  15
  -2   4   8 69389.6 2029.95  16
   2   4  -7-124.195 205.650  15
  -2   4   7 179.252 229.328  16
   2  -4  -7 27.9304 203.886  15
   2   4  -6 54372.2 1512.96  15
  -2   4   6 53795.4 1496.11  16
   2  -4  -6 52219.0 1568.87  15
   2   4  -5 593.427 202.728  15
   2  -4  -5 553.670 252.930  15
   2  -4  -5 357.523 229.223   2
   2   4  -5 755.042 159.081   1
  -2   4   5 642.495 205.699  16
   2  -4  -4 356.018 257.755   2
  -2   4   4 510.688 181.608  16
   2  -4  -4 433.797 210.120  15
   2   4  -4 380.428 164.144  15
   2   4  -4 444.306 127.540   2
  -2   4   3 71597.9 1323.42  16
   2   4  -3 74500.3 1240.07  15
   2   4  -3 72802.4 1207.75  16
   2  -4  -3 74401.4 1560.35   2
   2   4  -3 74868.3 1356.29   2
   2   4  -2 37693.6 767.616  16
   2  -4  -2 38683.7 1049.72   2
  -2   4   2 38153.3 908.539  16
   2   4  -2 38358.8 775.942  15
   2   4  -2 36768.6 941.427   2
   2   4  -1 113554. 1307.92  16
   2  -4  -1 115690. 1666.49   2
  -2   4   1 115406. 1546.93  16
   2   4   0 322785. 2475.66  16
  -2   4   0 331527. 2756.04  16
   2  -4   0 330760. 2628.98   2
   2  -4   1 2541.47 233.608   2
  -2  -4  -1 2363.28 291.601   1
   2   4   1 2847.11 303.902  16
  -2   4  -1 2795.98 325.476  16
  -2   4  -2 41344.2 1225.31  16
   2  -4   2 38615.6 699.151   2
  -2  -4  -2 38623.6 1108.39   1
  -2   4  -3 8497.93 600.775   1
  -2  -4  -3 8420.61 592.536   1
  -2   4  -4 38626.6 1324.14   1
  -2   4  -4 38370.1 1176.30  15
  -2  -4  -4 37050.0 1324.79   1
  -2   4  -5 2854.12 399.026  15
  -2   4  -5 2637.25 418.469   1
  -2  -4  -5 2383.31 416.363   1
  -2  -4  -6 82743.7 2384.03   1
  -2   4  -6 87182.8 2083.53  15
  -2   4  -6 83576.0 2265.41   1
  -2   4  -7 363.797 290.159   1
  -2  -4  -7 320.903 233.992   1
  -2   4  -7 202.758 173.095  15
  -2   4  -7 227.394 168.368  11
  -2   4  -8 15429.9 910.033  11
  -2   4  -8 15209.3 1120.76   1
  -2  -4  -8 16552.6 875.006   8
  -2  -4  -8 15999.6 1229.30   1
  -2  -4  -9 5680.82 576.125   6
  -2  -4  -9 5792.62 520.736   8
  -2   4  -9 5087.08 541.548  11
  -2   4 -10 17921.3 913.565  11
  -2  -4 -10 18960.8 957.962   6
  -2  -4 -11 15796.5 788.145   6
  -2   4 -11 15085.5 713.365  11
  -2  -4 -12 328.636 149.061   6
  -2   4 -12 283.909 153.196   5
   2   5 -13-125.611 138.067   5
   2  -5 -13 64.0086 211.908   4
   2  -5 -13 63.6372 130.292   6
   2   5 -12 1970.71 308.441   6
   2  -5 -12 2942.80 360.897   6
   2   5 -12 2664.28 368.377   5
   2  -5 -12 2056.26 366.972   4
   2   5 -11 311.785 185.722  14
   2   5 -11 226.175 228.598   5
   2  -5 -11 60.5460 257.331   4
   2   5 -11 353.575 148.384   7
   2  -5 -11 196.556 168.798   6
   2   5 -10 305.127 234.877   5
   2  -5 -10 417.314 288.590   4
   2   5 -10 418.659 232.813   6
   2   5 -10 463.438 195.012   7
   2   5 -10 516.136 223.640  14
   2  -5 -10 143.740 160.588   6
   2   5  -9 277.052 237.226  15
   2  -5  -9 303.121 284.765   4
   2  -5  -9-136.046 338.568  10
   2   5  -9-255.521 219.426  14
   2   5  -9-63.5386 188.563   5
   2   5  -9 229.240 160.543   6
   2  -5  -9 424.097 174.885   6
   2  -5  -8 3069.51 462.853  14
  -2   5   8 2139.60 424.208  16
   2  -5  -8 2821.46 437.120  10
   2  -5  -8 3761.38 505.091   4
   2   5  -8 2577.02 442.525  15
   2   5  -8 3304.89 413.362   5
   2   5  -7 2661.55 413.738  15
  -2   5   7 3240.03 444.484  16
  -2   5   6 41861.8 1393.68  16
   2   5  -6 42319.3 1373.71  15
   2   5  -5 20546.8 817.285   1
  -2   5   5 20958.3 913.530  16
   2  -5  -5 20734.7 1029.74   2
   2   5  -5 20887.4 880.722  15
  -2   5   4 177273. 2411.82  16
   2   5  -4 175678. 1930.14   2
   2   5  -4 175930. 2262.26  15
   2  -5  -4 181319. 2795.34   2
   2  -5  -3 24451.2 972.665   2
   2   5  -3 25144.9 790.182  16
   2   5  -3 25580.1 781.938  15
   2   5  -3 25306.8 842.429   2
  -2   5   3 24710.5 858.279  16
   2   5  -2 122894. 1596.56  16
   2   5  -2 126907. 1523.00  15
   2  -5  -2 128228. 2045.15   2
  -2   5   2 124854. 1822.64  16
   2   5  -1 7368.53 397.857  16
  -2   5   1 7345.17 463.680  16
   2  -5  -1 6943.24 464.269   2
  -2   5   0 78209.5 1472.97  16
   2  -5   0 77268.2 1364.11   2
   2   5   0 76705.1 1342.56  16
   2   5   1 25552.4 864.529  16
   2  -5   1 24415.6 704.807   2
  -2   5  -1 24429.5 904.598  16
   2   5   2 60189.2 1452.66  16
  -2   5  -2 61532.3 1553.84  16
  -2  -5  -2 60261.8 1470.09   1
   2  -5   2 57850.6 916.662   2
  -2   5  -3 16847.2 919.145  16
  -2  -5  -3 15742.3 836.410   1
  -2  -5  -4 6023.29 587.357   1
  -2   5  -4 6922.07 618.321   1
  -2   5  -4 6601.10 524.156  15
  -2   5  -5 345.015 194.780  15
  -2  -5  -5-51.2034 169.589   1
  -2   5  -5 244.611 230.128   1
  -2   5  -6 12454.0 836.696  15
  -2   5  -6 12231.5 900.843   1
  -2  -5  -6 11617.4 925.280   1
  -2  -5  -7 18335.8 1244.64   1
  -2  -5  -7 18440.8 931.640   8
  -2   5  -7 16485.0 1122.96   1
  -2   5  -7 19105.8 981.928  11
  -2   5  -7 17950.2 1052.00  15
  -2   5  -8 33760.9 1345.21  11
  -2  -5  -8 34293.5 1261.39   8
  -2   5  -9 21856.6 1063.85  11
  -2  -5  -9 21949.5 1061.82   6
  -2  -5  -9 20978.3 957.079   8
   2   5  10 14995.3 729.732  13
  -2   5 -10 13940.9 796.556  11
  -2  -5 -10 12741.9 786.341   6
  -2  -5 -10 12633.1 672.874   8
  -2   5 -11 245.047 155.978  11
  -2  -5 -11 311.617 196.077   6
  -2   5 -12 15563.2 607.288   5
  -2  -5 -12 15502.1 601.933   6
   2   6 -13 5422.65 375.756   5
   2  -6 -13 5279.86 391.531   4
   2  -6 -13 5880.67 373.696   6
   2  -6 -12 18042.5 854.837   4
   2   6 -12 19299.9 838.443   5
   2  -6 -12 19173.9 800.231   6
   2   6 -11 1967.09 359.503   5
   2   6 -11 1863.31 282.432   7
   2  -6 -11 2010.52 412.613   4
   2  -6 -11 2176.17 340.089   6
   2   6 -10 0.88567 219.732   5
   2   6 -10 240.292 213.852   7
   2  -6 -10-391.424 199.753   6
   2  -6 -10 9.50011 264.045   4
   2  -6  -9 590.587 364.110  10
   2   6  -9 1200.87 279.806   5
   2  -6  -9 1036.73 338.387   4
   2  -6  -9 907.496 245.339   6
   2   6  -8 79371.1 1860.53   5
  -2   6   8 74768.7 2234.18  16
   2  -6  -8 78133.3 2058.60  10
   2  -6  -8 77601.5 1786.61   6
   2   6  -8 78760.6 2285.16  15
   2  -6  -8 80520.1 2103.06   4
  -2   6   7 21166.2 1126.33  16
   2   6  -7 20609.3 1087.00  15
  -2   6   6 216.081 182.042  16
   2   6  -6 91.4688 189.414  15
  -2   6   5 61336.7 1645.51  16
   2   6  -5 61329.5 1557.82  15
   2  -6  -4 37998.4 1373.03   2
   2   6  -4 34964.5 1067.90  15
  -2   6   4 36569.1 1187.83  16
   2   6  -4 37731.3 1147.33  16
   2  -6  -3 73064.5 1772.70   2
   2   6  -3 73985.3 1472.19  16
  -2   6   3 71608.9 1580.35  16
   2   6  -3 71761.2 1379.36  15
   2   6  -3 72648.3 1484.71   2
   2  -6  -2 17669.2 829.328   2
   2   6  -2 17581.5 679.729  16
  -2   6   2 17013.0 762.648  16
   2  -6  -1 31909.6 1024.41   2
  -2   6   1 33261.8 1047.00  16
   2   6  -1 31247.9 902.070  16
  -2   6   0 47819.4 1262.12  16
   2   6   0 47016.0 1154.24  16
   2  -6   0 46412.0 1152.54   2
   2   6   1 22179.1 874.070  16
  -2   6  -1 22491.1 934.966  16
   2  -6   1 22535.9 739.569   2
   2   6   2 54486.5 1473.42  16
  -2   6  -2 54813.5 1568.09  16
  -2   6  -3 5438.48 584.199  16
   2   6   3 5638.45 556.720  16
   2   6   4 111339. 2523.03  16
  -2   6  -4 107332. 2151.86  15
  -2  -6  -4 106092. 2442.26   1
  -2   6  -4 108890. 2453.20   1
  -2   6  -5-2.72696 170.401  15
  -2   6  -5 113.717 214.312   1
   2   6   5-211.621 241.845  16
  -2  -6  -5-216.023 222.784   1
   2   6   6 31296.4 1612.37  16
  -2   6  -6 28894.9 1299.15  15
  -2   6  -6 30286.5 1453.51   1
  -2   6  -7 825.604 250.929  11
   2   6   7 558.963 341.686  16
  -2  -6  -7 567.108 242.411   8
  -2   6  -7 286.591 269.497   1
  -2   6  -7 302.973 278.900  15
  -2  -6  -8 328.363 210.234   8
  -2   6  -8 478.932 248.142  11
  -2  -6  -9 20279.3 1022.88   6
  -2   6  -9 22502.5 1075.81  11
  -2  -6  -9 23561.8 996.382   8
  -2   6 -10 10901.9 703.750  11
  -2  -6 -10 10209.2 584.703   8
  -2  -6 -10 11224.5 722.931   6
  -2   6 -11 15223.0 683.685  11
  -2   6 -11 15058.3 730.263   5
  -2  -6 -11 15635.5 737.081   6
  -2   6 -12 794.395 160.330   5
  -2  -6 -12 1117.46 175.060   6
   2  -7 -13 20206.9 641.312   4
   2  -7 -13 20780.5 604.151   6
   2   7 -13 21148.1 652.616   5
   2  -7 -12-35.9367 140.379   6
   2   7 -12 111.110 93.1983   7
   2   7 -12 47.5942 151.833   5
   2  -7 -11 31243.4 1079.86   6
   2   7 -11 31676.8 1147.53   5
   2   7 -11 30312.7 1033.90   7
   2  -7 -11 31098.1 1227.20   4
   2   7 -10-43.9752 180.494   5
   2   7 -10-31.6931 174.443   7
   2  -7 -10-40.5654 277.282   4
   2  -7 -10 92.3911 158.075   6
   2  -7  -9 66120.1 1931.19  10
   2  -7  -9 66731.7 1694.45   6
   2   7  -9 66424.5 1760.52   5
   2  -7  -9 66338.7 1988.73   4
   2   7  -9 64004.2 1654.70  11
   2   7  -8 2547.55 373.535   5
   2   7  -8 2726.96 461.433  15
  -2   7   8 2919.03 488.621  16
   2  -7  -8 3126.38 488.896   4
   2  -7  -8 2785.76 454.249  10
   2   7  -8 2389.03 360.819  11
   2  -7  -8 2938.93 365.057   6
  -2   7   7 36466.8 1522.05  16
   2   7  -7 38829.3 1526.22  15
  -2   7   6 9977.66 764.107  16
   2   7  -6 10322.9 738.378  15
  -2   7   5 11037.2 761.697  16
   2   7  -5 11426.5 719.232  15
   2   7  -4 1987.44 296.749  15
  -2   7   4 2491.94 376.064  16
   2   7  -4 1991.72 310.022  16
   2   7  -3 18699.4 815.890  16
   2   7  -3 18092.4 750.140  15
  -2   7   3 18454.6 880.734  16
   2   7  -3 18522.2 791.125   2
  -2   7   2 12769.1 727.874  16
   2   7  -2 13235.3 657.030  16
   2  -7  -2 13490.3 784.285   2
   2   7  -1 163437. 2271.76  16
   2  -7  -1 169074. 2524.42   2
  -2   7   1 165306. 2535.21  16
   2   7   0 36389.2 1117.28  16
  -2   7   0 35463.1 1195.58  16
  -2   7  -1 5076.82 513.919  16
   2   7   1 3999.05 418.040  16
  -2   7  -2 1761.03 362.733  16
   2   7   2 1528.29 299.985  16
   2   7   3 36690.2 1400.67  16
  -2   7  -3 39487.3 1529.51  16
   2   7   4 135.051 222.636  16
  -2   7  -4 16.1324 207.167   1
  -2   7  -4 159.076 183.032  15
   2   7   5 64627.7 2187.99  16
  -2   7  -5 64265.9 1875.07  15
  -2   7  -5 63064.5 2063.62   1
  -2   7  -6 682.994 283.767  15
  -2  -7  -6 1325.25 279.217   8
   2   7   6 2095.88 478.861  16
  -2   7  -6 1330.43 293.674  11
  -2   7  -6 1466.45 381.426   1
  -2   7  -7 99661.3 2296.67  11
  -2  -7  -7 100431. 2213.38   8
  -2   7  -7 91055.8 2482.56  15
  -2   7  -7 93314.2 1992.48  12
   2   7   7 104670. 3228.46  16
  -2   7  -7 96435.3 2740.78   1
  -2  -7  -8 832.899 252.026   8
  -2   7  -8 1458.04 346.636  11
  -2  -7  -9 7855.05 581.427   8
  -2   7  -9 7922.09 650.170  11
  -2  -7  -9 8219.83 650.915   6
  -2  -7 -10-8.34443 82.1803   8
  -2   7 -10 156.763 174.134  11
  -2  -7 -10 113.164 177.973   6
  -2   7 -11 1310.30 229.704  11
  -2   7 -11 1379.05 250.915   5
  -2  -7 -11 1398.15 252.220   6
  -2   7 -12 51.6637 80.3950   5
  -2  -7 -12 118.814 82.7366   6
   2  -8 -13 14997.5 484.709   4
   2   8 -13 15753.1 475.554   5
   2   8 -12 3807.34 335.878   5
   2   8 -12 3779.81 294.363   7
   2  -8 -12 3341.32 385.603   4
   2  -8 -12 3784.33 305.042   6
   2   8 -11-309.374 180.643   7
   2   8 -11 104.950 178.601   5
   2  -8 -11 180.619 245.563   4
   2  -8 -11 228.010 123.968   6
   2   8 -10 12757.7 708.205  11
   2   8 -10 12662.1 741.700   7
   2   8 -10 13978.4 789.823   5
   2  -8 -10 12714.4 862.112   4
   2  -8 -10 13322.1 723.190   6
   2   8  -9 1188.79 271.663  11
   2   8  -9 1594.02 327.134   5
   2  -8  -9 1857.22 423.142   4
   2   8  -9 1555.92 316.001   7
   2  -8  -9 1898.27 303.354   6
   2   8  -8 16786.5 875.673  11
   2  -8  -8 18479.0 1037.64  10
   2   8  -8 17899.2 889.327   5
   2  -8  -8 17662.8 1037.67   4
   2  -8  -8 16368.6 906.555   3
   2  -8  -8 16877.3 820.289   6
   2   8  -7 3953.69 427.914  11
   2  -8  -7 4111.68 466.153   3
   2  -8  -7 4259.67 505.271   4
  -2   8   7 3385.13 508.900  16
   2  -8  -7 3694.08 501.026  10
   2   8  -7 4050.47 546.191  15
  -2   8   6 18817.6 1086.06  16
   2   8  -6 17873.5 1008.05  15
  -2   8   5 70314.9 1971.73  16
   2   8  -5 71385.2 1837.59  15
   2   8  -4 1136.78 268.795  16
   2   8  -4 1358.05 268.054  15
  -2   8   4 1072.14 288.389  16
  -2   8   3 60385.7 1704.21  16
   2   8  -3 60127.2 1462.59  15
   2   8  -3 61571.7 1607.73  16
   2   8  -3 63832.0 1537.41   2
  -2   8   2 4857.97 513.890  16
   2   8  -2 4680.94 439.435  16
   2   8  -1 189577. 2692.69  16
  -2   8   1 194236. 2981.86  16
  -2   8   0 2197.12 386.041  16
   2   8   0 3287.82 398.440  16
  -2   8  -1 10365.1 748.634  16
   2   8   1 11786.0 734.630  16
   2   8   2 13655.9 847.463  16
  -2   8  -2 13359.9 893.348  16
   2   8   3 28570.7 1295.20  16
  -2   8  -3 28609.3 1395.05  16
  -2   8  -4 29520.6 1403.54   1
   2   8   4 32285.6 1486.04  16
  -2   8  -4 31339.2 1304.41  15
  -2   8  -5 4617.83 603.018   1
  -2   8  -5 4341.57 531.018  15
   2   8   5 3618.17 569.982  16
   2   8   6 23045.3 1462.87  16
  -2   8  -6 22010.2 1229.16  15
  -2   8  -6 21160.1 992.875  12
  -2  -8  -6 21973.8 1091.50   3
  -2   8  -6 22821.3 1334.75   1
  -2   8  -6 21982.3 1083.39  11
  -2  -8  -7 22488.9 1100.94   3
  -2   8  -7 23277.9 1126.92  11
  -2  -8  -7 22205.7 1035.01   4
  -2  -8  -7 24563.0 1116.14   8
  -2   8  -7 23043.8 1014.90  12
  -2  -8  -8 8132.52 634.230   8
  -2   8  -8 7936.46 676.149  11
  -2  -8  -9 463.478 220.823   6
  -2   8  -9 779.572 301.876  11
  -2  -8  -9 810.607 212.975   8
  -2  -8 -10 168.837 152.824   6
  -2   8 -10 146.321 203.457  11
  -2   8 -11 44925.2 1040.47  11
  -2   8 -11 46227.7 1072.06   5
  -2  -8 -11 44259.8 1066.25   6
   2   8  11 45183.9 889.501  13
   2  -9 -12 5431.80 418.842   4
   2   9 -12 5966.81 341.458   7
   2  -9 -11 90.2309 90.4398   6
   2   9 -11 169.796 157.564   7
   2   9 -11 424.193 166.146   5
   2  -9 -11 197.341 212.639   4
   2   9 -10 194.637 201.182   7
   2   9 -10 199.399 162.915   5
   2  -9 -10 41.9952 269.770   4
   2  -9 -10 382.778 129.273   6
   2   9  -9 7937.89 598.191   5
   2   9  -9 8376.05 615.832  11
   2   9  -9 8074.69 627.978   7
   2  -9  -9 8466.53 750.515   4
   2  -9  -8 2415.69 379.835   3
   2   9  -8 2648.92 374.349  11
   2   9  -8 3184.69 395.956   5
   2  -9  -8 2507.35 473.535   4
   2   9  -8 2683.84 400.748   7
   2  -9  -7 11109.9 808.217  10
  -2   9   7 11254.4 938.949  16
   2   9  -7 11868.3 896.708  15
   2  -9  -7 11592.5 832.379   4
   2  -9  -7 10468.3 775.872   3
   2   9  -7 11306.6 738.488  11
  -2   9   6 15052.6 1045.32  16
   2   9  -6 16645.6 1005.53  15
   2   9  -6 16100.7 849.215  11
   2  -9  -6 18721.1 988.631   4
   2  -9  -6 16690.4 950.277   3
   2   9  -5 1884.63 345.491  15
  -2   9   5 1367.57 353.126  16
   2   9  -4 89758.5 2022.78  15
   2   9  -4 90402.8 2219.14  16
   2   9  -3 3984.16 469.955  16
   2   9  -3 3979.99 416.272  15
  -2   9   3 3778.33 491.376  16
  -2   9   2 69491.8 1934.69  16
   2   9  -2 70813.8 1797.87  16
   2   9  -1 19832.5 971.626  16
  -2   9   1 22726.9 1118.64  16
   2   9   0 56922.3 1644.35  16
  -2   9   0 58294.1 1788.69  16
  -2   9  -1 6147.10 634.109  16
   2   9   1 6430.32 591.974  16
   2   9   2 63655.7 1906.74  16
  -2   9  -2 67034.7 2069.35  16
  -2   9  -3 17962.0 1167.67  16
   2   9   3 15594.7 1010.73  16
   2   9   4 8830.40 824.722  16
  -2   9  -4 9596.79 778.470  15
  -2   9  -5-226.615 264.476   1
  -2  -9  -5 145.519 210.877   3
   2   9   5 161.942 310.880  16
  -2  -9  -5 519.911 191.778   4
  -2   9  -5 250.215 251.704  15
  -2   9  -5 253.997 150.743  12
  -2   9  -5 124.105 152.632  11
  -2  -9  -6 3448.02 463.567   3
  -2   9  -6 4261.49 457.309  12
  -2   9  -6 4353.47 590.127  15
   2   9   6 4699.45 663.314  16
  -2  -9  -6 3944.94 480.494   4
  -2   9  -6 4190.80 612.935   1
  -2   9  -6 3783.37 483.869  11
  -2  -9  -7 3910.58 494.106   3
  -2   9  -7 3370.08 489.496  11
  -2  -9  -7 4031.25 482.756   8
  -2   9  -7 4373.97 458.203  12
  -2  -9  -7 4146.59 477.291   4
  -2  -9  -8 1515.90 305.251   6
  -2   9  -8 1744.90 373.377  11
  -2  -9  -8 1790.57 325.707   8
  -2  -9  -8 2115.20 357.050   4
  -2  -9  -9 5038.57 433.616   8
  -2  -9  -9 4690.13 465.305   6
  -2   9  -9 4591.08 496.749  11
  -2   9 -10 30002.6 959.677   5
  -2  -9 -10 28385.0 946.134   6
  -2   9 -10 29673.5 1008.19  11
  -2   9 -11 2204.14 230.398  11
  -2   9 -11 2070.98 216.111   5
   2   9  11 1800.73 188.197  13
  -2   9 -11 2196.58 225.990   7
  -2  -9 -11 2067.12 216.999   6
   2 -10 -12 13286.6 546.516   4
   2  10 -12 13478.2 456.080   7
   2  10 -11 723.678 195.328   7
   2  10 -11 499.936 137.692   5
   2 -10 -11 479.872 227.383   4
   2  10 -10 17444.6 748.206   5
   2 -10 -10 17783.3 961.792   4
   2  10 -10 16371.2 799.290   7
   2  10  -9 2798.76 363.135   5
   2  10  -9 2821.92 411.687   7
   2 -10  -9 3184.66 505.891   4
   2 -10  -9 2963.46 410.134   3
   2  10  -8 51875.6 1564.78  11
   2  10  -8 50523.2 1535.89   7
   2 -10  -8 52346.2 1675.60   3
   2 -10  -8 55874.2 1800.13   4
   2 -10  -7 131.860 196.233   3
   2 -10  -7 98.5066 198.672   4
   2  10  -7 147.539 169.101  11
   2  10  -7 136.170 179.885   7
   2  10  -6 26185.2 1118.45  11
   2 -10  -6 25502.4 1207.01   4
   2 -10  -6 25272.2 1124.56  10
   2 -10  -6 25979.9 1228.74   3
  -2  10   6 27196.3 1426.20  16
   2  10  -6 26579.8 1316.24  15
   2  10  -6 23879.9 1032.78   7
   2  10  -5 21443.2 981.585  11
  -2  10   5 19381.6 1192.84  16
   2  10  -5 20802.4 1095.45  15
   2 -10  -5 20681.4 1072.97   3
   2  10  -5 20032.7 918.862   7
   2  10  -4 7731.95 636.400  15
  -2  10   4 7556.47 734.177  16
  -2  10   3 4783.55 597.566  16
   2  10  -3 3745.79 496.868  16
   2  10  -3 3724.61 441.542  15
   2  10  -2 1006.26 271.274  16
  -2  10   2 1100.87 332.653  16
   2  10  -1 8945.99 698.157  16
  -2  10   1 9298.85 796.430  16
   2  10   0 50366.5 1670.54  16
  -2  10   0 52322.5 1832.28  16
  -2  10  -1 6145.71 686.536  16
   2  10   1 5529.57 597.138  16
  -2  10  -2 29099.2 1469.38  16
   2  10   2 25852.4 1290.10  16
  -2  10  -3 5774.34 742.252  16
   2  10   3 5425.50 661.762  16
  -2  10  -4 63055.9 1731.17  11
  -2  10  -4 58339.5 1961.53  15
  -2  10  -4 62225.0 1698.28  12
  -2 -10  -4 63432.4 1846.10   3
   2  10   4 58067.7 2133.25  16
  -2  10  -5 13292.0 857.218  11
  -2  10  -5 14093.3 1012.21  15
   2  10   5 13607.5 1094.70  16
  -2 -10  -5 14565.8 923.851   3
  -2  10  -5 14212.1 846.433  12
  -2  10  -5 13489.6 1068.85   1
  -2  10  -6 32832.1 1327.90  11
  -2 -10  -6 35659.5 1330.29   4
  -2 -10  -6 33825.9 1403.00   3
  -2  10  -6 34092.4 1277.17  12
  -2  10  -7 9334.80 741.684  11
  -2 -10  -7 10022.9 725.194   8
  -2 -10  -7 9456.07 736.091   3
  -2  10  -7 9630.24 673.129  12
  -2 -10  -7 9816.17 700.301   4
  -2 -10  -8 8865.24 624.196   6
  -2  10  -8 9907.41 735.312  11
  -2 -10  -8 10199.5 662.788   4
  -2 -10  -8 9943.07 660.210   8
  -2  10  -8 9642.63 589.427  12
  -2  10  -9 13730.8 773.037  11
  -2 -10  -9 11907.0 614.561   8
  -2 -10  -9 12459.6 668.865   6
  -2  10 -10 13913.9 646.372  11
   2  10  10 14852.5 630.416  13
  -2  10 -10 14727.0 587.157   5
  -2 -10 -10 13869.7 596.592   6
  -2  10 -11 274.131 90.3283   7
   2 -11 -12 922.812 167.533   4
   2 -11 -11 17898.6 735.910   4
   2  11 -11 17132.4 636.527   7
   2 -11 -10 4475.24 491.456   4
   2  11 -10 4300.17 416.298   7
   2 -11  -9 16973.1 962.028   4
   2  11  -9 17235.9 859.804   7
   2 -11  -9 15970.1 846.944   3
   2 -11  -8 10803.2 827.667   4
   2  11  -8 10355.2 711.628   7
   2 -11  -8 10280.6 754.889   3
   2  11  -7 24405.6 1075.01   7
   2 -11  -7 25108.1 1214.18   3
   2 -11  -7 26383.9 1248.28   4
   2 -11  -6 5271.13 484.725   9
   2  11  -6 4570.00 481.963   7
   2 -11  -6 5585.24 602.679   4
   2  11  -6 5424.20 488.390  12
   2 -11  -6 5139.95 585.314   3
   2  11  -5 4860.76 480.786   7
   2 -11  -5 5172.09 488.445   9
   2  11  -5 4997.54 588.711  15
   2  11  -5 4980.63 460.860  12
  -2  11   5 5297.64 666.583  16
   2 -11  -5 5282.00 585.750   3
   2 -11  -4 30025.5 1140.22   9
   2  11  -4 30245.0 1294.25  15
  -2  11   4 30475.7 1510.23  16
   2  11  -4 29874.2 1089.42  12
   2 -11  -4 31898.9 1333.05   3
   2  11  -4 30146.3 1105.33   7
   2  11  -3 1338.24 356.497  16
   2  11  -3 1446.13 297.199  15
  -2  11   3 1420.93 378.562  16
  -2  11   2 20153.9 1204.94  16
   2  11  -2 19878.8 966.247  15
   2  11  -2 18988.8 1093.67  16
  -2  11   1 7854.05 769.028  16
   2  11  -1 6780.88 677.268  16
  -2  11   0 6675.56 725.057  16
   2  11   0 6468.23 666.117  16
  -2  11  -1 17553.1 1175.74  16
   2  11   1 16602.6 1054.05  16
   2  11   2 11753.0 935.672  16
  -2  11  -2 13207.3 1065.39  16
  -2  11  -3 39536.8 1359.95  11
  -2  11  -3 43965.4 2000.27  16
  -2 -11  -3 43829.0 1543.47   3
  -2  11  -3 42641.1 1432.23  12
   2  11   3 39475.2 1223.70  12
   2  11   3 40532.5 1782.53  16
   2  11   4-327.866 174.930  12
  -2 -11  -4 19.8460 164.516   3
  -2  11  -4 140.365 174.759  11
   2  11   4-1.55822 196.565  16
  -2  11  -4-100.686 240.895  15
  -2  11  -4 176.992 197.840  12
  -2  11  -5 11783.2 807.121  11
  -2 -11  -5 10881.9 817.524   3
  -2  11  -5 11140.8 754.975  12
  -2 -11  -5 12165.7 799.151   4
  -2 -11  -6 277.257 209.622   3
  -2  11  -6 371.601 277.579  11
  -2 -11  -6 239.026 225.606   4
  -2  11  -6 217.195 225.518  12
  -2 -11  -7 30490.1 1208.24   8
  -2 -11  -7 28081.2 1054.94   6
  -2  11  -7 30704.0 1269.08  11
  -2  11  -7 29159.0 1102.36  12
  -2 -11  -7 28929.3 1249.19   3
  -2 -11  -7 31864.7 1196.54   4
  -2 -11  -8 85.9096 119.267   6
  -2  11  -8 432.529 155.678  12
  -2 -11  -8 499.241 226.606   8
  -2  11  -8 447.569 264.603  11
  -2 -11  -8 228.832 182.935   4
  -2  11  -9 13114.1 705.495  11
  -2  11  -9 12178.8 556.224   5
  -2 -11  -9 10704.0 546.984   6
  -2 -11  -9 11486.7 546.143   8
   2  11  10 6929.92 409.585  13
  -2  11 -10 6231.34 387.428   7
  -2  11 -10 6744.04 408.548  11
   2  12 -11 1618.90 195.186   7
   2 -12 -11 1182.87 209.556   4
   2 -12 -10 998.781 274.235   4
   2  12 -10 990.719 220.791   7
   2 -12  -9 441.809 181.432   3
   2  12  -9 234.792 205.964   7
   2 -12  -9 414.760 288.510   4
   2 -12  -8 6636.88 642.979   4
   2 -12  -8 6476.90 595.873   3
   2  12  -8 5253.22 503.823   7
   2  12  -7 8528.98 645.247   7
   2 -12  -7 8345.97 715.085   3
   2 -12  -7 8864.60 747.884   4
   2 -12  -6 2634.62 436.900   3
   2 -12  -6 2431.67 446.184   4
   2  12  -6 2577.36 394.006   7
   2 -12  -6 2467.08 353.479   9
   2  12  -6 2802.84 339.414  12
   2 -12  -5 68462.7 1742.23   9
   2  12  -5 68810.3 1740.54   7
   2  12  -5 66614.4 1671.82  12
   2 -12  -5 67224.8 2026.63   3
   2 -12  -4 3121.03 481.156   3
   2  12  -4 1943.56 350.323  15
   2  12  -4 3082.66 378.419   7
   2 -12  -4 3304.62 420.444   9
  -2  12   4 3581.54 575.133  16
   2  12  -4 2946.09 376.324  12
   2  12  -3 34443.0 1380.26  15
   2  12  -3 39262.7 1293.05  12
   2  12  -3 39576.3 1230.02   7
  -2  12   3 40441.0 1815.86  16
   2 -12  -3 39644.5 1365.95   9
   2 -12  -3 40309.7 1513.15   3
   2 -12  -2 4285.25 509.601   3
   2  12  -2 4197.86 531.366  16
   2  12  -2 3990.38 464.068  15
   2 -12  -2 3740.60 443.842   9
  -2  12   2 3959.61 641.028  16
   2  12  -2 3834.34 417.058  12
   2  12  -1 24484.0 1324.78  16
  -2  12   1 24909.4 1014.16  12
   2  12  -1 27600.5 1078.15  12
   2 -12  -1 26250.7 1108.22   9
  -2 -12   1 26216.6 1033.41   9
   2  12   0 1298.62 280.210  12
  -2 -12   0 1271.51 294.487   9
   2  12   0 887.323 333.325  16
   2 -12   0 1261.95 292.452   9
  -2  12   0 1158.72 270.606  12
  -2  12   0 1069.58 380.192  16
   2  12   1 52900.3 1991.58  16
   2 -12   1 56215.1 1589.53   9
  -2  12  -1 56622.7 1618.91  12
  -2  12  -1 58713.4 2249.61  16
  -2 -12  -1 60789.1 1637.95   9
   2  12   1 58671.3 1549.20  12
  -2 -12  -1 58829.0 1730.36   3
  -2  12  -2 3192.15 424.066  11
  -2 -12  -2 2178.51 391.705   3
   2  12   2 2282.13 464.751  16
   2  12   2 1990.21 323.824  12
  -2  12  -2 1562.01 475.424  16
   2 -12   2 1960.34 327.815   9
  -2  12  -2 2119.23 359.002  12
  -2  12  -3 3791.53 465.399  12
  -2  12  -3 3698.25 461.312  11
   2  12   3 4449.46 620.458  16
   2 -12   3 3538.55 422.906   9
   2  12   3 4107.36 431.324  12
  -2 -12  -3 3763.20 500.580   3
  -2  12  -3 2887.60 571.604  16
  -2 -12  -4 393.816 270.490   3
  -2  12  -4 539.058 269.481  11
   2  12   4 231.382 144.661  12
  -2  12  -4 141.779 184.976  12
  -2 -12  -5 259.886 238.191   4
  -2  12  -5 87.0627 201.920  12
  -2 -12  -5 218.005 239.114   3
  -2  12  -5 269.418 265.972  11
  -2  12  -6 126.305 266.153  11
  -2 -12  -6-111.772 224.280   3
  -2 -12  -6-1.70024 155.468   4
  -2  12  -6-205.115 182.698  12
  -2 -12  -7 3206.96 411.819   4
  -2 -12  -7 2761.75 388.532   8
  -2  12  -7 3530.14 472.342  11
  -2  12  -7 2983.26 355.145  12
  -2 -12  -8 2413.50 305.828   8
  -2  12  -8 2267.72 271.036  12
  -2  12  -8 2103.84 351.624  11
  -2 -12  -8 2535.76 326.027   4
  -2  12  -9 19088.9 765.643  11
  -2  12  -9 17727.4 707.115   7
  -2  12 -10 2737.81 229.567   7
   2  12  10 2504.44 224.656  13
   2  13 -11 12897.4 397.594   7
   2 -13 -11 11335.9 429.806   4
   2 -13 -10 3158.82 347.001   4
   2  13 -10 2854.37 275.924   7
   2 -13  -9 13956.5 764.054   4
   2 -13  -9 13685.5 699.905   3
   2  13  -9 13708.1 670.633   7
   2 -13  -8-287.500 273.181   4
   2 -13  -8 173.689 177.183   3
   2  13  -8-11.6131 215.109   7
   2 -13  -7 2362.14 416.528   3
   2  13  -7 1999.81 340.628   7
   2  13  -7 2066.98 276.723  12
   2 -13  -7 1925.07 403.515   4
   2  13  -6 11520.8 675.935  12
   2 -13  -6 11410.1 850.509   3
   2  13  -6 11933.2 739.413   7
   2 -13  -6 11632.5 708.958   9
   2 -13  -6 11363.4 833.214   4
   2 -13  -5 17288.9 900.793   9
   2  13  -5 17519.5 872.105   7
   2 -13  -5 17559.7 1050.90   3
   2  13  -5 16607.1 849.893  12
   2 -13  -4 4670.53 503.508   9
   2  13  -4 4288.53 452.293   7
   2  13  -4 4323.11 464.040  12
   2 -13  -4 4321.58 544.410   3
   2 -13  -3 319.852 250.223   3
   2  13  -3 850.179 209.278   7
   2 -13  -3 143.935 216.316   9
   2  13  -3 595.701 228.776  12
  -2 -13   2 20677.7 924.957   9
   2  13  -2 21383.6 982.007  12
  -2  13   2 21345.9 1376.24  16
  -2  13   2 19654.0 893.386  12
   2 -13  -2 21678.9 1104.53   3
   2 -13  -2 20980.7 1029.11   9
   2  13  -1 675.564 262.838  12
   2 -13  -1 673.736 250.359   3
  -2  13   1 439.073 214.423  12
   2 -13  -1 548.053 255.803   9
  -2 -13   1 554.551 230.113   9
  -2  13   1 839.408 386.630  16
   2  13  -1 731.811 278.232  16
  -2  13   0 30369.6 1183.65  12
  -2  13   0 33917.8 1760.11  16
   2 -13   0 31129.5 1237.72   9
   2  13   0 30442.0 1553.16  16
  -2 -13   0 30864.4 1251.20   3
   2  13   0 32103.7 1186.22  12
  -2 -13   0 32923.7 1225.93   9
   2 -13   1 14753.3 849.890   9
  -2 -13  -1 15961.4 935.444   3
   2  13   1 14069.7 1092.10  16
   2  13   1 15770.7 839.815  12
  -2  13  -1 15571.2 879.628  12
   2 -13   2 5107.39 515.649   9
   2  13   2 5920.95 527.291  12
  -2 -13  -2 5054.81 559.217   3
  -2  13  -2 5562.53 563.177  12
  -2  13  -3 49047.6 1594.30  11
   2  13   3 49617.8 1410.55  12
   2 -13   3 46785.4 1413.91   9
  -2  13  -3 47444.5 1541.13  12
  -2 -13  -3 48826.5 1697.72   3
  -2 -13  -4 726.111 304.198   3
  -2  13  -4 504.471 285.782  11
   2  13   4 1046.79 245.044  12
  -2  13  -4 507.534 270.818  12
  -2 -13  -5 5551.57 554.948   4
  -2  13  -5 4755.69 511.335  12
  -2  13  -5 5162.24 556.496  11
  -2 -13  -5 5432.02 598.518   3
  -2 -13  -6 108.283 248.123   3
  -2 -13  -6-37.3760 199.672   8
  -2  13  -6 261.124 233.673  11
  -2  13  -6 482.613 215.732  12
  -2 -13  -6 351.422 223.865   4
  -2  13  -7 15518.8 840.627  11
  -2  13  -7 13929.9 682.536  12
  -2 -13  -7 13437.5 724.925   8
  -2 -13  -7 13569.6 710.423   4
  -2  13  -8 9506.63 549.295   7
  -2 -13  -8 8275.06 478.062   8
  -2 -13  -8 8732.12 466.479   4
  -2  13  -9 6171.44 369.200   7
   2  13   9 6182.64 386.241  13
   2  14 -10 20334.5 576.864   7
   2 -14 -10 19154.9 635.745   4
   2 -14  -9 176.130 118.575   3
   2  14  -9 123.904 144.167   7
   2 -14  -9 198.084 202.090   4
   2 -14  -8 44263.0 1348.27   4
   2  14  -8 41573.5 1141.64   7
   2 -14  -8 40588.5 1280.47   3
   2  14  -7 87.8010 158.599   7
   2 -14  -7-56.7223 221.061   3
   2  14  -7-118.899 128.772  12
   2 -14  -7 46.2349 241.327   4
   2  14  -6 5950.57 482.267  12
   2  14  -6 5829.37 510.819   7
   2 -14  -6 5752.98 604.706   4
   2 -14  -6 5668.79 591.963   3
   2  14  -5 5310.79 491.233  12
   2 -14  -5 5436.14 578.314   4
   2 -14  -5 5534.71 625.669   3
   2 -14  -5 5451.09 516.566   9
   2  14  -5 5251.92 477.318   7
   2  14  -4 2545.69 349.477   7
   2 -14  -4 2234.15 419.431   3
   2 -14  -4 2332.40 386.434   9
   2  14  -4 2759.03 397.400  12
   2 -14  -3 629.280 251.326   3
   2  14  -3 672.461 240.322  12
   2 -14  -3 572.581 258.113   9
   2  14  -2 2169.01 366.591  12
   2 -14  -2 1767.18 381.085   3
  -2  14   2 2240.04 334.331  12
   2 -14  -2 1679.70 348.524   9
   2 -14  -1 24379.4 1143.52   3
   2  14  -1 25794.3 1089.86  12
  -2  14   1 24211.1 1038.61  12
   2 -14  -1 24851.9 1125.86   9
   2 -14   0 2302.41 404.255   9
  -2 -14   0 2831.14 430.774   3
   2  14   0 2388.58 377.033  12
  -2  14   0 2019.01 350.579  12
  -2 -14  -1 50.6115 156.326   3
   2  14   1 341.651 169.534  12
   2 -14   1 413.793 235.422   9
  -2  14  -1 323.610 241.128  12
   2 -14   2 21047.8 987.744   9
   2  14   2 20208.6 927.827  12
  -2 -14  -2 20747.3 1100.38   3
  -2  14  -2 20295.3 1006.56  12
  -2  14  -3 246.136 235.910  12
  -2 -14  -3 449.027 261.041   3
   2 -14   3-141.051 195.506   9
   2  14   3-35.5092 155.027  12
  -2 -14  -4 33454.0 1392.23   3
   2  14   4 34117.2 1103.43  12
  -2  14  -4 34057.3 1277.81  12
  -2 -14  -5 234.121 214.505   4
  -2  14  -5 202.513 141.942   7
  -2 -14  -5-84.3242 219.374   3
  -2  14  -5 171.348 215.522  12
  -2 -14  -6 42792.8 1289.02   4
  -2 -14  -6 42070.3 1304.42   8
  -2  14  -6 41901.2 1196.40   7
  -2  14  -6 42144.9 1242.94  12
  -2 -14  -7 104.548 148.902   8
  -2  14  -7-11.2951 135.067   7
  -2  14  -7 77.1823 120.725  12
  -2 -14  -7 273.893 151.933   4
  -2  14  -8 16020.4 599.237   7
   2  14   9 458.316 103.930  13
   2 -15  -9 6975.69 427.597   4
   2  15  -9 7644.81 372.030   7
   2 -15  -8 6750.12 498.111   4
   2  15  -8 7156.26 433.290   7
   2 -15  -8 7125.75 499.227   3
   2 -15  -7 1775.23 336.404   3
   2  15  -7 1920.97 275.393   7
   2 -15  -7 2004.44 357.294   4
   2  15  -7 1825.55 224.213  12
   2 -15  -6 5745.03 569.701   4
   2 -15  -6 6452.11 607.865   3
   2  15  -6 6092.29 441.472  12
   2  15  -6 6611.66 474.712   7
   2 -15  -5 1266.55 364.285   3
   2 -15  -5 1462.07 300.530   9
   2  15  -5 1575.25 254.463   7
   2 -15  -5 1284.58 331.716   4
   2  15  -5 1267.63 261.844  12
   2 -15  -4 39024.6 1479.62   3
   2  15  -4 38018.0 1132.23   7
   2 -15  -4 39925.2 1339.20   9
   2  15  -4 38396.3 1253.44  12
   2 -15  -3 4339.96 487.882   9
   2  15  -3 4734.11 483.579  12
   2 -15  -3 5319.94 580.451   3
   2 -15  -2 6396.44 591.575   9
   2 -15  -2 6642.92 625.826   3
   2  15  -2 6843.29 582.624  12
  -2  15   2 6465.67 515.322  12
   2 -15  -1 785.020 301.299   3
   2 -15  -1 383.492 251.420   9
  -2  15   1 392.513 193.626  12
   2  15  -1 340.941 218.074  12
   2 -15   0 26807.2 1140.59   9
  -2  15   0 27962.8 1130.38  12
  -2 -15   0 29018.5 1194.53   3
   2  15   0 28508.2 1120.60  12
  -2 -15  -1 2254.83 376.427   3
  -2  15  -1 1744.62 348.664  12
   2 -15   1 1858.97 366.989   9
   2  15   1 1770.36 311.655  12
   2 -15   2 15068.5 820.180   9
  -2  15  -2 15344.0 865.639  12
  -2 -15  -2 16209.1 946.962   3
   2  15   2 16126.3 810.511  12
  -2 -15  -3 2115.88 385.301   3
   2 -15   3 2388.57 338.471   9
   2  15   3 2067.07 319.807  12
  -2  15  -3 2111.14 387.795  12
  -2 -15  -4 886.170 336.987   3
  -2  15  -4 547.567 243.980  12
   2  15   4 529.524 150.810  12
  -2  15  -5 23205.2 946.745  12
  -2 -15  -5 24322.8 984.388   4
  -2  15  -6 455.673 178.179  12
  -2 -15  -6 416.036 218.460   8
  -2  15  -6 578.714 165.540   7
  -2 -15  -6 468.007 193.995   4
  -2 -15  -7 624.264 159.409   8
  -2  15  -7 936.266 165.962  12
  -2  15  -7 496.053 136.642   7
  -2 -15  -7 736.108 157.676   4
   2  15   8 5925.88 318.531  13
   2 -16  -8 430.174 148.674   3
   2  16  -8 549.284 128.595   7
   2 -16  -8 422.824 168.149   4
   2  16  -7 10268.4 477.980   7
   2 -16  -7 9977.71 584.477   4
   2 -16  -7 9310.56 580.912   3
   2 -16  -6 12887.6 719.256   4
   2  16  -6 12771.0 575.391   7
   2  16  -6 12194.0 558.293  12
   2 -16  -6 12820.2 745.533   3
   2 -16  -5 7528.87 602.886   4
   2  16  -5 8620.65 488.976   7
   2  16  -5 8067.96 522.693  12
   2 -16  -5 8797.89 668.231   3
   2 -16  -4 140.233 248.381   3
   2 -16  -4 542.974 231.648   9
   2 -16  -4 659.107 265.328   4
   2  16  -4 446.957 206.825  12
   2 -16  -3 16201.2 847.387   9
   2  16  -3 16055.8 810.056  12
   2 -16  -3 15613.5 897.708   3
   2 -16  -2 1102.13 314.444   3
  -2  16   2 1302.43 254.339  12
   2 -16  -2 1156.36 322.313   9
   2  16  -2 1367.60 306.776  12
   2  16  -1 19512.3 911.165  12
  -2  16   1 19338.5 874.473  12
   2 -16  -1 22328.1 1000.70   3
   2 -16  -1 20000.1 958.817   9
   2  16   0-66.6121 206.387  12
  -2  16   0-66.1671 144.553  12
   2 -16   0 212.989 220.354   9
   2 -16   1 21901.9 971.822   9
   2  16   1 21350.5 911.254  12
  -2  16  -1 22789.0 988.967  12
  -2 -16  -2 1049.35 301.797   3
  -2  16  -2 1336.65 310.482  12
   2 -16   2 1351.59 292.521   9
   2  16   2 1390.60 260.489  12
  -2 -16  -3 4822.38 523.640   3
   2  16   3 4470.25 397.955  12
   2 -16   3 4791.11 408.203   9
  -2  16  -3 4916.82 487.876  12
  -2 -16  -4 4865.28 480.499   4
  -2  16  -4 4795.49 462.925  12
  -2  16  -5 1071.29 235.494  12
  -2 -16  -5 1168.18 244.310   4
  -2 -16  -6 5263.30 365.935   4
   2  16   6 6172.22 366.553  13
  -2 -16  -6 5067.99 368.933   8
  -2  16  -6 6040.29 384.147  12
   2  16   7 1623.18 175.165  13
   2 -17  -7 8993.15 480.763   3
   2 -17  -7 8531.54 449.540   4
   2  17  -6 2117.87 214.476  12
   2 -17  -6 2139.77 297.009   4
   2 -17  -6 2210.05 304.879   3
   2 -17  -5 7902.53 533.714   4
   2  17  -5 7790.14 448.842  12
   2 -17  -5 8008.90 564.703   3
   2 -17  -4-11.6834 180.753   3
   2  17  -4-95.8022 148.807  12
   2 -17  -4 249.791 187.845   4
   2 -17  -3 341.222 174.440   3
   2 -17  -3 330.979 208.973   9
   2  17  -3 296.580 193.872  12
   2 -17  -2 830.191 220.390   3
   2 -17  -2 1053.67 287.030   9
   2  17  -2 1077.83 267.743  12
  -2  17   2 746.596 205.555  12
   2 -17  -1-9.83065 205.867   9
   2  17  -1 186.940 206.707  12
  -2  17   1 427.354 173.908  12
   2  17   0 47.7533 162.778  12
   2 -17   0-25.3061 177.916   9
  -2  17   0-205.132 175.591  12
   2  17   1 22511.1 857.798  12
   2 -17   1 23285.8 911.774   9
  -2  17  -1 22788.8 912.846  12
   2  17   2 58.8026 149.845  12
   2 -17   2 262.526 161.688   9
  -2  17  -2 138.745 186.917  12
   2 -17   3 18009.9 658.887   9
  -2  17  -3 17067.1 758.697  12
  -2 -17  -4 2017.10 294.343   4
  -2  17  -4 1876.13 268.511  12
  -2 -17  -5 17640.2 652.513   8
  -2  17  -5 19906.0 675.100  12
  -2 -17  -5 18200.7 640.419   4
  -2 -17  -6 1652.64 167.988   8
  -2  17  -6 2372.95 189.644  12
   2 -18  -6 1567.06 210.172   3
   2 -18  -6 1517.36 181.319   4
   2 -18  -5 3369.85 324.067   3
   2  18  -5 2955.67 238.596  12
   2 -18  -5 2604.54 277.565   4
   2  18  -4 5058.30 350.079  12
   2 -18  -4 4617.70 374.850   4
   2 -18  -4 5040.64 409.859   3
   2  18  -3 10519.3 534.645  12
   2 -18  -3 11309.7 599.996   3
   2 -18  -2 1679.93 241.973   3
   2  18  -2 1639.69 257.838  12
   2 -18  -2 1480.13 260.056   4
  -2  18   1 6374.93 421.554  12
   2 -18  -1 6757.69 492.734   9
   2  18  -1 6550.03 448.669  12
   2 -18   0 8603.02 532.278   9
  -2  18   0 8168.15 492.293  12
   2  18   0 8795.38 503.964  12
   2 -18   1 268.078 155.818   9
   2  18   1 125.022 141.771  12
  -2  18  -1 172.083 148.124  12
   2  18   2 1043.67 183.978  12
  -2  18  -2 647.549 195.164  12
  -2 -18  -3 11022.1 546.296   4
  -2  18  -3 11753.4 544.632  12
  -2 -18  -4 8459.35 418.393   4
  -2 -18  -4 8875.85 435.152   8
  -2  18  -5 45.6274 60.9094  12
   2  19  -4 3740.97 234.564  12
   2 -19  -4 2605.13 212.157   4
   2  19  -3 122.863 93.4779  12
   2 -19  -3 272.048 111.642   4
   2  19  -2 31224.8 775.218  12
   2 -19  -2 22660.6 648.705   4
   2 -19  -1 91.8729 99.7713   4
   2  19  -1 178.919 114.969  12
  -2  19   0 6945.10 361.163  12
   2  19   0 7380.45 384.559  12
   2  19   1 1091.11 153.022  12
  -2  19  -1 1015.65 170.472  12
  -2  19  -2 391.311 126.439  12
  -2 -19  -2 305.427 141.170   4
  -2 -19  -3 1191.01 158.116   8
  -2  19  -3 1149.39 144.877  12
   3   0 -14-209.440 183.999   6
   3   0 -13 74.0147 150.237   5
   3   0 -13-230.857 178.087   6
   3   0 -12 15660.4 808.922   5
   3   0 -12 16050.2 851.995   6
   3   0 -12 17603.4 957.802   4
   3   0 -11 528.742 285.977  14
   3   0 -11-96.1348 175.443   5
   3   0 -11-454.601 417.873   4
   3   0 -11-85.7101 187.531   6
   3   0 -10 7194.07 615.869   5
   3   0 -10 7400.96 632.680  10
   3   0 -10 7068.33 703.299   4
   3   0 -10 7776.13 724.233  14
   3   0 -10 8157.89 646.552   6
   3   0  -9-293.461 227.219  14
   3   0  -9 137.894 187.527   5
   3   0  -9 148.118 265.417  15
   3   0  -9-9.80471 162.291   6
   3   0  -8 114612. 2622.55  15
   3   0  -7 106.842 116.611   2
   3   0  -7-216.953 195.109  15
   3   0  -6 226550. 2999.21  15
   3   0  -6 211998. 2847.71   2
   3   0  -5-107.687 149.028  15
   3   0  -5 80.1468 158.367   2
  -3   0   5 181.370 88.1673  16
  -3   0   4 42036.3 645.436  16
   3   0  -4 39974.1 1130.10   2
   3   0  -4 41730.1 1019.74  15
   3   0  -3-13.4525 176.425   2
   3   0  -3 3.78634 108.395  15
   3   0  -2 2053.57 307.341   2
   3   0  -2 2135.52 194.601  15
  -3   0   2 1654.69 77.1736   1
  -3   0   1 10.3832 77.5814   1
   3   0   0 13112.0 621.042   2
  -3   0   0 12931.8 486.295   1
  -3   0  -1 50.6661 132.468   1
   3   0   1-8.67008 173.439   2
  -3   0  -1 28.1644 44.4861  15
  -3   0  -2 70541.1 846.690  15
  -3   0  -2 68695.6 1423.30   1
   3   0   2 69216.0 1436.89   2
  -3   0  -3-31.7940 181.793   1
  -3   0  -3 33.3584 76.5559  15
   3   0   3-38.4306 119.504   2
  -3   0  -4 28971.2 769.798  15
  -3   0  -4 27257.5 1119.59   1
   3   0   4 30099.5 1004.83   2
  -3   0  -5 124.034 173.399   1
  -3   0  -6 70325.8 2147.53   1
  -3   0  -7-132.530 292.179   1
  -3   0  -7-170.919 176.363   8
  -3   0  -9-126.206 201.135   6
  -3   0  -9 132.280 154.095  11
  -3   0 -10 45664.6 1366.16   6
  -3   0 -10 42431.0 1356.61  11
  -3   0 -11-20.9654 98.6781  11
  -3   0 -11 257.579 133.620   6
   3   1 -14 1177.28 164.900   5
   3   1 -14 866.743 204.005   6
   3  -1 -14 669.720 186.393   6
   3   1 -13 631.078 193.583   5
   3  -1 -13 546.281 154.329   5
   3   1 -13 37.3691 272.766   6
   3  -1 -13 205.625 167.818   6
   3   1 -12 14578.8 789.337   5
   3   1 -12 15495.6 834.868   6
   3  -1 -12 14631.6 805.318   6
   3  -1 -12 13815.4 743.235   5
   3   1 -12 14105.2 857.424  14
   3  -1 -12 15220.0 900.169   4
   3   1 -11 308.509 283.453  14
   3  -1 -11 585.191 318.328  10
   3  -1 -11 148.247 157.851   5
   3   1 -11 250.599 217.708   5
   3  -1 -11 211.948 208.490   6
   3  -1 -11 153.894 284.586  14
   3   1 -11 1127.69 420.886   4
   3   1 -11 70.9680 202.414   6
   3  -1 -10 36522.2 1306.76   5
   3  -1 -10 36605.3 1377.52  10
   3   1 -10 36183.6 1449.09   4
   3  -1 -10 39073.2 1529.42  14
   3   1 -10 39235.6 1514.90  14
   3   1 -10 40049.9 1394.88   5
   3  -1 -10 36150.9 1449.46   4
   3   1 -10 39067.2 1386.45   6
   3  -1 -10 38016.0 1368.34   6
   3  -1  -9 118148. 2484.91   4
   3   1  -9 113393. 2246.51   6
   3  -1  -9 112342. 2202.99   5
   3  -1  -9 108268. 2356.69  10
   3   1  -9 122405. 2940.56  15
   3  -1  -9 121015. 2957.85  15
   3  -1  -9 121008. 2556.76  14
   3   1  -9 116833. 2491.63   4
   3   1  -9 118232. 2508.11  14
   3   1  -9 120106. 2323.35   5
   3  -1  -9 117609. 2292.62   6
   3  -1  -8 2188.32 415.220  15
   3   1  -8 2233.87 400.387  15
   3  -1  -7 9815.42 677.817   2
   3   1  -7 9128.46 686.753  15
   3  -1  -7 8981.29 703.952  15
   3  -1  -6 10072.0 659.773   2
  -3   1   6 10443.8 529.710  16
   3   1  -6 10301.9 656.421  15
   3  -1  -6 10475.0 679.154  15
   3   1  -6 9932.58 595.007   2
   3  -1  -5 10008.9 621.629   2
   3   1  -5 10763.7 603.411   2
   3  -1  -5 10273.4 606.094  15
  -3   1   5 11170.8 474.276  16
   3   1  -5 10025.6 574.105  15
  -3  -1   4 152221. 1045.28  16
   3   1  -4 155422. 1922.45  15
   3   1  -4 158098. 2193.57   2
   3  -1  -4 159780. 2043.67  15
   3  -1  -4 156869. 2283.27   2
   3  -1  -3 15064.4 697.284   2
   3   1  -3 14269.6 514.480  15
   3   1  -3 14236.9 677.774   2
  -3   1   3 14296.3 359.381  16
   3  -1  -3 14248.9 555.376  15
  -3   1   2 52296.0 664.351  16
   3  -1  -2 53123.8 933.019  15
   3   1  -2 52265.4 817.236  15
  -3   1   2 51324.7 593.741   1
   3   1  -2 53757.1 1270.67   2
  -3  -1   1 8833.94 325.180   1
   3   1  -1 8664.56 257.717  15
  -3   1   1 8504.92 336.299   1
  -3   1   1 8693.01 343.645  16
  -3  -1   0 42863.0 864.578   1
  -3   1   0 41125.3 858.712   1
   3  -1   0 41509.5 1059.17   2
   3   1   0 41970.9 1119.94   2
  -3  -1  -1 917.443 203.886   1
   3  -1   1 1096.49 227.722   2
  -3   1  -1 854.469 197.588   1
   3   1   1 1120.78 246.551   2
  -3  -1  -2 64559.5 1401.76   1
  -3   1  -2 65344.2 965.272  15
   3  -1   2 63563.8 1296.62   2
  -3   1  -2 62680.8 1363.06   1
   3   1   2 63829.6 1386.53   2
   3   1   3 2701.57 321.428   2
  -3   1  -3 2211.05 345.266   1
  -3   1  -3 2767.38 245.392  15
  -3  -1  -3 2383.35 356.101   1
   3  -1   3 2456.94 280.272   2
  -3   1  -4 42723.2 1392.28   1
  -3  -1  -4 44583.1 1452.03   1
  -3   1  -4 45553.9 1038.14  15
   3   1   4 44517.6 1255.73   2
  -3  -1  -5 50295.9 1706.00   1
  -3   1  -5 46371.0 1586.92   1
  -3  -1  -6 8785.96 805.168   1
  -3   1  -6 9356.00 801.916   1
  -3  -1  -7 37006.6 1729.96   1
  -3  -1  -7 37790.2 1310.72   8
  -3   1  -7 35456.4 1649.87   1
  -3   1  -7 35241.2 1274.74   8
  -3   1  -8 2424.93 363.424   6
  -3  -1  -8 1194.62 305.350   8
  -3   1  -9 17999.4 977.979  11
  -3  -1  -9 19264.2 977.915   6
  -3   1  -9 19634.2 953.155   6
  -3   1 -10 6754.39 561.343  11
  -3  -1 -10 7023.98 558.605  11
  -3   1 -10 7260.50 536.782   6
  -3  -1 -10 7319.28 587.692   6
  -3   1 -11 2298.71 280.927  11
  -3  -1 -11 2523.71 301.006   6
  -3   1 -11 2699.79 276.219   6
  -3  -1 -11 2415.70 279.006   5
  -3   1 -12 9008.34 393.710   5
  -3  -1 -12 10574.0 402.699   6
   3   2 -14 76.5949 84.0913   5
   3  -2 -14-462.923 176.653   6
   3   2 -13 41799.9 1148.21   5
   3   2 -13 42935.1 1166.70   6
   3  -2 -13 43586.0 1195.23   6
   3   2 -12 2472.66 368.021   5
   3  -2 -12 2339.65 329.258   5
   3  -2 -12 2454.68 375.916   6
   3   2 -12 2312.36 395.190  14
   3  -2 -12 2052.80 440.013   4
   3   2 -12 2707.29 388.150   6
   3   2 -11 24265.7 1077.45   6
   3  -2 -11 24491.8 1023.48   5
   3   2 -11 23587.1 1076.63   5
   3  -2 -11 22243.6 1055.94  10
   3  -2 -11 23865.7 1176.39   4
   3   2 -11 23565.5 1142.01  14
   3  -2 -11 24847.0 1234.55  14
   3  -2 -11 25649.9 1109.10   6
   3  -2 -10 3874.39 434.404   5
   3  -2 -10 3798.29 517.778  10
   3  -2 -10 3510.93 438.642   6
   3   2 -10 3890.92 456.585   6
   3   2 -10 3930.85 576.267   4
   3  -2 -10 2701.05 472.907   4
   3  -2 -10 4204.65 553.918  14
   3   2 -10 3813.06 474.686   5
   3   2 -10 3681.06 485.942  14
   3  -2  -9 170.461 149.008   5
   3   2  -9 15.3336 171.664   5
   3   2  -9 221.608 154.834  15
   3  -2  -9-645.878 280.736  10
   3  -2  -9 196.792 295.342  14
   3   2  -9 139.176 241.887  14
   3  -2  -9 162.932 288.387  15
   3  -2  -9 177.593 226.645   4
   3   2  -9 26.0274 181.785   6
   3  -2  -9-116.853 149.782   6
   3  -2  -8 853.052 290.465  15
   3   2  -8 1091.44 302.268  15
   3  -2  -7 31.0360 113.739   2
   3  -2  -7-17.2990 197.459  15
   3   2  -7 72.3274 190.327  15
   3   2  -6 368.981 148.677   2
   3   2  -6 326.087 194.300  15
   3  -2  -6 481.394 238.910  15
   3  -2  -6 804.781 232.173   2
  -3   2   6 460.272 149.152  16
   3   2  -5 33974.3 1035.83  15
  -3   2   5 35382.7 904.995  16
   3  -2  -5 34959.3 1116.26  15
   3   2  -5 35731.8 1052.66   2
   3  -2  -5 33214.8 1168.85   2
   3  -2  -4 30067.0 1053.77   2
   3   2  -4 28932.6 836.316  15
   3  -2  -4 29034.1 920.890  15
   3   2  -4 29469.9 952.437   2
  -3   2   4 29643.6 728.021  16
   3  -2  -3 23678.0 887.841   2
  -3   2   3 24096.9 584.656  16
   3   2  -3 22611.4 640.571  15
   3   2  -3 23842.3 892.750   2
   3  -2  -3 23415.9 747.176  15
   3   2  -2 63050.0 881.961  15
   3  -2  -2 64807.5 1387.39   2
  -3   2   2 64757.1 929.251  16
   3   2  -2 64113.8 1404.35   2
  -3  -2   1 217801. 1733.04   1
   3  -2  -1 218433. 2504.18   2
   3   2  -1 212911. 1168.34  15
   3   2  -1 216523. 2582.81   2
  -3   2   1 212116. 1842.49  16
  -3   2   0 44192.8 950.293   1
  -3   2   0 44767.6 984.546  16
   3  -2   0 45512.9 1149.74   2
  -3  -2   0 43624.7 921.194   1
   3   2   0 43025.3 1124.61   2
  -3  -2  -1 135781. 1835.87   1
   3  -2   1 135294. 1867.02   2
  -3   2  -1 134116. 1835.89   1
  -3  -2  -2 6187.96 471.182   1
   3  -2   2 6017.49 403.798   2
  -3   2  -2 5309.49 440.881   1
   3  -2   3 98805.4 1506.76   2
  -3  -2  -3 100558. 2032.19   1
  -3   2  -3 99652.9 1510.74  15
  -3   2  -3 94713.2 1906.11   1
  -3  -2  -4 80.8625 222.978   1
  -3   2  -4-54.7545 188.429   1
  -3   2  -4 271.480 121.956  15
   3   2   5 10062.7 667.507   2
  -3   2  -5 9621.98 740.538   1
  -3  -2  -5 10249.0 827.449   1
  -3   2  -5 10751.9 605.460  15
  -3   2  -6 4552.93 563.514   1
  -3  -2  -6 6040.23 714.429   1
  -3  -2  -7 329.835 209.774   8
  -3  -2  -7 454.663 290.144   1
  -3   2  -7 334.237 285.946   1
  -3   2  -8 500.865 178.432   6
  -3   2  -8 1071.90 275.334  11
  -3  -2  -8 549.320 254.209   8
  -3  -2  -9 481.550 257.767   6
  -3   2  -9 313.750 218.961  11
  -3   2  -9 687.870 221.433   6
  -3   2 -10 3681.70 416.447  11
  -3  -2 -10 3809.47 412.103  11
  -3   2 -10 3905.46 377.425   6
  -3  -2 -10 4026.06 451.099   6
  -3   2 -11 12679.6 610.405  11
  -3  -2 -11 13401.0 657.281   6
  -3   2 -12 21.3092 87.8508   5
  -3  -2 -12-15.0067 82.0012   6
   3   3 -14 547.891 134.967   5
   3  -3 -14 321.231 151.600   6
   3   3 -13 5347.16 432.062   5
   3  -3 -13 6686.42 525.285   4
   3   3 -13 5031.68 422.564   6
   3  -3 -13 6112.62 459.026   6
   3  -3 -12 2875.70 391.196   6
   3  -3 -12 2648.71 302.891   5
   3   3 -12 2725.40 384.311   5
   3  -3 -12 2017.78 413.072   4
   3   3 -12 2743.89 406.885  14
   3   3 -12 2280.16 375.038   6
   3  -3 -11 12612.6 720.291   5
   3   3 -11 12301.6 795.525   5
   3   3 -11 12312.2 833.735  14
   3  -3 -11 13477.0 861.136  10
   3  -3 -11 12126.8 774.045   6
   3   3 -11 13352.1 798.800   6
   3  -3 -11 11422.9 856.528   4
   3   3 -10 7147.80 613.794   5
   3  -3 -10 6197.82 641.122  10
   3  -3 -10 6524.21 674.464  14
   3   3 -10 7060.20 666.047  14
   3  -3 -10 7786.19 591.372   5
   3   3 -10 7140.31 592.316   6
   3  -3 -10 7446.97 615.062   6
   3  -3 -10 7129.04 685.353   4
   3  -3  -9 45163.9 1363.95   5
   3   3  -9 49605.9 1525.76   5
   3  -3  -9 48368.5 1637.59   4
   3   3  -9 46676.7 1612.05   4
   3   3  -9 51265.2 1907.54  15
   3  -3  -9 48640.5 1637.07  10
   3   3  -9 47596.1 1582.45  14
   3  -3  -9 50803.5 1692.49  14
   3  -3  -9 46651.9 1895.31  15
   3   3  -9 49038.8 1477.26   6
   3  -3  -9 49161.0 1483.16   6
   3  -3  -8-40.8599 215.349  15
   3   3  -8 213.227 178.551  15
  -3   3   7 88368.9 1871.98  16
   3  -3  -7 84531.7 2179.50   2
   3   3  -7 85912.4 2066.32  15
   3  -3  -7 83456.8 2156.05  15
   3  -3  -6 1463.44 309.502  15
   3   3  -6 1337.80 260.867  15
  -3   3   6 1643.92 264.226  16
   3  -3  -6 1655.38 338.964   2
  -3   3   5 120473. 1793.33  16
   3  -3  -5 112774. 2080.36  15
   3  -3  -5 113480. 2246.41   2
   3   3  -5 115524. 1924.24  15
   3   3  -5 117626. 1881.07   2
   3   3  -4 21912.9 741.467  15
   3   3  -4 21296.2 835.909   2
   3  -3  -4 21673.6 837.388  15
  -3   3   4 22532.1 705.610  16
   3  -3  -4 22089.7 947.291   2
  -3   3   3 12670.0 497.226  16
   3   3  -3 11481.8 471.419  15
   3  -3  -3 11935.6 665.676   2
   3   3  -3 11583.4 638.244   2
  -3   3   2 4492.57 303.687  16
   3  -3  -2 4047.12 399.115   2
   3   3  -2 3884.34 155.784  16
   3   3  -2 4369.88 250.255  15
   3   3  -2 4550.07 424.462   2
   3  -3  -1 9273.18 545.335   2
  -3   3   1 9796.40 456.000  16
   3   3  -1 9481.47 327.860  16
   3   3  -1 9210.93 263.181  15
   3   3  -1 9657.14 576.166   2
   3  -3   0 174062. 2164.78   2
  -3  -3   0 170990. 1948.47   1
  -3   3   0 175170. 2056.61  16
  -3   3  -1 4221.18 402.618  16
  -3   3  -1 4005.76 371.823   1
  -3  -3  -1 4020.99 368.216   1
   3  -3   1 4166.86 347.569   2
   3  -3   2 1158.29 196.620   2
  -3  -3  -2 1034.19 254.840   1
  -3   3  -2 1067.57 249.321   1
  -3   3  -3 29365.6 897.794  15
  -3  -3  -3 29110.3 1132.29   1
  -3   3  -3 28110.6 1080.80   1
  -3  -3  -4 1435.95 359.142   1
  -3   3  -4 1720.28 268.700  15
  -3   3  -4 1369.23 320.782   1
  -3   3  -5 60819.5 1501.63  15
  -3  -3  -5 58333.1 1973.17   1
  -3   3  -5 57196.4 1804.18   1
  -3   3  -6 92.9885 156.515   1
  -3  -3  -6 17.8634 245.579   1
  -3   3  -7 63058.9 2191.47   1
  -3  -3  -7 64586.0 2421.77   1
  -3  -3  -7 64270.7 1731.49   8
  -3   3  -8-59.0743 201.396  11
  -3  -3  -8 450.132 219.320   8
  -3   3  -9 17657.2 975.055  11
  -3  -3  -9 18418.2 977.600   6
  -3  -3  -9 18089.0 912.000   8
  -3  -3 -10 1258.84 300.855   6
  -3   3 -10 1137.51 276.609  11
  -3  -3 -10 889.145 222.369  11
  -3   3 -11 16115.7 684.582  11
  -3  -3 -11 16108.6 718.534   6
  -3   3 -12 3967.15 281.040   5
  -3  -3 -12 4542.95 287.575   6
   3   4 -14 163.340 96.6782   5
   3  -4 -14-191.257 152.682   6
   3   4 -13 7314.18 471.251   6
   3   4 -13 7728.58 497.566   5
   3  -4 -13 8038.96 532.774   4
   3  -4 -13 7779.46 492.990   6
   3   4 -12 10430.3 679.509   5
   3  -4 -12 10266.5 648.277   6
   3   4 -12 10373.3 656.222  14
   3   4 -12 9930.05 646.035   6
   3  -4 -12 9373.07 714.577   4
   3   4 -11 3708.24 476.780   5
   3  -4 -11 5221.68 626.656  10
   3  -4 -11 3613.79 517.464   4
   3   4 -11 3815.81 479.116  14
   3   4 -11 3284.06 437.609   6
   3  -4 -11 3509.05 426.923   6
   3   4 -10 12373.0 808.289   5
   3  -4 -10 11520.0 844.495  10
   3  -4 -10 12405.8 905.172  14
   3  -4 -10 11493.1 851.341   4
   3   4 -10 11517.0 807.113  14
   3   4 -10 12720.8 774.526   6
   3  -4 -10 12044.8 764.168   6
   3   4  -9 1949.50 355.749   5
   3  -4  -9 1080.05 368.622  10
   3  -4  -9 1596.87 369.983  14
   3  -4  -9 1351.36 339.092   4
   3   4  -9 1672.66 342.152  14
   3  -4  -9 1402.08 300.205   6
   3   4  -9 1195.69 333.165  15
   3   4  -9 1774.40 276.081   7
   3  -4  -9 2557.97 386.964  15
   3   4  -9 1649.97 305.887   6
   3  -4  -8 86492.6 2434.97  15
   3   4  -8 88691.5 2328.90  15
   3  -4  -7 464.243 242.603  15
  -3   4   7 299.565 176.479  16
   3   4  -7-63.5159 142.430  15
  -3   4   6 38204.8 1190.79  16
   3  -4  -6 37693.0 1456.75   2
   3  -4  -6 36669.3 1351.04  15
   3   4  -6 37662.9 1256.01  15
   3   4  -5 3825.49 357.595   2
   3  -4  -5 4092.95 491.164   2
  -3   4   5 3673.87 353.836  16
   3   4  -5 3923.32 386.290  15
   3  -4  -5 3833.21 439.088  15
   3  -4  -4 36238.3 1258.71   2
  -3   4   4 35121.5 974.563  16
   3   4  -4 36363.3 982.065  15
   3   4  -4 35823.0 1097.76   2
   3  -4  -3 503.066 236.483   2
   3   4  -3 744.556 159.189  15
   3   4  -3 597.641 98.3284  16
  -3   4   3 598.247 171.863  16
   3   4  -3 627.381 247.092   2
   3  -4  -2 74644.0 1604.12   2
   3   4  -2 73020.5 932.318  16
   3   4  -2 73374.0 1049.90  15
   3   4  -2 74647.3 1607.15   2
   3   4  -1 299057. 3106.42   2
   3  -4  -1 287862. 2972.20   2
   3   4  -1 289775. 2085.89  16
  -3   4   1 298514. 2690.96  16
   3   4  -1 283096. 1646.99  15
   3  -4   0 1368.46 242.494   2
  -3  -4   0 1167.35 223.585   1
  -3   4   0 1171.67 241.050  16
   3   4   0 1312.92 198.754  16
   3   4   0 686.228 57.8619  15
  -3  -4  -1 8612.29 542.424   1
  -3   4  -1 8932.43 599.384  16
   3  -4   1 9196.83 493.734   2
  -3   4  -2 43481.9 1299.71   1
  -3  -4  -2 42233.4 1279.20   1
   3  -4   2 42666.8 961.030   2
  -3   4  -3 260.545 146.573  15
  -3   4  -3 426.947 233.492   1
  -3  -4  -3 450.220 241.065   1
  -3   4  -4 40195.4 1202.73  15
  -3   4  -4 38537.1 1413.99   1
  -3  -4  -4 35635.5 1433.98   1
  -3  -4  -5 1961.81 423.642   1
  -3   4  -5 1802.62 315.011  15
  -3   4  -5 1902.68 410.613   1
  -3   4  -6 29486.8 1195.06  15
  -3   4  -6 29911.0 1443.05   1
  -3  -4  -6 28897.7 1575.81   1
  -3   4  -7 2555.98 402.978  11
  -3  -4  -7 2046.39 339.804   8
  -3   4  -7 2632.14 494.337   1
  -3  -4  -7 2087.93 479.296   1
  -3   4  -8 55748.1 1773.01  11
  -3  -4  -8 55787.0 1637.21   8
  -3  -4  -9-58.5519 189.302   6
  -3   4  -9-108.095 205.708  11
   3   4   9 201.382 205.141  13
  -3  -4  -9-167.179 196.709   8
  -3   4 -10 13783.6 774.830  11
  -3  -4 -10 14177.3 804.199   6
  -3   4 -11 1805.10 249.578  11
  -3  -4 -11 1838.06 271.949   6
  -3   4 -12 3573.57 258.249   5
  -3  -4 -12 3664.96 251.660   6
   3   5 -14 18305.8 508.872   5
   3   5 -13 5741.54 421.727   5
   3  -5 -13 5439.53 442.267   4
   3  -5 -13 5932.01 408.113   6
   3   5 -12 17205.9 835.698   5
   3   5 -12 16989.9 787.900  14
   3  -5 -12 16434.2 876.073   4
   3   5 -12 15419.4 750.666   6
   3  -5 -12 17398.6 805.835   6
   3   5 -11 10756.8 724.777  14
   3   5 -11 11010.6 744.312   5
   3  -5 -11 10711.7 785.727   4
   3   5 -11 8683.43 660.121   6
   3  -5 -11 10660.5 696.333   6
   3   5 -10 19574.7 996.898   5
   3  -5 -10 18960.8 1070.01  10
   3   5 -10 19836.3 1022.37  14
   3  -5 -10 19768.4 957.649   6
   3  -5 -10 19850.2 1093.27   4
   3   5 -10 19452.8 878.268   7
   3   5 -10 19818.3 974.353   6
   3   5  -9 9180.93 683.660   5
   3  -5  -9 7871.95 718.386  10
   3  -5  -9 9854.37 799.421   4
   3  -5  -9 9458.34 782.856  14
   3   5  -9 9045.00 701.397  14
   3   5  -9 8725.33 646.783   6
   3   5  -9 8867.90 813.931  15
   3   5  -9 8032.22 581.811   7
   3  -5  -9 9191.77 650.413   6
   3   5  -8 263.544 213.835   5
   3  -5  -8-228.264 326.774  10
   3   5  -8 318.782 185.348  15
   3  -5  -8 368.340 299.301  14
   3  -5  -8 262.434 168.862   4
   3   5  -7 1153.96 278.804  15
  -3   5   7 1637.32 330.388  16
   3   5  -6 4717.95 475.506  15
  -3   5   6 4627.75 462.846  16
   3  -5  -6 5076.59 596.616   2
   3  -5  -5 340.904 236.785   2
   3   5  -5 204.782 139.915  15
  -3   5   5 168.359 162.003  16
  -3   5   4 58537.4 1359.85  16
   3   5  -4 55107.1 1258.55  15
   3  -5  -4 57091.9 1663.86   2
   3   5  -4 54333.3 1379.85   2
   3  -5  -3 1276.64 294.323   2
  -3   5   3 1542.08 259.791  16
   3   5  -3 1357.89 180.694  16
   3   5  -3 1532.43 214.434  15
   3   5  -3 1536.60 291.565   2
   3  -5  -2 140153. 2302.66   2
  -3   5   2 144707. 2034.19  16
   3   5  -2 134667. 1542.99  15
   3   5  -2 139539. 2229.24   2
   3   5  -2 138864. 1566.25  16
   3  -5  -1 17741.4 785.094   2
  -3   5   1 17654.8 735.386  16
   3   5  -1 17889.9 601.086  16
   3   5  -1 17077.9 464.819  15
  -3   5   0 5672.59 472.679  16
   3   5   0 4824.14 206.185  15
   3  -5   0 5455.55 438.932   2
   3   5   0 5301.78 382.288  16
   3  -5   1 4.85801 111.671   2
   3   5   1 207.492 160.311  16
  -3   5  -1 50.9324 217.496  16
  -3  -5  -1 66.0089 175.913   1
  -3  -5  -2 110627. 2176.05   1
   3   5   2 112312. 2123.40  16
  -3  -5  -3 7477.51 648.527   1
  -3   5  -3 7666.89 645.395   1
  -3  -5  -4 99722.8 2467.50   1
  -3   5  -4 105897. 2430.58   1
  -3   5  -4 99578.1 2005.73  15
  -3  -5  -5 6934.51 743.648   1
  -3   5  -5 8128.72 633.012  15
  -3   5  -5 7726.73 720.734   1
  -3   5  -6 8241.56 662.789  11
  -3  -5  -6 7393.83 848.752   1
  -3  -5  -6 7603.41 623.798   8
  -3   5  -6 7193.00 644.548  15
  -3   5  -6 7403.90 746.083   1
  -3   5  -7 78.0364 165.700   1
  -3   5  -7 34.0645 245.736  11
  -3  -5  -7 37.4191 192.303   8
  -3  -5  -7 624.417 309.120   1
   3   5   7 11.5517 213.035  16
  -3   5  -7-34.1476 141.762  12
  -3   5  -8 9194.67 738.072  11
  -3  -5  -8 9005.58 682.183   8
  -3  -5  -9 540.834 266.782   6
  -3   5  -9 593.172 231.405  11
  -3  -5  -9 860.795 250.943   8
   3   5   9 756.443 250.115  13
  -3   5 -10 12125.9 712.723  11
  -3  -5 -10 11212.0 704.932   6
  -3   5 -11 1287.50 219.910  11
  -3  -5 -11 1202.87 230.676   6
  -3   5 -12 19224.6 531.145   5
  -3  -5 -12 19151.3 517.732   6
   3  -6 -13 6359.22 449.063   4
   3   6 -13 7193.39 439.946   5
   3  -6 -13 6835.20 407.091   6
   3   6 -12 8059.34 561.752   5
   3  -6 -12 8033.90 614.507   4
   3  -6 -12 7781.45 516.198   6
   3   6 -11 25646.7 930.881   7
   3  -6 -11 28435.9 1210.91   4
   3   6 -11 27633.8 1077.93  14
   3   6 -11 27533.8 1043.92   6
   3  -6 -11 28559.3 1071.51   6
   3   6 -11 27877.4 1114.63   5
   3   6 -10 34819.1 1294.39   5
   3  -6 -10 34372.8 1405.82  10
   3   6 -10 32544.2 1260.88  14
   3  -6 -10 33583.6 1394.65   4
   3   6 -10 32464.4 1145.77   7
   3   6 -10 31962.6 1194.16   6
   3  -6 -10 34417.5 1225.72   6
   3   6  -9 1305.94 292.206   5
   3  -6  -9 395.885 412.374  10
   3  -6  -9 808.640 227.359   6
   3  -6  -9 788.844 311.924   4
   3   6  -9 1139.69 281.843  14
   3   6  -9 564.848 232.008   7
   3   6  -8 7675.19 599.533   5
   3  -6  -8 7321.59 696.787  10
   3  -6  -8 7251.21 648.932   4
   3   6  -8 7267.45 708.163  15
   3   6  -8 7652.25 611.213  14
   3   6  -8 7083.92 545.621   7
   3  -6  -8 8025.70 571.505   6
  -3   6   7 79.2087 151.884  16
   3   6  -7 593.295 218.959  15
  -3   6   6 42908.4 1413.69  16
   3   6  -6 45327.0 1449.86  15
  -3   6   5 5747.20 514.421  16
   3  -6  -5 5245.14 601.796   2
   3   6  -5 6047.88 500.972  15
  -3   6   4 30537.1 1078.15  16
   3  -6  -4 30055.0 1277.04   2
   3   6  -4 31254.6 1086.29   2
   3   6  -4 30762.7 987.820  15
   3   6  -3 77127.8 1424.61  15
   3  -6  -3 78639.0 1934.03   2
   3   6  -3 79276.0 1353.66  16
  -3   6   3 81723.7 1699.50  16
   3   6  -3 79704.8 1803.83   2
   3  -6  -2 2157.82 368.592   2
  -3   6   2 2650.17 346.359  16
   3   6  -2 2603.95 264.808  16
   3   6  -2 2316.88 343.680   2
   3   6  -2 2341.87 232.748  15
   3  -6  -1 4262.62 449.959   2
   3   6  -1 4430.89 275.176  15
   3   6  -1 4404.13 349.414  16
  -3   6   1 4336.50 434.830  16
   3  -6   0 3176.53 361.839   2
   3   6   0 4133.53 369.511  16
  -3   6   0 3574.70 416.607  16
   3  -6   1 97832.2 1681.39   2
   3   6   1 91573.8 1835.69  16
  -3   6  -1 95290.9 2062.41  16
  -3   6  -2 1033.72 334.330  16
   3   6   2 1109.69 283.226  16
  -3   6  -3 28469.3 1255.54   1
  -3  -6  -3 28718.2 1271.41   1
   3   6   3 27746.9 1238.17  16
   3   6   4 4265.27 572.727  16
  -3   6  -4 5084.55 496.798  15
  -3  -6  -4 4227.43 571.544   1
  -3   6  -4 4378.21 560.415   1
   3   6   5 12799.5 1020.32  16
  -3   6  -5 12550.5 806.968  15
  -3   6  -5 12323.5 939.986   1
  -3  -6  -5 13025.8 1013.58   1
  -3   6  -6 125203. 2583.89  11
   3   6   6 126606. 3450.71  16
  -3  -6  -6 126467. 3357.88   1
  -3  -6  -6 127684. 2516.58   8
  -3   6  -6 119062. 2319.57  12
  -3   6  -6 125026. 3084.82   1
  -3   6  -6 119900. 2610.10  15
  -3  -6  -7 359.457 228.507   8
  -3   6  -7 279.463 221.436  11
  -3   6  -7 508.590 230.180  12
  -3   6  -8 10717.6 793.035  11
  -3  -6  -8 11042.0 730.037   8
  -3   6  -9 14679.5 872.645  11
   3   6   9 15188.6 797.564  13
  -3  -6  -9 14794.8 783.295   8
  -3  -6  -9 14521.1 851.654   6
   3   6  10 8845.92 517.043  13
  -3   6 -10 9376.56 615.007  11
  -3  -6 -10 8407.94 595.630   6
  -3   6 -11 4822.03 355.623  11
  -3   6 -11 4858.54 378.093   5
  -3  -6 -11 4923.25 377.757   6
   3   7 -13 179.406 124.658   5
   3  -7 -13-10.3917 193.552   4
   3   7 -12 170.901 164.187   5
   3  -7 -12-50.2590 314.400   4
   3  -7 -12 467.520 156.154   6
   3   7 -11 20938.2 936.411   5
   3   7 -11 19811.7 825.102   7
   3  -7 -11 20770.5 1020.29   4
   3  -7 -11 20348.4 866.911   6
   3   7 -10 83.3885 180.164  14
   3  -7 -10 1107.65 365.948   4
   3   7 -10 1132.35 304.827   5
   3   7 -10 935.087 258.750   7
   3  -7 -10 970.385 234.495   6
   3  -7  -9 75030.7 2091.64   4
   3   7  -9 71683.9 1844.95  14
   3  -7  -9 72012.6 1722.61   6
   3   7  -9 68093.0 1723.78   7
   3  -7  -9 70627.3 2029.20  10
   3   7  -9 72434.4 1831.65   5
   3   7  -8 4530.48 501.573  14
   3   7  -8 4376.95 467.937   5
   3  -7  -8 3666.60 532.251  10
   3   7  -8 4401.38 558.349  15
   3  -7  -8 4386.92 544.948   4
   3   7  -8 4264.57 450.961   7
   3  -7  -8 4252.51 420.013   6
   3   7  -7 36902.3 1466.37  15
   3  -7  -7 39449.5 1405.46   4
  -3   7   7 36301.2 1446.65  16
   3   7  -7 35013.6 1190.77   7
  -3   7   6 29664.7 1245.25  16
   3   7  -6 30414.1 1229.45  15
  -3   7   5 80757.9 1953.59  16
   3  -7  -5 77390.5 2279.36   2
   3   7  -5 79358.8 1814.63  15
   3  -7  -4 710.223 296.907   2
  -3   7   4 1087.53 301.010  16
   3   7  -4 1049.59 229.789   2
   3   7  -4 830.439 204.031  15
   3   7  -3 18823.0 922.994   2
  -3   7   3 20156.9 930.889  16
   3   7  -3 21377.3 789.671  15
   3   7  -3 20259.3 770.569  16
   3  -7  -3 20601.4 1056.30   2
   3  -7  -2 282.563 191.627   2
   3   7  -2 519.241 149.104  16
   3   7  -2 775.383 240.306   2
   3   7  -2 600.141 152.853  15
  -3   7   2 473.462 217.040  16
   3   7  -1 1312.46 238.019  16
  -3   7   1 1027.81 273.499  16
   3   7  -1 1226.64 167.536  15
   3  -7  -1 1292.39 293.508   2
   3   7   0 5286.12 445.310  16
   3  -7   0 5590.45 480.331   2
  -3   7   0 6545.06 568.682  16
   3   7   1 5154.27 482.448  16
  -3   7  -1 5068.89 549.601  16
   3  -7   1 5620.94 433.285   2
   3   7   2 73.6003 173.066  16
  -3   7  -2 88.8741 240.232  16
   3   7   3 41319.5 1566.90  16
  -3   7  -3 42889.1 1604.63   1
  -3   7  -4 10369.0 739.703  15
   3   7   4 10663.6 894.634  16
  -3   7  -4 10375.6 849.201   1
   3   7   5 14591.2 1126.16  16
  -3   7  -5 13972.4 897.015  15
  -3   7  -5 14352.9 1033.94   1
  -3   7  -6 10812.4 793.371  11
   3   7   6 11512.4 1073.58  16
  -3   7  -6 10763.4 846.214  15
  -3  -7  -6 11350.4 787.457   8
  -3   7  -6 10455.6 720.162  12
  -3   7  -6 11727.8 992.721   1
  -3   7  -7 71240.0 2017.17  11
  -3  -7  -7 68469.5 1866.21   8
  -3   7  -7 69510.9 1782.54  12
  -3   7  -8 11884.6 830.270  11
  -3  -7  -8 12789.8 791.817   8
  -3  -7  -9 40467.4 1247.00   8
  -3   7  -9 41060.5 1386.07  11
  -3  -7  -9 39118.6 1345.95   6
  -3  -7 -10 731.184 224.038   6
  -3  -7 -10 445.302 148.427   8
  -3   7 -10 140.575 176.536  11
   3   7  10 285.608 148.061  13
  -3   7 -11 16089.9 580.131  11
  -3   7 -11 15138.4 589.154   5
  -3  -7 -11 15488.1 599.543   6
   3  -8 -13 18257.9 589.269   4
   3   8 -13 18134.1 526.074   5
   3  -8 -12 1211.67 305.008   4
   3   8 -12 1995.91 272.463   5
   3  -8 -12 2066.38 232.198   6
   3   8 -12 1834.32 210.170   7
   3   8 -11 12405.6 655.137   7
   3   8 -11 13540.1 714.024   5
   3  -8 -11 13188.9 797.381   4
   3  -8 -11 13437.0 648.207   6
   3   8 -10 15116.3 795.000   7
   3  -8 -10 16762.7 977.573   4
   3  -8 -10 15624.5 757.566   6
   3   8 -10 15926.9 832.113   5
   3  -8  -9 1158.10 375.447   4
   3   8  -9 728.319 250.999   5
   3  -8  -9 1380.51 468.716  10
   3   8  -9 602.137 233.988   7
   3  -8  -9 838.013 181.067   6
   3   8  -8 2444.88 375.379   7
   3  -8  -8 3048.09 425.914   3
   3   8  -8 2702.50 372.625   5
   3  -8  -8 2178.53 453.990  10
   3  -8  -8 2623.97 450.415   4
   3   8  -7 254.371 148.317  11
   3  -8  -7 596.154 208.908   3
   3  -8  -7-54.4533 339.016  10
  -3   8   7-88.6699 165.066  16
   3   8  -7 175.490 205.159  15
   3  -8  -7 119.760 169.233   4
   3   8  -7-85.2099 149.939   7
   3   8  -6 39358.0 1450.65  15
  -3   8   6 40344.1 1537.14  16
  -3   8   5 36590.2 1408.58  16
   3   8  -5 36713.0 1300.51  15
   3   8  -4 4940.77 457.321  15
  -3   8   4 4707.05 524.992  16
   3  -8  -3 14994.8 962.396   2
   3   8  -3 14891.7 710.149  15
  -3   8   3 16129.0 900.603  16
   3   8  -3 17059.3 924.924   2
   3   8  -2 4196.05 474.491   2
   3  -8  -2 3652.84 488.583   2
   3   8  -2 3627.66 322.936  15
  -3   8   2 4174.76 486.618  16
   3   8  -2 3649.34 383.039  16
   3   8  -1 68505.5 1263.38  15
   3  -8  -1 69264.0 1839.64   2
  -3   8   1 70855.1 1877.57  16
   3   8  -1 70250.4 1618.94  16
   3   8   0 12222.9 719.383  16
  -3   8   0 12021.2 816.191  16
   3  -8   0 12200.7 737.933   2
   3   8   1 70887.9 1811.10  16
  -3   8  -1 70403.6 2013.49  16
  -3   8  -2 820.287 332.145  16
   3   8   2 1036.44 280.450  16
   3   8   3 27537.4 1332.75  16
  -3   8  -3 27163.8 1415.50  16
  -3   8  -4 7050.69 644.856  15
   3   8   4 6326.03 714.835  16
  -3   8  -4 6447.73 721.195   1
  -3  -8  -5 270.006 151.832   3
  -3   8  -5-83.9582 152.642  15
   3   8   5 315.355 251.755  16
  -3   8  -5 230.660 246.511  11
  -3   8  -5 684.584 309.647   1
  -3   8  -5 123.064 199.319  12
  -3   8  -6 36114.1 1422.91  11
  -3  -8  -6 35670.9 1380.48   8
  -3   8  -6 34892.8 1310.65  12
  -3   8  -7 18760.6 1042.79  11
  -3  -8  -7 18219.7 977.338   8
  -3   8  -7 17116.9 902.990  12
  -3   8  -8 34584.3 1346.32  11
  -3  -8  -8 34968.0 1250.21   8
  -3   8  -8 33196.3 1137.41  12
  -3   8  -9 8847.60 648.982  11
  -3  -8  -9 8278.32 551.707   8
  -3  -8  -9 7696.71 598.032   6
  -3  -8 -10 944.836 175.574   8
   3   8  10 913.990 201.717  13
  -3   8 -10 663.566 214.581  11
  -3  -8 -10 657.904 199.616   6
  -3   8 -11 10475.6 430.283  11
  -3   8 -11 11434.5 448.048   5
  -3   8 -11 10093.9 398.119   7
  -3  -8 -11 10863.2 448.805   6
   3  -9 -12 26188.0 878.211   4
   3   9 -12 25396.8 683.485   7
   3   9 -11 645.472 200.160   7
   3   9 -11 427.327 166.201   5
   3  -9 -11 410.605 252.957   4
   3   9 -10 1284.22 260.929   5
   3  -9 -10 1185.80 355.934   4
   3   9 -10 631.363 227.172   7
   3   9  -9 25524.3 1022.44   5
   3  -9  -9 25719.1 1240.09  10
   3  -9  -9 23462.1 1166.23   4
   3   9  -9 24824.9 1067.08   7
   3  -9  -9 23013.4 1047.04   3
   3   9  -8 4236.10 436.637   5
   3  -9  -8 3575.39 462.712   3
   3  -9  -8 3195.44 521.738  10
   3  -9  -8 4244.28 542.022   4
   3   9  -8 3545.39 437.869   7
   3  -9  -7-12.3822 126.215   3
  -3   9   7-377.516 312.357  16
   3  -9  -7 62.2460 350.934  10
   3  -9  -7-76.8337 192.281   4
   3   9  -7 279.867 191.556   7
   3   9  -7 328.924 201.646  15
   3  -9  -6 5271.70 520.195   4
   3  -9  -6 4069.72 488.540  10
  -3   9   6 4372.27 578.659  16
   3   9  -6 4192.64 437.142   7
   3   9  -6 5106.29 553.414  15
   3  -9  -6 4941.08 555.115   3
   3   9  -5 6122.63 567.489  15
  -3   9   5 5496.11 604.938  16
  -3   9   4 18782.2 1060.38  16
   3   9  -4 18837.0 917.996  15
   3   9  -3 3312.08 365.490  15
   3   9  -3 4140.06 495.413   2
  -3   9   3 4034.02 505.734  16
   3   9  -2 37191.7 1430.03   2
  -3   9   2 38079.1 1477.04  16
   3   9  -2 35136.1 1058.24  15
   3   9  -2 35357.2 1232.87  16
  -3   9   1 1408.26 349.679  16
   3   9  -1 1160.17 257.952  16
   3   9   0 86732.5 2043.35  16
  -3   9   0 93077.9 2369.06  16
   3   9   1 10425.5 746.681  16
  -3   9  -1 9660.18 824.352  16
   3   9   2 65701.1 1998.37  16
  -3   9  -2 71218.3 2275.04  16
   3   9   3 5037.78 612.086  16
  -3   9  -3 4912.31 657.569  16
  -3   9  -4 15447.0 889.416  11
  -3   9  -4 16180.4 1135.08   1
  -3   9  -4 14916.5 968.694  15
  -3  -9  -4 15679.0 930.639   3
   3   9   4 15648.8 1146.26  16
  -3   9  -4 16580.2 895.064  12
  -3   9  -5 11433.0 802.352  11
  -3  -9  -5 10319.8 793.478   3
  -3   9  -5 10196.7 836.158  15
   3   9   5 11233.6 1025.46  16
  -3   9  -5 11659.1 1014.32   1
  -3   9  -5 10907.9 763.116  12
  -3   9  -6 21319.0 1102.31  11
  -3  -9  -6 22867.1 1112.04   8
  -3   9  -6 21050.1 1036.00  12
  -3   9  -7 2598.30 443.210  11
  -3  -9  -7 2850.81 421.368   8
  -3   9  -7 2252.23 358.912  12
  -3   9  -8 16146.5 917.309  11
  -3  -9  -8 15435.3 814.609   8
  -3   9  -8 15525.4 762.405  12
  -3   9  -9 4839.57 475.981  11
   3   9   9 5442.60 465.909  13
  -3  -9  -9 4752.33 401.434   8
  -3  -9  -9 4449.23 442.507   6
  -3   9 -10 8915.12 507.762  11
  -3   9 -10 9263.64 480.083   5
   3   9  10 9789.03 483.425  13
  -3  -9 -10 8507.05 485.985   6
   3  10 -12 2516.54 213.619   7
   3 -10 -12 2110.39 272.084   4
   3  10 -11-192.462 150.610   7
   3  10 -11-83.6994 91.1380   5
   3 -10 -11 124.005 208.908   4
   3  10 -10 50158.0 1245.18   5
   3 -10 -10 50139.9 1533.99   4
   3  10 -10 46888.4 1313.53   7
   3 -10  -9 9159.68 720.794   4
   3  10  -9 9741.11 604.099   5
   3  10  -9 8759.83 637.525   7
   3 -10  -9 8455.40 651.880   3
   3 -10  -8 10529.3 800.351   4
   3  10  -8 10847.0 724.601   7
   3 -10  -8 10668.7 787.082   3
   3 -10  -7 244.932 300.383  10
   3  10  -7 573.745 223.275   7
   3 -10  -7 10.6985 144.094   3
   3 -10  -7 145.495 205.002   4
   3 -10  -6 59850.0 1878.04   3
   3 -10  -6 55255.1 1656.10  10
   3 -10  -6 55968.1 1729.81   4
  -3  10   6 55251.2 1975.91  16
   3  10  -6 54258.2 1554.53   7
   3  10  -6 55406.9 1829.14  15
   3  10  -5 5084.19 484.014   7
  -3  10   5 5193.56 639.941  16
   3  10  -5 4955.29 529.597  15
   3 -10  -5 5564.69 578.179   3
   3 -10  -5 5876.05 544.229   4
  -3  10   4 41185.8 1660.79  16
   3  10  -4 40128.0 1380.72  15
   3  10  -3 7056.43 554.211  15
  -3  10   3 7659.21 738.643  16
  -3  10   2 159.350 227.812  16
   3  10  -2 569.020 247.855   2
  -3  10   1 23251.8 1243.04  16
   3  10  -1 22663.2 1094.69  16
   3  10   0 18599.6 1022.31  16
  -3  10   0 20036.6 1187.04  16
  -3  10  -1 1771.33 427.488  16
   3  10   1 2076.52 383.992  16
   3  10   2 6858.07 704.842  16
  -3  10  -2 7146.46 827.137  16
  -3 -10  -3 169.916 205.532   3
   3  10   3 6.87717 144.489  16
  -3  10  -3 247.738 232.229  16
   3  10   3 301.622 164.799  12
  -3  10  -3 323.700 163.376  11
  -3  10  -3 7.15411 181.036  12
  -3  10  -4 54691.7 1684.79  11
  -3  10  -4 56399.3 1703.27  12
   3  10   4 51970.9 2081.10  16
  -3  10  -4 53763.0 1897.32  15
  -3 -10  -4 55326.7 1785.63   3
   3  10   4 55519.2 1481.33  12
  -3  10  -4 59665.8 2250.13   1
  -3 -10  -5 2483.64 411.375   3
  -3  10  -5 2104.83 398.082  11
  -3  10  -5 2383.47 387.114  12
  -3  10  -6 30664.7 1312.88  11
  -3 -10  -6 31067.6 1282.30   8
  -3  10  -6 30133.5 1223.04  12
  -3  10  -7 192.728 227.923  11
  -3 -10  -7 2.54763 229.219   8
  -3  10  -7 98.3621 176.963  12
  -3  10  -8 34475.7 1261.17  11
  -3  10  -8 34771.1 1083.58  12
  -3 -10  -8 31697.7 1140.52   6
  -3 -10  -8 33356.7 1129.52   8
  -3 -10  -9 380.487 177.229   6
  -3  10  -9 435.188 207.247  11
  -3 -10  -9 226.495 137.513   8
   3  10   9 346.310 214.744  13
  -3  10 -10 12789.1 543.693  11
  -3  10 -10 11777.1 432.757   5
  -3 -10 -10 10915.6 465.397   6
   3  10  10 12260.1 485.979  13
   3 -11 -12 1702.47 207.572   4
   3 -11 -11 10955.5 586.374   4
   3  11 -11 11153.8 521.615   7
   3  11 -10 7824.17 534.030   7
   3 -11 -10 8466.42 621.226   4
   3 -11  -9 4167.28 491.785   4
   3 -11  -9 4263.92 447.668   3
   3  11  -9 4184.64 455.374   7
   3 -11  -8-231.420 202.875   3
   3 -11  -8 14.6033 224.776   4
   3  11  -8 55.9799 197.377   7
   3  11  -7 22309.2 1032.50   7
   3 -11  -7 23158.0 1185.37   3
   3 -11  -7 25284.5 1158.08  10
   3 -11  -7 22650.0 1138.77   4
   3 -11  -6 1927.45 407.170   3
   3 -11  -6 3051.85 470.819  10
   3 -11  -6 1914.73 383.943   4
   3  11  -6 1954.79 360.856   7
   3 -11  -5 36545.3 1479.53   3
  -3  11   5 32782.5 1578.68  16
   3  11  -5 34562.9 1228.99   7
   3  11  -5 32499.7 1121.86  12
   3 -11  -5 36565.1 1353.03   4
   3 -11  -5 34503.8 1232.73   9
   3  11  -5 33417.2 1387.82  15
  -3  11   4 14367.5 1050.50  16
   3  11  -4 13256.1 828.482  15
   3  11  -4 14143.3 784.578   7
   3  11  -4 14009.4 755.381  12
   3 -11  -4 13813.0 793.942   9
   3 -11  -4 14666.6 932.970   3
   3  11  -3 53664.3 1458.53  12
  -3  11   3 52946.8 1990.31  16
   3 -11  -3 53457.0 1559.52   9
   3 -11  -3 55151.7 1746.57   3
  -3  11   2 6858.51 737.482  16
  -3  11   1 870.864 294.933  16
   3  11   0 13059.1 908.892  16
  -3  11   0 12237.8 991.460  16
   3  11   1 17701.5 1108.77  16
  -3  11  -1 18610.2 1279.11  16
  -3 -11  -1 18381.5 983.140   3
   3 -11   1 17620.8 896.845   9
   3  11   1 18793.3 881.040  12
  -3  11  -1 17324.3 908.739  12
   3  11   2 32815.4 1561.49  16
  -3  11  -2 32814.8 1747.97  16
   3 -11   2 29259.8 1160.90   9
   3  11   2 32056.4 1135.72  12
  -3  11  -2 29341.3 1209.60  12
  -3 -11  -2 29965.7 1287.48   3
  -3  11  -3 34670.5 1330.43  11
   3 -11   3 33080.2 1210.33   9
   3  11   3 34154.9 1655.03  16
  -3  11  -3 36895.1 1851.37  16
  -3 -11  -3 34295.3 1408.66   3
   3  11   3 35578.6 1202.78  12
  -3  11  -3 35957.6 1367.67  12
  -3 -11  -4 2761.77 455.930   3
  -3  11  -4 2712.38 426.876  11
   3  11   4 2707.08 359.418  12
  -3  11  -4 2874.44 442.940  12
  -3  11  -5 9245.10 727.169  11
  -3 -11  -5 9159.07 668.261   4
  -3 -11  -5 9287.70 786.897   3
  -3  11  -5 9103.92 713.697  12
  -3  11  -6 3008.90 441.627  11
  -3 -11  -6 2398.19 415.199   8
  -3  11  -6 2742.53 413.985  12
  -3  11  -7 14835.8 856.045  11
  -3  11  -7 14016.6 763.342  12
  -3 -11  -7 13804.3 789.260   8
  -3 -11  -8 84.3765 141.932   6
  -3  11  -8-162.389 179.894  11
  -3 -11  -8-195.939 172.613   8
  -3  11  -8 32.4298 75.6538  12
  -3  11  -9 5113.81 407.836  11
   3  11   9 5088.19 399.255  13
  -3 -11  -9 4596.27 325.592   8
  -3 -11  -9 4135.85 323.781   6
   3  11  10 2636.80 205.782  13
  -3  11 -10 2414.88 206.720   7
   3 -12 -11 5418.96 376.012   4
   3  12 -11 5228.81 321.751   7
   3  12 -10 148.848 138.305   7
   3 -12 -10-69.8666 180.040   4
   3  12  -9 4227.31 424.890   7
   3 -12  -9 3549.38 402.742   3
   3 -12  -9 4399.35 488.893   4
   3 -12  -8 422.152 225.350   3
   3 -12  -8 388.149 265.673   4
   3  12  -8 493.483 248.142   7
   3 -12  -7 1605.13 394.696   3
   3  12  -7 1796.70 344.958   7
   3 -12  -7 1637.54 389.995   4
   3 -12  -6-325.737 253.180   3
   3  12  -6 190.911 205.410   7
   3 -12  -6 216.804 203.055   4
   3  12  -6 447.468 158.922  12
   3 -12  -6 108.634 164.136   9
   3 -12  -5 40745.3 1356.22   9
   3 -12  -5 41395.3 1481.71   4
   3  12  -5 39688.6 1331.36   7
   3  12  -5 39713.8 1266.07  12
   3 -12  -5 40403.1 1592.55   3
   3  12  -4 1210.49 271.793   7
   3 -12  -4 1274.98 348.340   3
   3 -12  -4 1106.44 271.604   9
   3  12  -4 1525.06 288.712  12
   3  12  -3 17421.9 871.746  12
   3 -12  -3 15924.6 993.101   3
   3  12  -3 17461.2 835.060   7
  -3  12   3 17348.2 1219.61  16
   3 -12  -3 16471.4 909.468   9
  -3  12   2 6458.03 784.427  16
   3 -12  -2 5972.16 617.896   3
   3 -12  -2 5670.61 564.826   9
   3  12  -2 6077.63 524.459  12
  -3  12   1 33582.8 1702.22  16
   3 -12  -1 33053.2 1275.74   9
   3  12  -1 33739.2 1205.93  12
  -3  12   1 33454.2 1205.65  12
   3 -12  -1 33959.1 1357.12   3
   3 -12   0 7739.18 645.390   9
   3  12   0 7797.59 597.902  12
  -3  12   0 7693.40 854.426  16
  -3 -12   0 7553.37 654.289   3
  -3  12   0 7308.74 596.693  12
  -3 -12  -1 98207.0 2320.05   3
   3  12   1 92357.8 2599.13  16
  -3  12  -1 104957. 3087.55  16
   3 -12   1 99852.3 2180.48   9
   3  12   1 101151. 2072.47  12
  -3  12  -1 95514.8 2154.68  12
  -3 -12  -2 406.706 260.696   3
  -3  12  -2 883.617 260.293  11
   3 -12   2 253.320 213.387   9
   3  12   2 522.651 176.981  12
   3  12   2 1135.43 349.376  16
  -3  12  -2 251.593 159.560  12
  -3  12  -3 10224.2 760.745  11
   3  12   3 10570.4 676.251  12
   3 -12   3 9989.78 691.666   9
  -3  12  -3 9810.76 739.290  12
  -3 -12  -3 9798.54 783.916   3
  -3 -12  -4 2521.46 445.836   3
  -3  12  -4 2378.66 413.362  11
   3  12   4 2671.34 362.012  12
  -3  12  -4 2714.92 427.629  12
  -3  12  -5 15743.2 923.944  11
  -3 -12  -5 15582.5 839.042   4
  -3  12  -5 15546.9 913.000  12
  -3  12  -6 927.398 299.862  11
  -3  12  -6 696.359 279.173  12
  -3 -12  -6 772.680 294.735   8
  -3 -12  -7 57.3456 75.2394   6
  -3  12  -7 98.5668 192.007  11
  -3 -12  -7-131.121 194.765   8
  -3  12  -7-55.7415 185.065  12
  -3  12  -8 3588.46 383.303  11
  -3 -12  -8 3934.04 354.625   8
   3  12   8 4381.37 404.927  13
  -3  12  -8 4012.81 312.640  12
  -3  12  -9 8694.98 459.389  11
   3  12   9 8845.03 449.557  13
  -3  12  -9 8611.88 433.162   7
   3 -13 -11 9830.47 406.824   4
   3  13 -11 10458.0 359.841   7
   3 -13 -10 1076.30 226.955   4
   3  13 -10 1516.47 221.283   7
   3 -13  -9 10156.8 643.857   4
   3  13  -9 10279.1 580.444   7
   3 -13  -9 10045.5 610.956   3
   3 -13  -8 1562.04 326.084   3
   3  13  -8 1714.52 316.685   7
   3 -13  -8 1373.93 339.337   4
   3  13  -7 18700.4 883.708   7
   3 -13  -7 17889.8 1011.18   3
   3 -13  -7 19050.7 995.130   4
   3 -13  -6 1873.61 400.042   3
   3  13  -6 1550.01 254.110  12
   3 -13  -6 1639.71 278.589   9
   3  13  -6 1926.71 346.920   7
   3 -13  -6 1381.72 333.446   4
   3  13  -5 13194.5 739.113  12
   3 -13  -5 13525.1 805.054   9
   3 -13  -5 13445.9 865.013   4
   3  13  -5 15045.1 816.653   7
   3 -13  -5 14373.5 961.900   3
   3 -13  -4 472.622 280.903   3
   3 -13  -4 975.863 289.545   9
   3  13  -4 1146.45 265.339   7
   3  13  -4 1150.53 274.973  12
   3 -13  -3 7.57418 215.672   3
   3  13  -3-82.9822 175.601   7
   3 -13  -3-38.0586 175.638   9
   3  13  -3 165.090 167.564  12
  -3  13   2 18942.5 884.915  12
   3 -13  -2 18848.3 1051.34   3
   3 -13  -2 18279.2 977.630   9
   3  13  -2 18058.8 907.754  12
   3 -13  -1 27767.5 1216.83   3
   3  13  -1 27419.7 1114.99  12
  -3  13   1 27402.3 1111.83  12
   3 -13  -1 27300.8 1188.58   9
  -3 -13   0 59976.7 1784.24   3
   3 -13   0 59887.6 1745.19   9
  -3  13   0 61517.6 1710.14  12
   3  13   0 61225.6 1654.68  12
  -3  13  -1 5638.99 558.186  12
   3 -13   1 5928.73 576.891   9
  -3 -13  -1 6313.57 626.820   3
   3  13   1 6512.89 565.127  12
   3 -13   2 9718.99 702.258   9
  -3 -13  -2 9790.96 786.407   3
   3  13   2 10492.0 685.285  12
  -3  13  -2 10416.4 762.422  12
  -3  13  -3 9595.57 724.916  11
   3 -13   3 9452.48 671.536   9
   3  13   3 9715.27 646.693  12
  -3 -13  -3 8609.51 755.875   3
  -3  13  -3 9013.18 717.890  12
  -3 -13  -4-10.7471 278.658   3
  -3  13  -4 131.679 223.154  11
   3  13   4-116.798 173.820  12
  -3  13  -4-6.45205 247.542  12
  -3  13  -5 10399.6 720.675  11
  -3 -13  -5 10076.8 662.566   4
  -3  13  -5 10104.7 715.716  12
  -3  13  -6 1475.91 309.865  11
  -3 -13  -6 1631.68 333.209   8
  -3 -13  -6 1837.56 287.624   4
  -3  13  -6 1184.42 272.502  12
  -3  13  -7 24215.0 927.020  11
  -3  13  -7 22261.5 826.146  12
  -3 -13  -7 23227.0 874.404   8
   3  13   8 1915.63 271.790  13
  -3 -13  -8 1878.07 228.338   8
  -3  13  -8 1941.27 233.770   7
   3  13   9 4298.00 261.949  13
  -3  13  -9 4327.03 245.308   7
   3  14 -10 5226.67 306.573   7
   3 -14 -10 5297.18 332.540   4
   3 -14  -9 2479.58 294.696   3
   3  14  -9 1958.15 260.413   7
   3 -14  -9 2053.43 305.544   4
   3 -14  -8 35926.1 1176.58   4
   3  14  -8 37213.9 1072.65   7
   3 -14  -8 34625.3 1182.42   3
   3 -14  -7 256.184 242.720   3
   3  14  -7 333.937 224.226   7
   3 -14  -7 403.738 263.043   4
   3 -14  -6 48564.6 1358.74   9
   3  14  -6 50463.8 1385.92   7
   3 -14  -6 47423.8 1513.26   4
   3  14  -6 47712.8 1260.34  12
   3 -14  -6 48926.6 1648.32   3
   3 -14  -5 225.530 269.460   3
   3  14  -5 154.198 190.906   7
   3 -14  -5-65.8225 181.582   4
   3 -14  -5 232.183 200.064   9
   3  14  -5 167.470 175.686  12
   3  14  -4 8226.60 586.052   7
   3 -14  -4 7467.92 617.332   9
   3  14  -4 7390.80 577.617  12
   3 -14  -4 6962.74 678.406   3
   3 -14  -3 12.7466 211.030   3
   3  14  -3 222.982 198.300  12
   3 -14  -3-217.395 248.396   9
   3  14  -3 241.732 160.597   7
   3 -14  -2 6892.57 628.483   9
   3  14  -2 6990.28 590.225  12
  -3  14   2 7635.69 579.730  12
   3 -14  -2 7453.71 671.922   3
   3 -14  -1 1553.54 338.345   3
   3 -14  -1 1029.29 332.162   9
   3  14  -1 918.436 278.036  12
  -3  14   1 784.065 233.838  12
   3 -14   0 54.7542 219.622   9
   3  14   0 381.686 242.059  12
  -3  14   0 35.2323 204.048  12
  -3 -14  -1 1511.45 374.720   3
   3 -14   1 1182.47 331.358   9
   3  14   1 1409.79 325.910  12
  -3  14  -1 1587.65 351.724  12
   3 -14   2 9649.49 684.277   9
  -3 -14  -2 8925.20 739.831   3
  -3  14  -2 9899.50 729.593  12
   3  14   2 9583.27 653.950  12
  -3 -14  -3 4062.80 540.466   3
   3 -14   3 4651.73 465.330   9
   3  14   3 4575.32 458.052  12
  -3  14  -3 4164.50 505.172  12
  -3 -14  -4 9914.59 655.144   4
   3  14   4 9352.96 576.024  12
  -3  14  -4 9091.60 684.218  12
  -3 -14  -5 103.152 223.802   8
  -3 -14  -5 370.070 153.742   4
  -3  14  -5 207.429 226.873  12
  -3 -14  -6 29034.1 887.766   4
  -3 -14  -6 32661.2 1083.18   8
  -3  14  -6 31364.7 946.843   7
  -3  14  -6 32933.2 1059.53  12
  -3 -14  -7 930.431 191.224   8
   3  14   7 1176.81 232.368  13
  -3  14  -7 1115.56 195.748   7
  -3  14  -7 942.946 173.645  12
  -3  14  -8 11103.2 398.677   7
   3  14   8 11878.3 465.408  13
   3 -15  -9 1254.63 180.423   3
   3 -15  -9 1056.03 186.715   4
   3  15  -9 1176.01 173.167   7
   3 -15  -8 4561.98 403.418   4
   3  15  -8 4513.22 350.933   7
   3 -15  -8 4086.59 390.334   3
   3 -15  -7 5795.54 500.063   4
   3  15  -7 5832.88 430.241   7
   3 -15  -7 6416.82 542.546   3
   3 -15  -6 298.136 249.958   3
   3 -15  -6 478.712 225.565   4
   3  15  -6 401.733 195.411   7
   3  15  -6 653.241 179.855  12
   3 -15  -5 9069.33 663.946   4
   3 -15  -5 9606.40 626.750   9
   3  15  -5 9887.53 588.330   7
   3  15  -5 9480.38 582.021  12
   3 -15  -5 8617.05 722.038   3
   3 -15  -4 22884.2 1028.15   4
   3 -15  -4 22434.0 1010.24   9
   3  15  -4 24504.2 904.180   7
   3  15  -4 24265.0 978.573  12
   3 -15  -4 23033.9 1136.97   3
   3 -15  -3 142.022 255.172   3
   3 -15  -3 36.5972 227.774   9
   3  15  -3 52.8296 214.438  12
   3  15  -2 19629.2 930.251  12
   3 -15  -2 18072.5 953.855   9
  -3  15   2 19039.4 857.395  12
   3 -15  -2 18953.9 1013.30   3
   3 -15  -1-401.733 255.418   3
  -3  15   1-47.4262 143.688  12
   3 -15  -1 286.277 265.132   9
   3  15  -1 83.7983 185.206  12
   3 -15   0 47450.7 1510.92   9
   3  15   0 47238.9 1414.83  12
  -3  15   0 47782.5 1462.13  12
   3 -15   1 377.668 246.836   9
  -3  15  -1 361.795 236.116  12
   3  15   1 339.109 229.362  12
   3 -15   2 12331.7 731.901   9
  -3  15  -2 12038.6 767.237  12
   3  15   2 13015.6 719.755  12
   3 -15   3 9445.62 609.829   9
   3  15   3 9224.27 589.332  12
  -3  15  -3 10032.0 689.732  12
  -3 -15  -4 4503.57 446.538   4
  -3  15  -4 4498.80 456.463  12
   3  15   4 4424.82 376.697  12
   3  15   5 2963.54 324.449  13
  -3 -15  -5 2928.54 376.576   8
  -3 -15  -5 2437.23 302.669   4
  -3  15  -5 2526.62 338.621  12
  -3  15  -6 22.9806 95.5235   7
  -3 -15  -6-95.3041 149.173   8
  -3  15  -6 215.123 140.588  12
   3  15   6-127.680 145.440  13
  -3 -15  -7 1544.06 176.936   8
   3  15   7 1622.16 189.655  13
  -3  15  -7 1323.12 152.354  12
   3 -16  -8 2178.42 255.279   3
   3 -16  -8 1791.23 230.912   4
   3  16  -8 1872.65 188.901   7
   3 -16  -7 2175.23 305.869   3
   3 -16  -7 2522.46 303.861   4
   3  16  -7 2457.85 250.417   7
   3 -16  -6 16517.5 751.225   4
   3  16  -6 17169.0 644.831   7
   3  16  -6 16915.4 626.714  12
   3 -16  -6 16881.6 838.800   3
   3 -16  -5 592.336 249.594   3
   3 -16  -5 758.052 221.307   9
   3 -16  -5 714.831 242.655   4
   3  16  -5 736.945 167.403   7
   3  16  -5 757.279 202.736  12
   3 -16  -4 196.043 228.194   3
   3 -16  -4 593.854 224.734   9
   3 -16  -4 271.262 218.227   4
   3  16  -4 528.525 205.742  12
   3 -16  -3 13984.9 758.178   4
   3 -16  -3 16095.4 840.930   9
   3  16  -3 14682.2 755.917  12
   3 -16  -3 14909.7 865.674   3
   3 -16  -2 1213.87 314.810   3
   3 -16  -2 1758.21 347.819   9
   3  16  -2 1318.04 305.623  12
  -3  16   2 1252.07 229.194  12
   3 -16  -1 26792.7 1103.13   9
   3  16  -1 28054.5 1053.74  12
  -3  16   1 27541.3 1025.33  12
   3 -16  -1 28745.0 1100.03   3
   3 -16   0 328.700 229.533   9
   3  16   0 158.695 216.914  12
  -3  16   0 328.761 206.762  12
   3 -16   1 16426.5 838.488   9
  -3  16  -1 16548.3 836.319  12
   3  16   1 16069.9 784.562  12
   3 -16   2 9787.29 606.832   9
   3  16   2 9570.82 580.788  12
  -3  16  -2 9147.18 632.394  12
   3 -16   3 19631.8 764.565   9
   3  16   3 17449.1 718.452  12
  -3  16  -3 18678.5 852.479  12
  -3 -16  -4-113.856 121.620   4
   3  16   4 113.131 87.4412  12
  -3  16  -4 109.138 167.686  12
  -3  16  -5 1728.94 256.845  12
  -3 -16  -5 1852.22 264.360   8
  -3 -16  -5 1497.96 210.664   4
  -3 -16  -6 3637.97 281.374   8
  -3  16  -6 3880.51 272.686  12
   3 -17  -7 3507.34 266.898   4
   3 -17  -7 3698.04 321.232   3
   3 -17  -6-97.2339 132.648   4
   3 -17  -6 327.579 168.202   3
   3 -17  -5 24650.2 832.068   4
   3  17  -5 26089.6 766.600  12
   3 -17  -5 27429.6 996.216   3
   3 -17  -4 575.497 232.387   3
   3 -17  -4 253.157 181.712   9
   3  17  -4 805.842 207.008  12
   3 -17  -4 467.642 195.042   4
   3 -17  -3 13514.8 715.085   9
   3  17  -3 13126.2 650.459  12
   3 -17  -3 13006.4 719.588   3
   3 -17  -2 1202.04 249.042   3
   3 -17  -2 1290.48 286.350   9
   3 -17  -2 1123.71 233.719   4
   3  17  -2 1656.20 291.544  12
   3  17  -1 2305.07 307.712  12
   3 -17  -1 1597.16 313.310   9
  -3  17   1 1659.93 259.108  12
   3 -17   0 466.702 214.506   9
   3  17   0 407.525 187.139  12
  -3  17   0 370.341 173.738  12
   3 -17   1 3377.60 368.247   9
   3  17   1 3516.39 352.187  12
  -3  17  -1 3103.69 352.482  12
   3 -17   2 6747.46 449.817   9
   3  17   2 5746.53 412.504  12
  -3  17  -2 6326.44 479.480  12
  -3 -17  -3 15133.9 639.585   4
   3  17   3 14694.9 559.186  12
  -3  17  -3 16042.7 700.359  12
  -3 -17  -4-41.8932 88.4846   4
  -3 -17  -4-6.48966 137.705   8
  -3  17  -4 190.658 128.329  12
  -3 -17  -5 8322.95 400.994   8
  -3  17  -5 9320.28 405.255  12
   3 -18  -6 4941.32 333.079   3
   3  18  -5 2964.14 218.701  12
   3 -18  -5 3443.73 324.846   3
   3  18  -4 8138.85 413.351  12
   3 -18  -4 8370.72 485.263   3
   3  18  -3 11753.4 532.712  12
   3 -18  -3 13246.2 604.373   3
   3 -18  -2 4332.46 388.968   9
   3  18  -2 4366.18 356.721  12
   3  18  -1 4468.63 364.200  12
  -3  18   1 4098.09 297.589  12
   3 -18  -1 4384.63 397.773   9
   3 -18   0 236.804 175.180   9
   3  18   0 330.422 150.670  12
  -3  18   0 413.141 151.099  12
   3 -18   1 10453.5 524.402   9
   3  18   1 10328.5 492.683  12
  -3  18  -1 10562.5 519.996  12
  -3  18  -2 7152.54 415.890  12
   3 -18   2 7237.51 375.728   9
  -3 -18  -2 6555.02 393.098   4
   3  18   2 6306.81 347.130  12
  -3 -18  -3 2256.88 242.394   8
  -3 -18  -3 1445.26 183.135   4
  -3  18  -3 1939.80 222.368  12
  -3 -18  -4 6325.16 321.079   8
  -3  18  -4 7365.10 333.070  12
   3  19  -3 60.6688 80.1346  12
   3  19  -2 10628.2 430.820  12
   3  19  -1 101.595 95.3888  12
   3  19   0 23215.8 614.445  12
  -3 -19  -1 642.263 125.470   4
   3  19   1 728.933 111.955  12
  -3  19  -1 559.052 98.7912  12
  -3 -19  -2 7150.56 326.402   8
   4   0 -14 31.0580 63.3942   5
   4   0 -14 638.257 209.748   6
   4   0 -13 132.587 144.035   5
   4   0 -13-820.575 268.369   6
   4   0 -12 4792.57 473.893   5
   4   0 -12 4676.44 566.090  14
   4   0 -12 5251.06 515.355   6
   4   0 -11-311.617 405.541   4
   4   0 -11-930.293 304.049  10
   4   0 -11-140.974 184.957   5
   4   0 -11-10.8288 281.128  14
   4   0 -11-235.278 229.036   6
   4   0 -10 1597.63 381.748  10
   4   0 -10 2084.15 336.362   5
   4   0 -10 1726.04 391.665   4
   4   0 -10 2232.95 409.309  14
   4   0 -10 1931.52 342.346   6
   4   0  -9 330.525 196.562   5
   4   0  -9-109.885 153.260  10
   4   0  -9-272.982 246.389  15
   4   0  -9 347.213 288.931  14
   4   0  -9 286.745 217.110   6
   4   0  -8 39095.3 1548.71  15
   4   0  -7 156.508 170.422   2
   4   0  -7-43.8703 162.830  15
   4   0  -6 34514.3 1210.21  15
   4   0  -6 36245.1 1326.26   2
   4   0  -5-3.30225 143.952   2
   4   0  -5-31.2126 146.086  15
   4   0  -4 174540. 2760.99   2
   4   0  -4 170620. 2129.45  15
   4   0  -3 133.952 256.610   2
   4   0  -3 43.8843 106.421  15
  -4   0   2 261842. 1511.62   1
   4   0  -2 250558. 3126.10   2
  -4   0   1-7.95103 84.7002   1
   4   0  -1-25.4740 221.632   2
  -4   0   0 3551.14 298.264   1
   4   0   0 2725.65 374.274   2
  -4   0  -1-48.3397 149.768   1
   4   0   1 93.1576 175.875   2
  -4   0  -2 524.188 210.601   1
   4   0   2 651.357 218.882   2
  -4   0  -3-89.9235 226.240   1
   4   0   3-74.6077 143.497   2
  -4   0  -4 8124.95 676.122   1
  -4   0  -5-447.943 263.704   1
  -4   0  -6 78979.0 2404.55   1
  -4   0  -6 75177.7 1843.42   8
  -4   0  -7-593.256 260.030   8
  -4   0  -9-275.892 182.604   6
  -4   0  -9 267.176 219.208  11
  -4   0 -10 67919.4 1589.37  11
  -4   0 -10 71254.3 1491.73   6
  -4   0 -11 340.894 117.508   5
  -4   0 -11 192.080 95.1024   6
   4   1 -14 14129.6 510.039   5
   4   1 -14 14150.3 563.300   6
   4  -1 -14 14116.5 568.197   6
   4  -1 -13 1037.51 204.302   5
   4   1 -13 1053.25 229.259   5
   4   1 -13 684.331 274.721   6
   4  -1 -13 787.615 250.718   6
   4  -1 -12 13386.5 738.102   5
   4   1 -12 13382.7 758.226   5
   4  -1 -12 13474.2 753.565  10
   4  -1 -12 14208.8 916.962  14
   4  -1 -12 14365.4 861.685   4
   4   1 -12 13739.3 872.313  14
   4   1 -12 13967.7 810.338   6
   4  -1 -12 14017.0 802.776   6
   4  -1 -11 9838.77 689.060   5
   4   1 -11 10364.3 732.001   5
   4  -1 -11 9422.71 720.670  10
   4   1 -11 10636.0 829.964  14
   4   1 -11 12060.0 865.402   4
   4  -1 -11 10048.3 781.127   4
   4   1 -11 11072.6 760.596   6
   4  -1 -11 10589.6 735.169   6
   4  -1 -11 9532.61 812.793  14
   4  -1 -10 25610.2 1109.52   5
   4   1 -10 27070.7 1158.00   5
   4  -1 -10 24987.7 1180.26  10
   4  -1 -10 24733.6 1180.14   4
   4  -1 -10 27030.5 1292.74  14
   4  -1 -10 26026.3 1129.94   6
   4   1 -10 25686.7 1191.18   4
   4   1 -10 24349.4 1112.94   6
   4   1 -10 25257.9 1246.83  14
   4   1  -9 40013.7 1510.24  14
   4  -1  -9 41441.3 1372.34   5
   4   1  -9 44004.1 1435.52   5
   4  -1  -9 39216.1 1472.05  10
   4   1  -9 38657.5 1381.95  10
   4   1  -9 40849.2 1465.26   4
   4  -1  -9 38445.3 1423.58   4
   4   1  -9 44740.9 1787.65  15
   4  -1  -9 43884.5 1793.48  15
   4   1  -9 42250.6 1395.83   6
   4  -1  -9 41757.0 1386.49   6
   4  -1  -9 42386.7 1560.40  14
   4   1  -8 17781.3 1049.95  15
   4  -1  -8 17128.7 1040.62  15
   4   1  -7 48379.7 1566.80  15
   4  -1  -7 46644.0 1574.25  15
   4  -1  -7 47498.7 1623.66   2
   4   1  -7 46500.3 1489.62   2
   4   1  -6 6473.52 531.217  15
   4  -1  -6 5979.90 537.460  15
   4   1  -6 6673.85 574.998   2
   4  -1  -6 6338.18 583.200   2
   4  -1  -5 55748.9 1620.10   2
   4   1  -5 57161.2 1365.67  15
   4   1  -5 55574.2 1570.31   2
   4  -1  -5 55694.5 1405.81  15
   4   1  -4 5322.48 382.723  15
   4  -1  -4 5231.57 408.734  15
   4  -1  -4 4841.34 505.478   2
   4   1  -4 5318.10 520.707   2
   4  -1  -3 1991.38 362.525   2
   4   1  -3 1657.70 342.648   2
   4   1  -3 2341.62 235.204  15
   4  -1  -3 2141.12 252.063  15
  -4  -1   2 134747. 1111.51   1
   4   1  -2 134172. 1369.65  15
   4  -1  -2 133371. 2346.41   2
   4   1  -2 130840. 2253.23   2
  -4   1   2 137151. 1197.38   1
  -4   1   1 23388.6 639.240   1
   4  -1  -1 21773.6 938.606   2
   4   1  -1 22273.7 949.287   2
   4   1   0 204.517 227.536   2
   4  -1   0 260.360 215.422   2
  -4  -1   0 256.443 135.651   1
  -4   1   0 309.083 151.083   1
   4  -1   1 783.239 228.049   2
   4   1   1 395.474 237.745   2
  -4   1  -1 557.761 184.419   1
  -4  -1  -1 621.629 200.096   1
  -4   1  -2 104798. 1934.45   1
  -4  -1  -2 102649. 1934.19   1
   4  -1   2 103460. 1936.98   2
   4   1   2 104295. 2118.87   2
  -4   1  -3 8152.20 614.869   1
  -4  -1  -3 7360.57 597.020   1
   4  -1   3 8610.58 575.286   2
   4   1   3 8644.34 648.911   2
  -4   1  -4 84017.4 2101.25   1
  -4  -1  -4 82317.9 2104.41   1
  -4   1  -5 21054.9 1164.04   1
  -4  -1  -5 22030.9 1195.42   1
  -4   1  -6 17210.5 1131.66   1
  -4   1  -6 16767.7 890.793   8
  -4  -1  -6 18766.7 1206.06   1
  -4  -1  -6 17510.0 900.252   8
  -4  -1  -7 8748.26 683.054   8
  -4   1  -8 5691.66 514.890   6
  -4  -1  -8 4877.91 520.000   8
  -4   1  -9 15431.0 896.397  11
  -4  -1  -9 16820.5 868.499   6
  -4   1  -9 17885.5 837.275   6
  -4   1 -10 2116.99 322.345  11
  -4  -1 -10 2172.34 323.324  11
  -4   1 -10 2253.57 269.561   6
  -4  -1 -10 2214.03 306.749   6
  -4   1 -11 16695.7 601.693  11
  -4  -1 -11 16731.2 574.336   6
   4   2 -14 669.719 148.045   5
   4  -2 -14 706.903 188.623   6
   4  -2 -13 32676.1 906.122   5
   4   2 -13 33322.3 1024.98   5
   4   2 -13 32943.2 1042.41   6
   4  -2 -13 33650.3 1062.68   6
   4  -2 -12 200.283 137.846   5
   4   2 -12 87.6020 221.401   5
   4  -2 -12-174.143 355.507   4
   4   2 -12 340.672 279.472  14
   4  -2 -12 295.355 218.089   6
   4  -2 -11 20975.8 969.230   5
   4   2 -11 21605.8 1033.54   5
   4  -2 -11 20959.0 1053.68  10
   4  -2 -11 23312.1 1207.19  14
   4   2 -11 22867.4 1167.29  14
   4  -2 -11 21265.8 1094.00   4
   4  -2 -11 22425.8 1045.26   6
   4   2 -11 23546.7 1075.67   6
   4   2 -10 12644.2 811.644   5
   4  -2 -10 11348.0 839.142  10
   4  -2 -10 12674.9 777.791   5
   4   2 -10 12745.0 889.414   4
   4  -2 -10 10767.3 829.031   4
   4   2 -10 12036.0 873.199  14
   4  -2 -10 10850.7 833.180  14
   4   2 -10 12295.5 805.480   6
   4  -2 -10 11887.3 766.644   6
   4  -2  -9 71186.9 1766.73   5
   4   2  -9 74113.6 1870.01   5
   4  -2  -9 72903.6 2028.74  10
   4   2  -9 70521.7 1901.77   4
   4  -2  -9 73561.7 1947.06   4
   4   2  -9 73166.1 2274.80  15
   4  -2  -9 76520.5 2398.61  15
   4  -2  -9 72971.6 2046.13  14
   4  -2  -9 74217.1 1834.69   6
   4   2  -9 68274.4 1782.44   6
   4   2  -9 72277.7 2003.90  14
   4  -2  -8 3151.52 490.531   2
   4  -2  -8 1944.84 399.438  15
   4   2  -8 2394.65 421.637  15
   4  -2  -7 52.5614 156.415   2
   4   2  -7-17.3899 129.729  15
   4  -2  -7-80.9249 184.502  15
   4  -2  -6 1588.29 338.446   2
   4   2  -6 1271.08 288.153   2
   4   2  -6 1431.86 283.300  15
   4  -2  -6 1779.34 328.847  15
   4  -2  -5 593.120 259.823   2
   4   2  -5 459.517 212.906   2
   4   2  -5 449.642 166.724  15
   4  -2  -5 432.546 205.454  15
   4   2  -4 21670.1 743.967  15
   4  -2  -4 21497.4 1012.92   2
   4   2  -4 21813.9 1001.69   2
   4  -2  -4 21030.8 816.114  15
   4   2  -3 16492.7 566.589  15
  -4   2   3 17149.6 488.327  16
   4  -2  -3 16625.7 884.222   2
   4   2  -3 16997.2 866.195   2
  -4   2   2 3923.65 272.703  16
   4   2  -2 4289.37 240.674  15
   4  -2  -2 4028.30 474.469   2
  -4   2   2 4056.80 253.278   1
   4   2  -2 4145.32 461.415   2
   4   2  -1 58824.4 794.030  16
  -4   2   1 58762.3 1125.52  16
   4  -2  -1 58765.3 1569.05   2
  -4   2   1 60391.4 1098.28   1
  -4  -2   1 61235.2 1084.62   1
   4   2  -1 60073.7 1574.87   2
  -4  -2   0 5221.96 390.217   1
   4  -2   0 4579.82 456.392   2
  -4   2   0 4564.80 365.566   1
   4   2   0 4430.14 501.396   2
  -4  -2  -1 111899. 1873.08   1
   4  -2   1 106380. 1942.85   2
  -4   2  -1 105256. 1825.75   1
   4   2   1 107355. 2147.59   2
   4   2   2 984.299 287.486   2
   4  -2   2 973.163 221.992   2
  -4   2  -2 827.916 161.007  15
  -4   2  -2 757.962 240.714   1
  -4  -2  -2 794.749 249.211   1
  -4  -2  -3 196775. 3045.04   1
  -4   2  -3 200543. 3002.85   1
   4   2   3 204994. 3138.37   2
  -4   2  -4 18987.8 1024.69   1
  -4  -2  -4 19098.2 1056.59   1
   4   2   4 20873.0 1049.52   2
  -4   2  -5 4257.95 550.489   1
  -4  -2  -5 3306.73 526.154   1
  -4  -2  -6 2941.66 496.661   1
  -4   2  -6 2528.36 470.342   1
  -4  -2  -6 3296.45 413.751   8
  -4   2  -6 2087.75 346.790  12
   4   2   7 22747.6 1010.30  13
  -4  -2  -7 23535.1 1095.73   8
  -4   2  -7 20676.0 976.690  12
  -4   2  -8 6100.29 622.238  11
  -4  -2  -8 5577.42 548.015   8
  -4   2  -9 10769.7 752.775  11
  -4  -2  -9 12081.5 753.285   6
  -4   2 -10 4239.00 428.286  11
  -4  -2 -10 3656.53 379.449  11
  -4  -2 -10 4159.75 399.331   6
  -4   2 -11 8429.39 430.650  11
  -4  -2 -11 7804.37 414.734   6
   4  -3 -14 3287.11 283.153   6
   4   3 -14 3024.88 248.320   5
   4   3 -13 511.267 191.210   5
   4  -3 -13 172.697 243.511   6
   4  -3 -12 6162.66 593.410   4
   4  -3 -12 7334.21 504.394   5
   4   3 -12 6787.94 555.876   5
   4   3 -12 7230.58 623.073  14
   4   3 -12 5782.16 548.799   6
   4  -3 -12 7063.18 557.477   6
   4  -3 -11 221.007 176.061   5
   4  -3 -11-20.0960 362.600  10
   4   3 -11 415.259 251.210   5
   4   3 -11 363.241 270.456  14
   4  -3 -11 477.347 349.887  14
   4  -3 -11-79.6668 426.932   4
   4   3 -11-184.009 348.894   6
   4  -3 -11 337.796 232.850   6
   4  -3 -10 114.213 189.832   6
   4  -3 -10-144.457 150.844   5
   4  -3 -10-219.739 392.459  10
   4   3 -10 59.3409 211.010   5
   4  -3 -10 4.00145 234.185   4
   4   3 -10 223.237 275.266  14
   4  -3 -10 33.4417 282.171  14
   4   3 -10 147.987 210.662   6
   4  -3  -9 48368.1 1441.67   5
   4   3  -9 50360.0 1552.02   5
   4  -3  -9 50502.3 1716.28  10
   4   3  -9 50099.2 1635.23   4
   4  -3  -9 50374.0 1723.01  14
   4   3  -9 50633.3 1694.75  14
   4   3  -9 54251.3 1947.07  15
   4  -3  -9 48661.2 1607.79   4
   4   3  -9 50717.8 1546.64   6
   4  -3  -9 50799.3 1512.23   6
   4  -3  -9 52711.1 2011.50  15
   4  -3  -8 5375.70 623.966   2
   4  -3  -8 4901.47 601.623  15
   4   3  -8 5191.91 589.391  15
   4   3  -7 42934.0 1469.47  15
   4  -3  -7 41902.8 1644.63   2
   4  -3  -7 44009.0 1588.71  15
   4   3  -6 21201.4 943.514  15
   4  -3  -6 20984.3 1010.41  15
   4  -3  -6 21323.1 1118.18   2
   4   3  -6 21401.6 953.265   2
   4  -3  -5 64831.4 1624.08  15
   4   3  -5 67358.2 1486.79  15
   4  -3  -5 65344.2 1858.48   2
   4   3  -5 65832.8 1705.75   2
   4  -3  -4 3866.71 472.598   2
   4   3  -4 4092.34 340.375  15
   4   3  -4 3688.55 451.034   2
  -4   3   4 3771.07 286.475  16
  -4   3   3 96646.0 1371.91  16
   4   3  -3 94104.9 1327.20  15
   4  -3  -3 95805.3 2088.09   2
   4   3  -3 93644.1 1991.52   2
  -4   3   2 4926.93 339.872  16
   4   3  -2 4582.55 244.526  15
   4  -3  -2 4842.59 505.374   2
   4   3  -2 4222.59 479.958   2
  -4  -3   1 24265.9 739.940   1
  -4   3   1 24099.7 762.275   1
   4   3  -1 23530.9 540.610  16
   4  -3  -1 23635.9 1024.28   2
   4   3  -1 22749.7 1031.35   2
  -4   3   1 23805.2 785.392  16
   4  -3   0 23295.0 969.438   2
  -4   3   0 24003.6 836.528   1
  -4   3   0 23896.8 868.150  16
  -4  -3   0 23315.5 824.655   1
   4   3   0 22662.2 1014.86   2
   4  -3   1 34386.3 1124.92   2
  -4  -3  -1 33510.2 1090.46   1
  -4   3  -1 33103.1 1076.49   1
   4   3   1 33608.6 1239.03   2
   4   3   2 44960.8 1461.32   2
  -4  -3  -2 46724.6 1422.04   1
   4  -3   2 46335.2 1253.70   2
  -4   3  -2 44301.6 1348.72   1
  -4  -3  -3 90.7446 192.008   1
   4   3   3 201.119 208.514   2
  -4   3  -3 102.605 116.873  15
  -4   3  -3-153.587 211.963   1
  -4  -3  -4 13862.6 935.652   1
  -4   3  -4 13679.6 889.702   1
   4   3   4 14079.5 893.909   2
  -4   3  -5 42714.9 1676.67   1
  -4  -3  -5 44080.1 1789.32   1
  -4  -3  -6 343.348 185.593   8
  -4   3  -6 82.4936 222.193   1
  -4  -3  -6 142.094 181.900   1
  -4   3  -6 540.938 218.162  12
  -4   3  -7 34660.5 1404.33  11
  -4  -3  -7 34142.2 1308.18   8
   4   3   7 35179.7 1274.79  13
  -4   3  -7 34226.5 1251.66  12
  -4   3  -8 52.5708 201.749  11
   4   3   8 123.144 199.066  13
  -4  -3  -8 4.43470 220.777   8
  -4   3  -9 30422.8 1226.54  11
  -4  -3  -9 30034.7 1174.08   6
  -4  -3 -10 131.922 154.455   6
  -4   3 -10 203.115 169.454  11
  -4  -3 -10 70.5282 111.949  11
  -4   3 -11 10430.3 471.925  11
  -4  -3 -11 10763.5 487.837   6
   4   4 -14 129.317 92.2510   5
   4  -4 -14 267.704 149.242   6
   4   4 -13 6430.68 460.584   5
   4  -4 -13 5710.65 447.517   6
   4   4 -12 1286.22 336.166   5
   4   4 -12 1272.85 286.096  14
   4  -4 -12 829.522 314.714   4
   4   4 -12 1601.55 332.436   6
   4  -4 -12 1463.87 279.874   6
   4   4 -11 9036.52 680.190   5
   4  -4 -11 7104.29 686.820  10
   4  -4 -11 8056.98 702.743   4
   4   4 -11 8497.23 689.498  14
   4   4 -11 7648.51 635.730   6
   4  -4 -11 8493.63 637.063   6
   4  -4 -10 2779.25 479.178  10
   4   4 -10 3578.92 457.593   5
   4  -4 -10 3431.62 529.666  14
   4   4 -10 3329.38 513.083  14
   4  -4 -10 3570.05 491.351   4
   4   4 -10 2605.51 439.027   6
   4  -4 -10 2795.06 399.780   6
   4  -4  -9 1352.28 378.412  10
   4   4  -9 1970.42 337.090   5
   4   4  -9 1776.53 410.367  14
   4  -4  -9 1256.80 354.316  14
   4   4  -9 1005.29 309.056  15
   4  -4  -9 1089.13 316.775   4
   4   4  -9 696.524 320.511   6
   4  -4  -9 1248.30 283.810   6
   4   4  -8 39917.2 1327.20   5
   4  -4  -8 38802.4 1479.53  10
   4   4  -8 42249.1 1424.24   4
   4   4  -8 37112.0 1402.06  14
   4   4  -8 37692.9 1520.43  15
   4  -4  -8 39373.0 1409.12   4
   4  -4  -7 2023.74 409.120   2
   4   4  -7 1781.68 319.756  15
   4   4  -6 13269.9 760.470  15
   4  -4  -6 13630.5 936.426   2
   4   4  -5 35441.0 1098.58  15
   4  -4  -5 35810.9 1439.85   2
   4   4  -5 35867.1 1268.15   2
  -4   4   5 36252.0 1015.13  16
  -4   4   4 152343. 1997.26  16
   4   4  -4 148943. 1980.90  15
   4  -4  -4 147426. 2761.95   2
  -4   4   3 3917.64 333.397  16
   4   4  -3 4358.43 300.129  15
   4  -4  -3 3838.22 469.546   2
   4   4  -3 4100.23 462.625   2
   4   4  -2 102327. 1160.62  15
   4  -4  -2 100863. 2122.87   2
   4   4  -2 99559.2 2151.43   2
   4   4  -1 222807. 1849.97  16
   4  -4  -1 225078. 3102.97   2
   4   4  -1 224880. 3204.30   2
  -4  -4   0 26447.7 929.041   1
   4   4   0 26530.3 812.484  16
   4   4   0 26624.6 1117.14   2
  -4   4   0 27509.3 1012.59  16
   4  -4   0 26615.7 1031.95   2
  -4   4  -1 533.536 213.408   1
   4  -4   1 687.386 207.421   2
   4   4   1 1290.07 324.833   2
  -4  -4  -1 540.662 221.315   1
  -4  -4  -2 1617.99 325.563   1
   4  -4   2 1570.90 258.240   2
  -4   4  -2 1222.66 288.141   1
  -4   4  -3 45696.5 1202.28  15
  -4   4  -3 43813.5 1507.85   1
  -4  -4  -3 46599.5 1622.31   1
   4   4   4 33370.2 1432.82   2
  -4  -4  -4 31430.8 1455.48   1
  -4   4  -4 33746.4 1419.97   1
  -4   4  -5 15856.9 1051.87   1
   4   4   5 16245.9 1054.64   2
  -4  -4  -5 15949.7 1127.88   1
  -4   4  -6 31423.6 1314.62  11
  -4   4  -6 34064.9 1623.79   1
  -4  -4  -6 32727.3 1269.98   8
  -4   4  -6 30728.1 1225.18  12
  -4  -4  -6 32923.4 1700.90   1
  -4   4  -7 2909.57 450.691  11
   4   4   7 3615.88 450.664  13
  -4   4  -7 2713.71 400.621  12
  -4  -4  -7 3564.34 462.775   8
  -4   4  -8 10998.5 794.066  11
  -4  -4  -8 11593.4 762.947   8
   4   4   8 12380.6 758.243  13
  -4   4  -9 5744.35 553.152  11
  -4  -4  -9 5278.80 493.056   8
   4   4   9 5783.76 464.347  13
  -4  -4  -9 5767.33 536.317   6
  -4   4 -10 17396.5 795.957  11
  -4  -4 -10 17626.4 786.074   6
  -4   4 -11 8.78026 89.4603  11
  -4  -4 -11 290.287 123.824   6
   4   5 -14 13327.1 437.924   5
   4  -5 -13-18.7918 220.354   4
   4   5 -13 80.0294 148.017   5
   4  -5 -13-198.103 208.105   6
   4   5 -12 18810.3 864.763   5
   4  -5 -12 18548.0 903.023   4
   4   5 -12 17775.0 845.447  14
   4   5 -12 18791.2 838.951   6
   4  -5 -12 18851.2 825.789   6
   4  -5 -11 812.101 386.327  10
   4   5 -11 1393.16 315.097   5
   4   5 -11 1119.89 326.494  14
   4  -5 -11 912.739 334.262   4
   4   5 -11 736.932 333.034   6
   4  -5 -11 1210.49 288.310   6
   4   5 -10 39013.8 1383.38   5
   4  -5 -10 38709.4 1530.19  10
   4  -5 -10 41381.4 1512.62   4
   4   5 -10 38889.8 1211.63   7
   4   5 -10 38127.8 1356.55   6
   4  -5 -10 40433.3 1349.73   6
   4   5 -10 39240.6 1461.32  14
   4  -5  -9 387.964 331.854  14
   4  -5  -9-141.588 410.153  10
   4   5  -9 341.387 205.666   5
   4  -5  -9 551.737 224.473   6
   4   5  -9 702.600 307.276  14
   4  -5  -9 606.256 296.233   4
   4   5  -9-46.6600 95.3177   7
   4   5  -8 23533.7 1028.37   5
   4  -5  -8 23939.4 1196.68  10
   4   5  -8 22788.7 1195.40  15
   4   5  -8 24510.7 1129.76  14
   4  -5  -8 23093.4 1137.16  14
   4   5  -8 21028.8 919.676   7
   4  -5  -8 23630.0 1112.01   4
   4   5  -8 22080.5 1017.63   6
   4  -5  -8 22199.9 950.114   6
   4  -5  -7 572.811 275.380   2
   4   5  -7 538.063 224.257  15
   4  -5  -6 2829.65 458.033   2
   4   5  -6 3186.23 388.703  15
   4  -5  -5 659.616 281.710   2
   4   5  -5 621.774 228.882   2
   4   5  -5 464.343 178.884  15
  -4   5   5 597.425 190.655  16
   4  -5  -4 1406.87 348.058   2
   4   5  -4 1467.50 227.059  15
  -4   5   4 1331.37 232.773  16
   4   5  -4 1933.76 359.097   2
   4  -5  -3 62.4193 220.361   2
   4   5  -3 189.056 96.1186  15
   4   5  -3 249.775 214.340   2
  -4   5   3 85.0357 111.843  16
  -4   5   2 71785.3 1518.82  16
   4   5  -2 73900.0 1049.26  15
   4  -5  -2 69533.2 1819.97   2
   4   5  -2 73071.3 1899.66   2
   4   5  -1 46448.8 959.409  16
  -4   5   1 46349.7 1275.37  16
   4  -5  -1 45067.3 1406.36   2
   4   5  -1 45797.5 1490.86   2
   4   5   0 69029.0 1850.11   2
   4   5   0 69980.5 1399.33  16
   4  -5   0 70318.1 1686.92   2
  -4   5   0 70173.4 1688.31  16
   4   5   1 4389.81 420.484  16
  -4  -5  -1 3829.62 429.803   1
  -4   5  -1 4453.10 494.570  16
  -4   5  -1 4399.11 456.357   1
   4  -5   1 4095.33 390.431   2
  -4  -5  -2 94733.1 2206.62   1
   4   5   2 98954.6 2154.61  16
  -4   5  -2 94830.5 2175.98   1
  -4  -5  -3 4306.51 542.700   1
  -4   5  -3 4507.73 417.604  15
  -4   5  -3 4166.13 519.861   1
  -4  -5  -4 35259.6 1609.89   1
  -4   5  -4 38309.6 1255.59  15
  -4   5  -4 38422.1 1575.16   1
  -4   5  -5 3750.50 485.409  11
  -4  -5  -5 4484.67 493.536   8
   4   5   5 4280.95 554.959   2
  -4  -5  -5 3227.52 563.483   1
  -4   5  -5 4107.31 561.725   1
  -4   5  -6 56862.5 2117.33   1
  -4   5  -6 54380.9 1739.96  11
  -4  -5  -6 57449.1 2311.47   1
  -4  -5  -6 56511.1 1685.52   8
  -4   5  -6 52306.4 1615.37  12
  -4   5  -7 7224.13 680.551  11
  -4  -5  -7 8038.85 663.440   8
  -4   5  -7 6613.49 582.142  12
  -4   5  -8 4501.95 522.233  11
  -4  -5  -8 4312.26 471.761   8
   4   5   8 4780.42 499.558  13
  -4   5  -8 4262.08 440.056  12
  -4  -5  -9-96.3508 201.130   6
  -4   5  -9 191.300 181.714  11
  -4  -5  -9-52.2003 182.232   8
   4   5   9 325.838 178.798  13
  -4  -5 -10 539.229 199.618   6
  -4   5 -10 248.675 181.084  11
  -4   5 -11 103.884 83.0047  11
  -4   5 -11 67.8555 96.3830   5
  -4  -5 -11 115.804 97.4104   6
   4   6 -13 20818.1 714.912   5
   4  -6 -13 19255.9 716.274   4
   4  -6 -13 18714.8 644.191   6
   4   6 -12 294.693 185.505   5
   4   6 -12 341.062 186.091  14
   4  -6 -12-82.1419 340.532   4
   4  -6 -12 345.437 150.228   6
   4   6 -11 8217.91 622.737   5
   4  -6 -11 9844.67 777.189  10
   4  -6 -11 7780.10 654.606   4
   4   6 -11 7760.82 613.001  14
   4   6 -11 8016.42 514.711   7
   4   6 -11 9085.07 683.101   6
   4  -6 -11 8191.72 576.070   6
   4   6 -10 7362.19 610.801   5
   4  -6 -10 5576.16 642.880  10
   4   6 -10 6569.75 602.943  14
   4  -6 -10 6637.24 640.715   4
   4   6 -10 6840.30 529.683   7
   4   6 -10 6526.11 616.531   6
   4  -6 -10 7545.26 584.631   6
   4   6  -9 18590.7 945.602   5
   4  -6  -9 17737.8 1086.59  10
   4  -6  -9 18938.9 1057.42   4
   4   6  -9 18561.8 893.495   7
   4   6  -9 17941.8 956.208   6
   4  -6  -9 18182.6 880.942   6
   4   6  -9 18629.6 1006.38  14
   4   6  -8 7763.36 602.499   5
   4  -6  -8 6473.21 681.649  10
   4   6  -8 7209.91 696.303  15
   4  -6  -8 8493.76 687.654   4
   4  -6  -8 7985.10 698.307  14
   4   6  -8 7502.16 657.888  14
   4   6  -8 6518.05 541.646   7
   4   6  -8 7104.80 625.962   6
   4  -6  -8 7555.72 552.282   6
   4  -6  -7 9120.48 901.027   2
   4   6  -7 9909.33 742.025  15
   4  -6  -6 31890.4 1549.28   2
   4   6  -6 32020.4 1217.58  15
   4  -6  -5 186.072 230.007   2
  -4   6   5 22.4201 148.242  16
   4   6  -5 181.554 139.754  15
  -4   6   4 56113.8 1468.66  16
   4   6  -4 55063.9 1301.36  15
   4  -6  -4 52658.4 1798.22   2
   4   6  -4 54578.7 1625.94   2
   4  -6  -3 1244.81 315.416   2
  -4   6   3 1160.14 251.638  16
   4   6  -3 1286.66 296.677   2
   4   6  -3 1522.12 204.881  15
   4   6  -2 129696. 2610.30   2
   4  -6  -2 130776. 2568.21   2
   4   6  -1 80086.0 2029.50   2
   4  -6  -1 78344.9 1927.01   2
  -4   6   1 83162.6 1840.61  16
   4   6   0 35535.8 1060.23  16
  -4   6   0 36846.5 1299.87  16
   4  -6   0 36259.2 1244.74   2
   4   6   1 29710.6 1107.91  16
  -4   6  -1 29779.2 1276.28  16
   4  -6   1 29385.8 1064.70   2
  -4   6  -2 3204.06 462.132   1
   4   6   2 3709.52 465.572  16
   4   6   3 36800.1 1502.91  16
  -4  -6  -3 38168.9 1590.42   1
  -4   6  -3 36397.3 1239.61  15
  -4   6  -3 38036.8 1535.44   1
   4   6   4 2008.98 403.604  16
  -4   6  -4 1592.93 325.643  15
  -4   6  -4 1791.92 382.784   1
  -4  -6  -4 1655.14 395.880   1
  -4   6  -5 45363.0 1548.59  11
  -4  -6  -5 47928.9 1554.33   8
   4   6   5 44883.8 1943.93  16
  -4  -6  -5 46203.9 2032.41   1
  -4   6  -5 45395.5 1516.10  12
  -4   6  -5 44972.9 1845.13   1
  -4   6  -6 1500.63 364.323  11
  -4  -6  -6 1649.58 352.476   8
  -4   6  -6 1071.35 286.656  12
  -4   6  -7 1532.74 367.058  11
  -4  -6  -7 1178.50 326.427   8
  -4   6  -7 1666.31 329.473  12
  -4   6  -8 16987.8 961.571  11
   4   6   8 17008.9 884.716  13
  -4  -6  -8 16983.1 887.859   8
  -4   6  -8 15484.9 797.380  12
  -4  -6  -9 68.9299 216.289   6
  -4   6  -9 26.3741 200.856  11
  -4  -6  -9 233.716 179.604   8
   4   6   9 179.487 168.215  13
  -4   6 -10 41620.8 1127.44  11
   4   6  10 42247.1 904.812  13
  -4  -6 -10 41874.3 1127.19   6
  -4   6 -11 625.200 115.002  11
  -4   6 -11 842.382 146.957   5
  -4  -6 -11 770.339 137.718   6
   4   7 -13 2249.23 242.360   5
   4  -7 -13 2261.68 273.997   4
   4  -7 -12-269.959 308.960   4
   4   7 -12 244.676 171.952   5
   4   7 -11 7890.13 589.926   5
   4   7 -11 6872.05 556.038  14
   4   7 -11 7089.81 486.258   7
   4  -7 -11 8415.66 658.244   4
   4  -7 -11 8247.47 541.375   6
   4   7 -10 4666.17 489.223   5
   4   7 -10 4397.00 442.563   7
   4  -7 -10 4320.16 580.053  10
   4  -7 -10 4903.40 550.855   4
   4   7 -10 4231.08 489.010  14
   4  -7 -10 4383.41 428.857   6
   4  -7  -9 8344.95 589.436   6
   4   7  -9 7688.79 613.727   5
   4  -7  -9 7004.97 709.550  10
   4  -7  -9 8157.94 705.884   4
   4   7  -9 6678.76 619.966  14
   4   7  -9 6608.83 562.336   7
   4   7  -9 7852.04 687.830   6
   4  -7  -8-136.524 129.612   3
   4   7  -8 90.0732 158.742   5
   4   7  -8 788.072 236.920  15
   4   7  -8 173.553 151.524  14
   4  -7  -8 135.275 184.716   4
   4   7  -8-196.602 148.733   7
   4   7  -8 1056.32 364.176   6
   4   7  -7 21981.3 938.085   5
   4  -7  -7 21482.0 1107.73  10
   4   7  -7 20977.7 1095.48  15
   4   7  -7 21109.0 939.932   7
   4   7  -7 20413.4 1012.81  14
   4  -7  -7 21153.5 1021.49   4
   4  -7  -7 21102.9 1069.24   3
   4  -7  -6 358.792 243.487   2
   4   7  -6 584.650 227.536  15
  -4   7   5 165183. 2784.77  16
   4   7  -5 167706. 2600.14  15
   4  -7  -5 159510. 3432.95   2
   4   7  -4 5536.10 442.458  15
  -4   7   4 5926.85 539.352  16
   4  -7  -4 5205.49 620.701   2
   4   7  -4 5808.73 560.152   2
  -4   7   3 39929.0 1349.57  16
   4   7  -3 38947.0 1017.47  15
   4  -7  -3 36410.2 1491.43   2
   4   7  -3 38244.4 1465.69   2
  -4   7   2 44961.6 1419.16  16
   4  -7  -2 42113.6 1529.61   2
   4   7  -2 43119.6 1551.44   2
   4   7  -1 96219.6 2329.37   2
  -4   7   1 97255.5 2162.90  16
   4  -7  -1 96888.8 2218.56   2
   4   7   0 5032.96 451.280  16
   4  -7   0 5657.57 525.272   2
  -4   7   0 5705.15 590.124  16
   4   7   1 10905.3 702.334  16
  -4   7  -1 11840.6 870.824  16
   4   7   2 2067.20 367.696  16
  -4   7  -2 1953.99 393.496  16
  -4   7  -2 2090.11 399.575   1
   4   7   3 38539.2 1591.94  16
  -4   7  -3 38701.6 1619.97   1
   4   7   4 3228.44 491.240  16
  -4   7  -4 2958.98 419.911  15
  -4   7  -4 2921.00 498.152   1
  -4   7  -4 3351.49 427.059  12
  -4   7  -5 6350.07 610.659  11
   4   7   5 7233.92 796.944  16
  -4  -7  -5 7521.71 644.401   8
  -4   7  -5 6881.86 623.138  12
  -4   7  -5 6221.10 728.794   1
  -4   7  -6 10044.0 767.032  11
  -4  -7  -6 10780.2 772.481   8
  -4   7  -6 9765.64 729.119  12
  -4   7  -7 29092.4 1277.08  11
  -4  -7  -7 30366.2 1228.15   8
  -4   7  -7 29001.6 1184.00  12
  -4   7  -8 3005.07 444.572  11
  -4  -7  -8 2727.20 402.815   8
   4   7   8 3181.14 428.330  13
  -4   7  -8 2432.69 340.347  12
  -4   7  -9 24886.9 1003.12  11
  -4  -7  -9 22183.3 864.912   8
   4   7   9 24518.1 898.084  13
  -4  -7  -9 23439.0 967.586   6
  -4   7 -10 670.484 180.577  11
   4   7  10 681.163 145.631  13
  -4  -7 -10 780.120 192.051   6
   4   8 -13 8847.48 357.227   5
   4  -8 -13 9713.40 438.173   4
   4   8 -12 131.447 135.194   5
   4  -8 -12-83.0831 267.943   4
   4   8 -11 11094.6 636.784   5
   4  -8 -11 10762.9 702.709   4
   4   8 -11 9942.69 591.159  14
   4   8 -11 10252.8 574.330   7
   4  -8 -11 10951.1 569.375   6
   4  -8 -10 4377.42 612.289  10
   4   8 -10 3228.01 394.220   5
   4   8 -10 3036.25 397.095  14
   4  -8 -10 2745.54 431.962   4
   4   8 -10 3246.42 389.332   7
   4   8  -9 17530.1 874.887   5
   4  -8  -9 16303.8 1022.92  10
   4  -8  -9 17552.4 1016.60   4
   4   8  -9 17916.9 942.426  14
   4   8  -9 16388.5 864.217   7
   4   8  -8 6061.17 530.480   5
   4  -8  -8 6129.16 678.403  10
   4  -8  -8 6744.65 624.875   4
   4   8  -8 6100.47 583.835  14
   4   8  -8 5350.34 508.870   7
   4  -8  -8 5820.53 583.545   3
   4   8  -7 8505.85 594.510   5
   4  -8  -7 7743.50 733.443  10
   4   8  -7 8304.16 622.366   7
   4   8  -7 8315.34 706.825  15
   4  -8  -7 8666.20 678.861   4
   4   8  -7 7256.73 627.457  14
   4  -8  -7 8286.12 707.461   3
   4   8  -6 45033.6 1520.13  15
   4   8  -6 46591.5 1385.18   7
   4  -8  -6 45222.3 1584.18   3
   4  -8  -5 3178.59 533.545   2
  -4   8   5 2868.16 429.322  16
   4   8  -5 2993.44 371.213  15
  -4   8   4 18625.2 1006.52  16
   4  -8  -4 17754.9 1149.81   2
   4   8  -4 19625.4 857.113  15
   4  -8  -3 1898.32 393.089   2
  -4   8   3 1824.32 351.267  16
   4   8  -3 1967.00 374.409   2
   4  -8  -2 2119.15 389.273   2
   4   8  -2 1441.14 337.335   2
  -4   8   2 1367.34 332.610  16
   4   8  -1 53177.8 1818.36   2
  -4   8   1 54158.0 1730.47  16
   4  -8  -1 53994.8 1736.40   2
   4  -8   0 45.3555 181.828   2
   4   8   0 178.049 152.811  16
   4   8   1 84441.1 2031.09  16
  -4   8  -1 87003.4 2407.47  16
   4   8   2 6.57369 50.9567  16
  -4   8  -2-39.7863 179.112   1
   4   8   3 97449.5 2605.00  16
  -4   8  -3 102517. 2729.95   1
  -4   8  -4 3934.75 595.949   1
  -4   8  -4 3676.77 477.484  11
   4   8   4 3247.00 539.059  16
  -4   8  -4 2537.85 401.143  15
   4   8   4 3030.23 387.640  12
  -4   8  -4 3307.99 445.661  12
  -4   8  -5 1708.67 380.053  11
  -4  -8  -5 2108.51 392.966   8
   4   8   5 2518.48 359.120  12
  -4   8  -5 1998.39 364.735  12
  -4   8  -6 4478.67 541.369  11
  -4  -8  -6 4995.76 559.340   8
  -4   8  -6 4794.91 554.337  12
  -4   8  -7 4254.80 511.702  11
  -4  -8  -7 3729.76 466.004   8
  -4   8  -7 3759.49 452.360  12
  -4   8  -8 34462.0 1272.08  11
  -4  -8  -8 33439.4 1159.23   8
   4   8   8 34884.2 1210.83  13
  -4   8  -8 33163.7 1096.22  12
  -4  -8  -9 1180.73 255.791   6
  -4   8  -9 978.119 249.532  11
   4   8   9 1052.24 247.794  13
  -4  -8  -9 1169.71 220.911   8
  -4   8 -10 5267.37 361.788  11
   4   8  10 4960.33 292.501  13
  -4  -8 -10 5199.03 357.822   6
   4   9 -12 31196.7 788.380   5
   4  -9 -12 30124.5 908.126   4
   4   9 -11 450.785 162.323   5
   4  -9 -11 402.354 230.123   4
   4   9 -11 297.620 154.197   7
   4   9 -10 16887.1 800.504   5
   4  -9 -10 16965.1 921.801   4
   4   9 -10 16762.2 805.358   7
   4  -9  -9 1732.02 330.282   3
   4   9  -9 1997.82 354.732  14
   4  -9  -9 2378.42 497.982  10
   4   9  -9 2183.46 332.529   5
   4  -9  -9 2008.40 394.064   4
   4   9  -9 1882.68 343.485   7
   4   9  -8 10899.9 670.568   5
   4  -9  -8 10068.0 824.366  10
   4  -9  -8 9923.44 756.018   4
   4   9  -8 10614.7 724.590  14
   4   9  -8 10499.7 711.734   7
   4  -9  -8 9993.14 761.807   3
   4  -9  -7 1493.61 363.076   3
   4  -9  -7 1053.64 374.955  10
   4   9  -7 640.560 248.311  14
   4  -9  -7 1697.86 366.007   4
   4   9  -7 1459.60 305.365   7
   4  -9  -6 4433.00 544.271  10
   4   9  -6 4947.31 523.753  15
   4  -9  -6 5409.62 527.150   4
   4   9  -6 4918.43 482.201   7
   4   9  -6 5693.61 550.975  14
   4  -9  -6 5874.30 615.626   3
  -4   9   5 14533.8 969.878  16
   4   9  -5 14778.5 843.046  15
   4   9  -5 16450.5 829.998   7
   4  -9  -5 17522.7 1003.81   3
  -4   9   4 991.181 281.910  16
   4  -9  -3 2783.98 485.839   2
  -4   9   3 3271.83 477.423  16
   4   9  -3 2508.78 407.477   2
  -4   9   2 31520.5 1388.91  16
   4  -9  -2 31688.7 1466.01   2
   4   9  -2 29660.2 1430.89   2
   4   9  -1 13680.5 978.028   2
  -4   9   1 12420.1 900.873  16
   4  -9  -1 13412.0 917.974   2
  -4   9   0 74717.7 2244.29  16
   4   9   1 6820.65 613.369  16
  -4   9  -1 6501.19 746.195  16
  -4   9  -2 41260.9 1738.70   1
   4   9   2 39682.5 1578.74  16
  -4   9  -2 40865.9 1821.13  16
  -4   9  -3 4185.75 480.570  11
   4   9   3 3767.14 575.270  16
  -4   9  -3 3748.45 593.891   1
   4   9   3 4089.78 438.422  12
  -4   9  -3 3747.09 474.847  12
  -4   9  -4 7815.63 661.635  11
   4   9   4 7270.83 762.683  16
  -4   9  -4 6927.84 662.795  15
  -4   9  -4 7449.59 796.761   1
   4   9   4 7788.60 604.049  12
  -4   9  -4 7417.03 655.024  12
  -4   9  -5 3167.28 443.488  11
  -4  -9  -5 2864.69 466.843   8
   4   9   5 3372.44 393.918  12
  -4   9  -5 3137.56 468.345  12
  -4   9  -6 74445.0 1993.78  11
  -4  -9  -6 75782.9 1984.40   8
  -4   9  -6 74792.2 1968.38  12
  -4   9  -7 6684.89 603.728  11
  -4  -9  -7 6711.96 591.133   8
  -4   9  -7 6699.81 567.984  12
  -4   9  -8 117.135 215.194  11
  -4  -9  -8-37.1404 164.492   8
   4   9   8 52.3537 234.085  13
  -4   9  -8 222.944 138.643  12
  -4  -9  -9-83.4927 139.035   6
  -4   9  -9-121.572 156.503  11
   4   9   9 25.2021 160.384  13
  -4  -9  -9-151.835 116.975   8
  -4   9 -10 42.8336 82.9111  11
  -4   9 -10 102.849 61.1875   5
   4   9  10 26.7125 69.0458  13
  -4  -9 -10 134.679 80.2650   6
   4 -10 -12 3062.97 300.232   4
   4  10 -11 5354.26 352.994   5
   4  10 -11 4937.83 372.840   7
   4 -10 -11 5621.48 454.318   4
   4  10 -10 162.505 112.149   5
   4  10 -10-42.5110 159.390   7
   4 -10 -10-29.9194 198.963   4
   4 -10  -9 934.633 253.524   3
   4 -10  -9 1039.37 324.360   4
   4  10  -9 1071.37 273.467   7
   4 -10  -8 26398.9 1210.68  10
   4  10  -8 26443.2 1096.24   7
   4 -10  -8 27428.5 1215.20   4
   4  10  -8 26021.5 1081.05  14
   4 -10  -8 27308.6 1243.90   3
   4 -10  -7 992.866 304.110   3
   4 -10  -7 651.722 296.097  10
   4  10  -7 646.971 257.331  14
   4 -10  -7 1444.76 332.698   4
   4  10  -7 1112.42 277.562   7
   4 -10  -6 64239.1 1829.89  10
   4  10  -6 64378.0 1700.32   7
   4  10  -6 64277.9 1778.67  14
   4 -10  -6 64636.7 1798.46   4
   4 -10  -6 68536.0 2052.95   3
   4 -10  -5 317.165 196.969   4
   4 -10  -5 237.548 185.621   3
  -4  10   5 149.427 147.986  16
   4 -10  -5 59.4126 113.858   9
   4  10  -5 277.781 206.322   7
   4  10  -5 67.7393 184.095  14
  -4  10   4 22708.2 1254.59  16
   4 -10  -4 21208.5 985.957   9
   4  10  -4 22362.7 1057.85  14
   4  10  -4 23880.6 993.494   7
   4  10  -4 22265.9 918.416  12
   4 -10  -4 23440.6 1175.70   3
  -4  10   3 4779.60 585.941  16
  -4  10   2 67646.7 2167.41  16
   4  10  -2 70349.4 2270.37   2
  -4  10   1 672.967 339.426  16
   4  10  -1 597.104 289.094   2
  -4  10   0 10954.2 934.044  16
  -4  10  -1 1375.23 395.621  16
   4  10   1 1660.73 295.951  12
  -4  10  -1 1455.36 315.146  12
   4  10   2 3025.67 448.716  16
   4  10   2 2860.85 382.810  12
  -4  10  -2 2923.53 433.016  12
  -4  10  -2 2940.46 571.089  16
  -4  10  -3 6459.13 590.615  11
   4  10   3 5669.33 671.860  16
  -4  10  -3 6418.35 766.720   1
   4  10   3 5959.02 527.570  12
  -4  10  -3 6732.07 627.281  12
  -4  10  -4 21272.6 1069.35  11
   4 -10   4 21988.6 993.528   9
   4  10   4 22304.7 970.484  12
  -4  10  -4 23031.0 1138.96  12
  -4  10  -5 3569.14 470.225  11
  -4 -10  -5 3837.42 499.809   8
   4  10   5 3946.01 412.575  12
  -4  10  -5 4346.40 513.205  12
  -4  10  -6 6040.73 579.361  11
  -4  10  -6 6613.01 602.318  12
  -4 -10  -6 6519.85 602.582   8
  -4  10  -7 4640.21 497.161  11
  -4 -10  -7 4696.06 486.552   8
  -4  10  -7 4567.66 462.868  12
  -4  10  -8 24032.2 947.306  11
  -4 -10  -8 24081.1 881.983   8
   4  10   8 23688.3 926.309  13
  -4  10  -8 22249.7 794.829  12
  -4 -10  -8 21550.3 891.239   6
  -4  10  -9 1180.80 221.920  11
  -4  10  -9 1108.75 159.169   5
   4  10   9 1348.49 223.009  13
  -4 -10  -9 1478.95 200.321   8
  -4 -10  -9 1226.93 201.891   6
   4 -11 -12 4708.44 286.258   4
   4 -11 -11 8735.87 507.112   4
   4  11 -11 8309.62 433.030   7
   4 -11 -10 438.666 220.161   4
   4  11 -10 557.283 182.695   7
   4 -11  -9 8417.95 650.154   4
   4  11  -9 7767.37 585.026   7
   4 -11  -9 7112.23 581.184   3
   4 -11  -8 5345.04 550.503   4
   4  11  -8 5734.55 528.301   7
   4 -11  -8 5609.51 578.057   3
   4 -11  -7 13233.3 841.812  10
   4 -11  -7 11524.4 791.720   4
   4  11  -7 12417.4 775.813   7
   4 -11  -7 11499.3 852.473   3
   4  11  -6 13405.6 811.305  14
   4  11  -6 14244.7 826.403   7
   4 -11  -6 13770.1 843.397   4
   4 -11  -6 14084.4 961.646   3
   4 -11  -5 12381.8 762.369   9
   4 -11  -5 11832.8 766.350   4
   4  11  -5 12151.1 780.998  14
   4  11  -5 11842.1 679.671  12
   4 -11  -5 13038.2 927.957   3
   4  11  -5 12462.4 755.515   7
   4  11  -4 10607.0 684.090   7
  -4  11   4 11433.6 935.156  16
   4 -11  -4 10553.7 720.527   9
   4  11  -4 9619.50 721.094  14
   4  11  -4 10087.3 650.720  12
   4 -11  -4 10119.2 823.360   3
  -4  11   3 72191.9 2318.68  16
   4 -11  -3 72124.5 1869.52   9
   4  11  -3 73367.3 1706.84   7
   4  11  -3 74357.8 1733.50  12
   4 -11  -3 75633.5 2117.82   3
   4  11  -3 72486.6 1921.28  14
   4 -11  -2-576.051 282.363   3
  -4  11   2 273.720 304.901  16
   4  11  -2 663.385 236.906   2
   4 -11  -2-135.494 194.100   9
   4  11  -2-126.209 167.362   7
   4  11  -2 229.457 180.761  12
  -4  11   1 9360.61 909.676  16
   4 -11  -1 9288.33 691.947   9
   4  11  -1 9689.17 648.946  12
  -4  11   1 8045.00 610.584  12
   4 -11  -1 7780.80 674.467   3
   4  11  -1 7769.12 817.602   2
   4  11   0 23874.8 1402.50   2
  -4  11   0 25034.2 1477.43  16
   4 -11   0 23144.3 1078.76   9
   4  11   0 23207.3 996.985  12
  -4  11   0 21999.2 1038.29  12
  -4  11  -1 9239.86 978.595  16
   4 -11   1 8976.32 690.138   9
   4  11   1 8269.67 614.795  12
  -4  11  -1 7702.52 653.374  12
   4 -11   2 56218.9 1663.89   9
   4  11   2 55043.8 1545.19  12
  -4  11  -2 56528.7 1738.37  12
  -4  11  -3 2411.11 401.192  11
   4 -11   3 2177.87 381.183   9
   4  11   3 2327.56 361.057  12
  -4  11  -3 2409.48 407.660  12
   4 -11   4-107.908 195.257   9
  -4  11  -4 240.174 231.632  11
   4  11   4 265.195 196.130  12
  -4  11  -4 24.1688 210.232  12
  -4  11  -5 11295.4 764.345  11
   4  11   5 11174.2 644.678  12
  -4  11  -5 10581.4 775.740  12
  -4 -11  -5 12309.1 820.498   8
  -4  11  -6 10575.1 717.133  11
  -4 -11  -6 11551.4 762.838   8
  -4  11  -6 10545.6 719.159  12
  -4  11  -7 20420.8 909.596  11
  -4 -11  -7 21035.4 896.862   8
   4  11   7 21003.2 910.229  13
  -4  11  -7 20198.1 867.459  12
  -4 -11  -8-14.3878 134.319   6
  -4  11  -8 48.2192 134.962  11
   4  11   8-14.0828 191.371  13
  -4 -11  -8-73.6405 121.739   8
  -4  11  -8-30.7411 84.5402  12
  -4  11  -9 5739.49 352.259  11
  -4 -11  -9 4836.78 280.424   8
   4  11   9 5393.04 326.572  13
   4 -12 -11 16934.9 597.795   4
   4  12 -11 16568.6 536.898   7
   4 -12 -10 123.394 168.273   4
   4  12 -10 90.9818 139.270   7
   4 -12  -9 30871.9 1114.83   4
   4  12  -9 30373.3 1028.36   7
   4 -12  -9 28044.6 1082.42   3
   4 -12  -8 6837.74 579.710   4
   4  12  -8 7287.73 576.042   7
   4 -12  -8 6934.35 621.658   3
   4 -12  -7 2406.36 410.823   3
   4 -12  -7 2458.84 394.807   4
   4  12  -7 2537.10 369.611   7
   4 -12  -6 705.070 280.402   3
   4 -12  -6 272.331 180.818   9
   4 -12  -6 843.351 264.483   4
   4  12  -6 635.982 244.033   7
   4  12  -6 909.594 217.477  12
   4  12  -5 2734.29 381.042   7
   4 -12  -5 2321.26 454.693   3
   4 -12  -5 2217.48 363.095   9
   4 -12  -5 2056.61 367.320   4
   4  12  -5 2233.57 329.909  12
   4 -12  -4 6747.01 601.945   9
   4 -12  -4 7270.14 599.038   4
   4  12  -4 7372.39 586.466   7
   4  12  -4 6791.19 543.455  12
   4 -12  -4 7616.69 711.617   3
   4  12  -4 6496.68 587.241  14
   4 -12  -3 1903.95 412.757   3
   4  12  -3 2300.26 394.513  14
   4 -12  -3 2142.46 366.171   9
   4  12  -3 2106.43 335.167   7
   4  12  -3 2088.09 342.334  12
   4 -12  -2 277.661 224.712   9
   4 -12  -2 809.292 248.599   3
   4  12  -2 570.435 214.309   7
   4  12  -2 478.030 213.214  12
   4 -12  -1 41850.9 1527.39   3
   4 -12  -1 40273.0 1457.30   9
   4  12  -1 41554.3 1352.40  12
  -4  12   1 40009.5 1365.26  12
   4  12  -1 43087.7 1967.50   2
   4 -12   0 1560.86 328.287   9
   4  12   0 1910.34 457.415   2
   4  12   0 1456.01 313.486  12
  -4  12   0 1481.13 330.849  12
   4 -12   1 12490.4 843.946   9
   4  12   1 13122.5 782.479  12
  -4  12  -1 11664.6 801.405  12
   4 -12   2 296.967 261.142   9
   4  12   2-200.799 211.858  12
  -4  12  -2 216.027 228.057  12
  -4  12  -3 64008.6 1749.58  11
   4 -12   3 63825.0 1738.28   9
   4  12   3 60017.5 1598.91  12
  -4  12  -3 63957.3 1882.57  12
  -4  12  -4 273.821 177.537  11
   4 -12   4 433.901 190.275   9
   4  12   4 202.947 161.065  12
  -4  12  -4 395.073 298.117  12
  -4  12  -5 42772.5 1387.69  11
  -4 -12  -5 46146.9 1512.98   8
  -4  12  -5 42101.2 1441.68  12
  -4 -12  -6 78.1663 223.550   8
  -4  12  -6 90.2450 160.805  11
   4  12   6 123.208 214.574  13
  -4  12  -6 29.9419 186.554  12
  -4 -12  -7 545.275 152.358   6
  -4  12  -7 977.144 232.038  11
  -4 -12  -7 861.485 226.426   8
   4  12   7 929.283 266.549  13
  -4  12  -7 748.640 205.165  12
  -4 -12  -8 1803.68 215.999   8
  -4  12  -8 1724.68 235.849  11
   4  12   8 1780.38 243.786  13
   4 -13 -10 20994.6 713.508   4
   4  13 -10 21009.7 669.503   7
   4 -13  -9 6865.14 510.714   3
   4 -13  -9 7216.24 523.410   4
   4  13  -9 7109.13 479.994   7
   4 -13  -8 1104.85 304.435   3
   4 -13  -8 1421.10 291.867   4
   4  13  -8 1353.60 291.204   7
   4 -13  -7 26316.7 1086.56   4
   4  13  -7 27526.1 1044.24   7
   4 -13  -7 26362.7 1207.98   3
   4 -13  -6 324.620 214.397   3
   4 -13  -6 704.325 217.547   9
   4 -13  -6 360.146 258.218   4
   4  13  -6 766.067 266.092   7
   4  13  -6 1020.73 209.175  12
   4 -13  -5 29524.0 1159.60   9
   4  13  -5 28960.1 1116.30   7
   4 -13  -5 27315.0 1131.17   4
   4  13  -5 29058.2 1056.03  12
   4 -13  -5 27667.4 1327.74   3
   4 -13  -4 236.769 216.600   3
   4 -13  -4 58.0043 212.521   9
   4  13  -4 451.761 246.018   7
   4 -13  -4 310.142 226.595   4
   4  13  -4 325.725 182.976  12
   4 -13  -3 2215.15 413.953   3
   4 -13  -3 1817.06 365.535   9
   4  13  -3 2233.22 338.029   7
   4  13  -3 2041.98 352.093  14
   4  13  -3 2315.45 350.151  12
   4  13  -2 4532.13 507.972  14
   4 -13  -2 4272.77 515.634   9
   4  13  -2 5114.65 457.211   7
   4  13  -2 4856.26 491.017  12
   4 -13  -2 4832.14 559.533   3
  -4  13   1 25836.8 1101.56  12
   4 -13  -1 24662.2 1159.65   9
   4  13  -1 25340.8 1072.95  12
   4 -13  -1 24912.3 1185.63   3
   4 -13   0 10028.5 759.702   9
  -4  13   0 10548.1 757.578  12
   4  13   0 9968.46 691.735  12
   4 -13   1 1495.99 359.280   9
   4  13   1 1844.62 336.382  12
  -4  13  -1 1713.28 347.573  12
   4 -13   2 9498.43 723.000   9
   4  13   2 9958.79 682.316  12
  -4  13  -2 9195.90 728.428  12
  -4  13  -3 4025.31 457.861  11
   4 -13   3 3599.71 447.560   9
   4  13   3 4291.40 450.312  12
  -4  13  -3 3474.28 493.830  12
  -4  13  -4 25500.9 1043.91  11
   4 -13   4 26686.2 1009.04   9
   4  13   4 25484.5 958.947  12
  -4  13  -4 25956.6 1160.35  12
  -4  13  -5 1865.45 320.897  11
  -4 -13  -5 2004.82 371.706   8
   4  13   5 1615.70 309.102  13
  -4  13  -5 1731.57 346.492  12
  -4  13  -6 1192.34 250.991  11
  -4 -13  -6 1334.66 283.064   8
   4  13   6 1079.30 252.151  13
  -4  13  -6 1170.64 259.877  12
  -4  13  -7 3033.65 299.201  11
  -4 -13  -7 2778.57 297.539   8
   4  13   7 3026.49 319.889  13
  -4  13  -7 2700.57 279.445  12
   4  13   8 3148.35 251.727  13
  -4  13  -8 2972.06 217.370   7
  -4 -13  -8 2766.44 210.281   8
   4 -14 -10 1548.96 171.361   4
   4  14 -10 1360.10 162.252   7
   4  14  -9 15889.4 605.596   7
   4 -14  -9 15137.6 628.725   4
   4 -14  -9 14436.1 649.307   3
   4 -14  -8 21872.2 863.883   4
   4  14  -8 22294.1 811.495   7
   4 -14  -8 22634.2 953.006   3
   4 -14  -7 3093.94 444.775   3
   4  14  -7 3588.59 384.628   7
   4 -14  -7 2931.87 375.608   4
   4 -14  -6 29040.4 1036.84   9
   4 -14  -6 30964.2 1138.37   4
   4  14  -6 32242.8 1088.31   7
   4  14  -6 29624.2 949.101  12
   4 -14  -6 30499.2 1305.23   3
   4 -14  -5-235.430 265.704   3
   4  14  -5 161.378 173.777   7
   4 -14  -5-2.33580 197.159   9
   4 -14  -5 90.7377 197.789   4
   4  14  -5 41.3009 149.609  12
   4 -14  -4 36240.7 1311.54   9
   4 -14  -4 35051.6 1223.14   4
   4  14  -4 36727.0 1171.78   7
   4  14  -4 36864.2 1198.97  12
   4 -14  -4 35846.9 1457.52   3
   4 -14  -3-287.756 257.874   3
   4 -14  -3 61.9632 263.135   9
   4  14  -3-405.876 163.062   7
   4  14  -3 27.8519 193.563  12
   4 -14  -2 6185.63 607.060   9
   4  14  -2 5588.24 526.400  14
   4  14  -2 7283.24 590.006  12
   4 -14  -2 6419.81 629.180   3
   4 -14  -1 2859.55 435.534   3
   4 -14  -1 3017.71 455.347   9
   4  14  -1 3303.08 422.392  14
   4  14  -1 3204.40 425.623  12
  -4  14   1 3081.57 411.664  12
   4 -14   0 2466.89 435.758   9
   4  14   0 2396.77 360.797  12
  -4  14   0 2039.10 366.881  12
   4 -14   1 181.266 233.793   9
   4  14   1-114.888 181.735  12
  -4  14  -1 55.3924 220.916  12
   4 -14   2 9374.52 684.836   9
   4  14   2 8808.78 629.408  12
  -4  14  -2 9272.67 705.872  12
   4 -14   3 7322.32 564.615   9
   4  14   3 7429.44 524.762  13
   4  14   3 6964.03 528.475  12
  -4  14  -3 7494.66 644.171  12
   4  14   4 2715.18 331.847  13
  -4 -14  -4 2532.79 403.195   8
   4  14   4 2548.09 304.941  12
  -4  14  -4 2779.26 413.358  12
  -4 -14  -5 212.359 195.887   8
   4  14   5 352.990 184.909  13
  -4  14  -5 145.578 178.041  12
  -4 -14  -6 12726.1 611.583   8
   4  14   6 13595.1 609.783  13
  -4  14  -6 12305.9 503.111   7
  -4  14  -6 12032.3 575.953  12
  -4  14  -7 468.713 110.485  12
  -4 -14  -7 516.743 134.525   8
   4  14   7 502.375 150.733  13
  -4  14  -7 542.274 97.4061   7
   4 -15  -9 53.9581 75.9552   3
   4  15  -9 45.1760 83.3590   7
   4 -15  -9 116.141 93.5487   4
   4 -15  -8 4948.40 368.214   4
   4  15  -8 5381.59 362.492   7
   4 -15  -8 5148.16 427.601   3
   4 -15  -7 18553.0 762.153   4
   4  15  -7 19200.6 719.477   7
   4 -15  -7 20182.9 918.348   3
   4 -15  -6 296.263 258.495   3
   4 -15  -6 349.745 151.935   9
   4 -15  -6 869.590 232.439   4
   4  15  -6 543.375 195.219   7
   4  15  -6 807.250 164.237  12
   4 -15  -5 1972.81 404.504   3
   4 -15  -5 2093.38 318.005   9
   4 -15  -5 1840.18 304.506   4
   4  15  -5 1834.57 258.247   7
   4  15  -5 2114.48 289.073  12
   4 -15  -4-52.5939 211.005   3
   4 -15  -4-98.8356 227.961   9
   4  15  -4 193.999 178.375   7
   4 -15  -4 148.882 186.253   4
   4  15  -4 103.318 167.713  12
   4 -15  -3 3227.09 472.786   3
   4 -15  -3 2935.56 361.822   4
   4 -15  -3 3792.93 480.111   9
   4  15  -3 3311.08 402.863  12
   4 -15  -2 14062.7 851.354   9
   4  15  -2 14579.5 787.097  12
   4 -15  -2 15722.8 917.321   3
   4 -15  -1 189.922 180.235   3
   4 -15  -1 7.93788 220.379   9
   4  15  -1 110.827 195.962  12
  -4  15   1 399.362 190.108  12
   4 -15   0 15550.8 889.234   9
   4  15   0 16293.7 847.383  14
   4  15   0 15917.4 817.801  12
  -4  15   0 15251.9 844.966  12
   4 -15   1 3564.34 450.124   9
   4  15   1 3700.96 421.925  12
  -4  15  -1 3072.58 419.451  12
   4 -15   2 21111.0 944.825   9
   4  15   2 20822.1 881.296  12
  -4  15  -2 20890.0 971.864  12
   4 -15   3 177.195 155.585   9
  -4 -15  -3-88.5410 162.235   4
   4  15   3 202.297 158.037  12
  -4  15  -3 274.845 212.523  12
  -4 -15  -4 23859.6 940.201   8
   4  15   4 24287.4 793.534  13
   4  15   4 21986.9 725.895  12
  -4  15  -4 22431.5 901.398  12
  -4 -15  -5 1393.23 262.392   8
   4  15   5 1089.55 191.190  13
  -4  15  -5 1029.12 209.139  12
  -4 -15  -6 4905.23 332.877   8
   4  15   6 4600.61 285.778  13
  -4  15  -6 4313.91 298.405  12
   4  16  -8 11122.5 386.260   7
   4 -16  -8 10609.8 496.730   3
   4 -16  -7 904.209 235.106   3
   4 -16  -7 680.772 155.462   4
   4  16  -7 644.691 155.153   7
   4 -16  -6 400.175 212.345   3
   4 -16  -6 147.314 154.128   4
   4  16  -6 339.581 137.226   7
   4 -16  -5 1774.26 343.716   3
   4 -16  -5 1475.88 275.497   9
   4 -16  -5 1363.59 246.058   4
   4  16  -5 1725.26 232.952   7
   4  16  -5 1369.80 219.565  12
   4 -16  -4 2260.55 362.624   3
   4 -16  -4 3077.08 383.171   9
   4 -16  -4 2750.75 318.913   4
   4  16  -4 2950.23 330.660  12
   4 -16  -3 6902.52 567.080   9
   4 -16  -3 5426.75 422.670   4
   4  16  -3 7112.15 513.820  12
   4 -16  -3 6736.93 573.504   3
   4 -16  -2 9981.99 683.304   9
   4  16  -2 9760.08 617.204  12
   4 -16  -2 9642.58 655.218   3
   4 -16  -1 3567.97 460.286   9
   4  16  -1 3585.80 422.480  12
  -4  16   1 3463.21 354.078  12
   4 -16   0 2.25673 218.131   9
   4  16   0 154.351 184.933  12
  -4  16   0 214.608 176.120  12
   4 -16   1 13212.3 737.269   9
   4  16   1 12798.7 642.352  14
   4  16   1 13645.1 692.107  12
  -4  16  -1 13249.9 724.110  12
   4 -16   2 3171.12 360.986   9
   4  16   2 3498.42 350.646  12
  -4  16  -2 3050.00 375.343  12
   4 -16   3 11216.6 530.374   9
   4  16   3 11800.1 542.532  12
  -4  16  -3 12075.4 633.986  12
  -4 -16  -4 129.397 145.513   8
  -4  16  -4 85.7879 140.695  12
  -4 -16  -5 14145.3 547.096   8
  -4  16  -5 14684.7 536.860  12
   4 -17  -7 6504.89 385.750   3
   4 -17  -6 198.648 167.697   3
   4  17  -5 11657.2 475.798  12
   4 -17  -5 12885.8 674.626   3
   4 -17  -4-107.263 181.931   3
   4 -17  -4 127.874 162.696   9
   4  17  -4-101.030 128.895  12
   4 -17  -3 15225.4 741.759   9
   4  17  -3 13538.7 622.595  12
   4 -17  -3 15017.3 729.341   3
   4 -17  -2 18.2657 99.1236   3
   4 -17  -2 281.687 199.684   9
   4  17  -2 25.1072 172.512  12
   4 -17  -1 8608.27 579.583   9
   4  17  -1 9085.66 537.723  12
  -4  17   1 8559.86 455.588  12
   4 -17   0 309.798 196.711   9
   4  17   0 344.629 184.223  12
  -4  17   0 371.639 147.116  12
   4 -17   1 1185.71 243.742   9
   4  17   1 1494.28 237.140  12
  -4  17  -1 1793.95 266.877  12
   4 -17   2 414.318 143.063   9
  -4 -17  -2 389.835 146.313   4
   4  17   2 503.688 155.219  12
  -4  17  -2 414.877 158.822  12
  -4 -17  -3 66.9241 120.954   8
   4  17   3 47.4643 82.3451  12
  -4  17  -3-92.7712 129.414  12
  -4 -17  -4 3315.19 270.173   8
  -4  17  -4 3727.48 265.046  12
   4 -18  -5 825.978 151.213   3
   4  18  -4 7289.91 351.834  12
   4 -18  -4 6955.61 394.649   3
   4 -18  -3 808.137 155.468   3
   4 -18  -3 1229.88 216.847   9
   4  18  -3 1281.09 185.878  12
   4 -18  -2 2535.61 291.787   9
   4  18  -2 2617.65 264.581  12
   4 -18  -1 1517.41 246.445   9
   4  18  -1 1446.87 219.794  12
   4 -18   0 15318.4 609.883   9
   4  18   0 14319.6 555.186  12
   4  18   1 3949.01 286.976  12
   4 -18   1 4094.27 300.505   9
  -4  18  -1 3470.81 253.170  12
  -4 -18  -2 984.787 160.446   8
   4  18   2 889.845 114.043  12
  -4  18  -2 773.301 138.514  12
  -4 -18  -3 5948.58 296.593   8
  -4  18  -3 6681.47 288.674  12
   4  19  -2 2308.39 183.490  12
   4  19  -1 271.365 92.4349  12
   5   0 -14 16476.3 501.583   5
   5   0 -14 20067.3 666.010   6
   5   0 -13-0.53275 115.929   5
   5   0 -13 65.0135 224.499   6
   5   0 -12 6323.93 633.663  14
   5   0 -12 5064.71 482.535   5
   5   0 -12 4562.06 453.935  10
   5   0 -12 5283.87 542.024   6
   5   0 -11 106.167 183.076   5
   5   0 -11-991.888 346.441  10
   5   0 -11-162.056 301.275  14
   5   0 -11 394.103 381.114   4
   5   0 -11-1109.96 369.296   6
   5   0 -10 2860.67 421.486   5
   5   0 -10 2754.82 417.372  10
   5   0 -10 2948.07 519.054  14
   5   0 -10 2231.01 437.076   4
   5   0 -10 3108.02 428.217   6
   5   0  -9 149.089 197.895   5
   5   0  -9 78.1741 202.224  10
   5   0  -9-71.8085 175.581  15
   5   0  -9 87.5132 256.155  14
   5   0  -9-31.4763 154.777   6
   5   0  -8 19228.2 934.174   5
   5   0  -8 18342.3 1079.69  15
   5   0  -8 17710.7 891.523   6
   5   0  -7 353.005 212.842   2
   5   0  -7 114.566 153.752  15
   5   0  -6 13062.3 770.906  15
   5   0  -6 14451.2 963.184   2
   5   0  -5-62.1226 252.087   2
   5   0  -5-9.90015 129.558  15
   5   0  -4 33857.3 998.347  15
   5   0  -4 35497.7 1459.55   2
   5   0  -3 60.6715 253.546   2
   5   0  -2 210840. 3231.72   2
   5   0  -1-27.9306 235.501   2
  -5   0   1-188.240 98.2693   1
  -5   0   0 114435. 1797.48   1
   5   0   0 108832. 2281.20   2
   5   0   1 250.539 232.826   2
  -5   0  -1 51.6216 136.119   1
  -5   0  -2 46098.0 1407.86   1
   5   0   2 49676.1 1577.75   2
   5   0   3 487.023 199.339   2
  -5   0  -3-134.115 214.501   1
  -5   0  -4 1892.92 398.079   1
  -5   0  -5-7.39622 247.142   8
  -5   0  -5-26.2189 252.554   1
  -5   0  -6 315.151 188.544  12
  -5   0  -6 33.0495 228.624   8
  -5   0  -7-138.530 105.807  12
  -5   0  -8 16612.6 837.314   6
  -5   0  -9 148.880 132.011   6
  -5   0  -9-68.3805 173.444  11
  -5   0 -10 42188.5 1091.86  11
   5   1 -14 3200.27 246.444   5
   5  -1 -14 6338.01 391.697   6
   5  -1 -13 3992.85 353.175   5
   5   1 -13 4408.61 390.289   5
   5   1 -13 5029.35 459.285   6
   5  -1 -13 4247.38 427.885   6
   5  -1 -12 15316.3 778.159   5
   5   1 -12 17109.9 843.682   5
   5  -1 -12 16093.5 823.047  10
   5  -1 -12 17115.4 989.366  14
   5  -1 -12 19388.6 940.897   4
   5   1 -12 17577.7 978.756  14
   5   1 -12 16705.9 886.075   6
   5  -1 -12 17573.1 896.276   6
   5  -1 -11 691.390 239.291   5
   5   1 -11 97.5663 226.460   5
   5   1 -11-110.805 280.787  10
   5  -1 -11 98.2490 338.387  10
   5  -1 -11 48.2787 376.820   4
   5   1 -11 340.416 319.841  14
   5  -1 -11 855.457 371.025  14
   5   1 -11 82.2853 352.345   6
   5  -1 -11 435.904 239.661   6
   5  -1 -10 47192.2 1518.23   5
   5   1 -10 48442.9 1557.32   5
   5  -1 -10 44656.8 1606.47  10
   5   1 -10 43624.6 1513.01  10
   5   1 -10 44397.4 1503.04   4
   5  -1 -10 44926.3 1533.97   4
   5   1 -10 46271.6 1704.93  14
   5  -1 -10 47692.2 1747.12  14
   5   1 -10 45279.7 1544.81   6
   5  -1 -10 47386.8 1543.41   6
   5  -1  -9 13495.5 815.010   5
   5   1  -9 14041.1 833.032   5
   5  -1  -9 13193.3 899.516  10
   5   1  -9 11581.1 807.101  10
   5  -1  -9 12040.5 909.052  14
   5   1  -9 11985.7 810.335   4
   5  -1  -9 13126.2 835.165   4
   5   1  -9 13972.5 1006.34  15
   5  -1  -9 14114.4 1042.58  15
   5   1  -9 12981.9 924.170  14
   5   1  -9 13049.3 828.566   6
   5  -1  -9 14536.8 837.365   6
   5   1  -8 21429.1 989.315   5
   5  -1  -8 20375.3 1068.00  10
   5  -1  -8 19391.5 1125.42  15
   5  -1  -8 20562.9 1206.09   2
   5   1  -8 20814.4 1087.24  14
   5   1  -8 20425.0 1123.42  15
   5   1  -8 19278.1 942.752   6
   5  -1  -8 20278.2 945.092   6
   5   1  -7 6385.78 595.227  15
   5  -1  -7 6119.40 648.689   2
   5  -1  -7 5820.69 581.353  15
   5   1  -7 5049.46 581.233   2
   5   1  -6 29103.6 1119.93  15
   5  -1  -6 28958.6 1160.59  15
   5  -1  -6 30296.9 1395.32   2
   5   1  -6 31094.2 1375.12   2
   5  -1  -5 135834. 2267.26  15
   5   1  -5 135989. 2180.78  15
   5   1  -5 135613. 2851.49   2
   5  -1  -5 139705. 2931.00   2
   5  -1  -4 103.381 240.409   2
   5   1  -4 449.895 243.377   2
   5   1  -4 100.540 91.2120  15
   5   1  -3 46891.4 988.325  15
   5  -1  -3 44370.5 1577.21   2
   5   1  -3 45410.7 1562.02   2
   5  -1  -2 3436.99 477.242   2
   5   1  -2 3681.42 485.789   2
  -5   1   1 3370.93 285.797   1
   5  -1  -1 2800.94 427.842   2
   5   1  -1 2877.25 449.227   2
  -5  -1   1 3245.08 288.700   1
  -5   1   0 5015.33 410.719   1
  -5  -1   0 5264.03 419.701   1
   5  -1   0 5712.79 555.846   2
   5   1   0 5566.94 573.986   2
  -5   1  -1 23995.4 939.599   1
  -5  -1  -1 23716.1 927.013   1
   5  -1   1 23856.1 1068.56   2
   5   1   1 23807.3 1118.67   2
  -5   1  -2 36526.4 1276.77   1
  -5  -1  -2 36207.8 1266.02   1
   5  -1   2 39827.8 1375.70   2
   5   1   2 36306.8 1403.98   2
  -5   1  -3 20562.6 1050.55   1
  -5  -1  -3 20032.0 1031.38   1
   5   1   3 20200.4 1065.67   2
  -5   1  -4 41079.6 1592.21   1
  -5  -1  -4 41603.8 1615.49   1
  -5   1  -5 12285.1 950.344   1
  -5   1  -5 11727.7 749.752   8
  -5  -1  -5 11672.7 748.629   8
  -5  -1  -5 12447.8 969.877   1
  -5   1  -5 11014.6 737.678  12
  -5  -1  -6 73295.1 1892.34   8
   5   1   6 75128.9 1771.13  13
  -5   1  -6 69671.7 1852.84  12
  -5  -1  -7 767.787 245.505  12
  -5  -1  -7 408.964 249.331   8
  -5   1  -7 886.279 259.125  12
  -5   1  -8 6067.80 588.027  11
  -5   1  -8 6724.97 523.659   6
  -5  -1  -9 1714.82 282.201   6
  -5   1  -9 1774.00 328.415  11
  -5  -1  -9 1887.63 332.065  11
  -5   1 -10 1392.18 239.618  11
  -5  -1 -10 1380.16 221.954  11
  -5  -1 -10 1497.93 203.646   6
   5   2 -14 1205.32 171.822   5
   5  -2 -14 3729.06 310.002   6
   5  -2 -13 17014.7 647.608   5
   5   2 -13 18043.2 746.918   5
   5   2 -13 17080.7 801.483  14
   5   2 -13 18839.9 805.164   6
   5  -2 -13 16812.5 750.873   6
   5  -2 -12 1036.38 239.532   5
   5   2 -12 1058.53 291.828   5
   5  -2 -12 1071.92 319.623  10
   5  -2 -12 1638.93 384.742   4
   5   2 -12 1450.27 382.943  14
   5  -2 -12 1130.23 401.765  14
   5   2 -12 913.256 330.951   6
   5  -2 -12 683.819 287.965   6
   5  -2 -11 15512.9 835.876   5
   5   2 -11 15896.4 891.826   5
   5  -2 -11 14224.9 903.533  10
   5   2 -11 15276.3 978.574  14
   5  -2 -11 13187.9 850.451   4
   5   2 -11 14323.2 892.204   6
   5  -2 -11 15252.3 1008.39  14
   5  -2 -11 15212.7 864.993   6
   5  -2 -10 6242.73 552.735   5
   5   2 -10 6351.29 598.297   5
   5  -2 -10 5943.70 641.813  10
   5   2 -10 6896.79 698.995  14
   5  -2 -10 6866.25 723.939  14
   5  -2 -10 4846.91 584.161   4
   5   2 -10 5979.18 615.786   6
   5  -2 -10 6582.19 587.637   6
   5  -2  -9 64514.9 1732.97   5
   5   2  -9 67473.8 1818.67   5
   5  -2  -9 62324.5 1935.42  10
   5   2  -9 59867.6 1734.42  10
   5   2  -9 62683.1 1755.05   4
   5  -2  -9 62896.5 1776.97   4
   5   2  -9 68111.5 2180.87  15
   5  -2  -9 68324.3 2256.88  15
   5   2  -9 65057.6 1961.73  14
   5  -2  -9 65163.7 1993.59  14
   5   2  -9 65237.2 1801.65   6
   5  -2  -9 68204.0 1790.42   6
   5  -2  -8 1051.09 351.803   2
   5  -2  -8 1049.56 277.226   5
   5   2  -8 1130.79 248.458   5
   5  -2  -8 1007.75 305.328  10
   5   2  -8 1488.54 348.089  15
   5  -2  -8 848.693 292.436  15
   5   2  -8 571.949 317.989   4
   5  -2  -8 615.825 335.934  14
   5  -2  -8 1252.80 300.424   4
   5   2  -8 489.159 289.743   6
   5  -2  -8 990.125 217.543   6
   5   2  -8 1071.13 304.396  14
   5   2  -7 54427.3 1677.45  15
   5  -2  -7 55551.2 1776.46  15
   5  -2  -7 55540.0 1993.52   2
   5  -2  -6 41.7662 147.885   2
   5   2  -6 313.407 198.483   2
   5   2  -6 164.885 121.065  15
   5  -2  -6 189.195 190.448  15
   5  -2  -5 38036.5 1558.53   2
   5   2  -5 40238.7 1173.02  15
   5   2  -5 39300.0 1532.21   2
   5   2  -4 11381.8 553.864  15
   5  -2  -4 11331.0 859.357   2
   5   2  -4 11303.0 819.068   2
   5   2  -3 7474.44 388.075  15
   5  -2  -3 7582.44 712.916   2
   5   2  -3 6347.42 616.947   2
   5  -2  -2-48.7634 228.663   2
   5   2  -2 0.92219 221.743   2
   5  -2  -1 2249.24 380.697   2
   5   2  -1 1795.40 379.647   2
  -5  -2   1 2616.16 273.623   1
  -5   2   1 2041.64 243.383   1
  -5  -2   0 26648.5 920.356   1
   5  -2   0 23059.1 1061.74   2
   5   2   0 25558.8 1190.14   2
  -5   2   0 24988.3 880.174   1
  -5  -2  -1 108210. 2029.67   1
   5  -2   1 109645. 2265.95   2
   5   2   1 106856. 2457.26   2
  -5   2  -1 107156. 2024.11   1
  -5   2  -2 5142.98 512.293   1
  -5  -2  -2 5004.35 502.686   1
   5  -2   2 5093.24 494.968   2
   5   2   2 5413.17 594.859   2
  -5   2  -3 52629.1 1685.73   1
  -5  -2  -3 53372.8 1708.92   1
   5   2   3 54903.0 1842.38   2
  -5  -2  -4 3331.53 501.619   1
  -5   2  -4 2610.59 443.685   1
   5   2   4 3008.37 471.495   2
  -5   2  -5 73571.2 2302.78   1
  -5  -2  -5 72279.2 1812.26   8
   5   2   5 70812.6 1765.16  13
  -5  -2  -5 73695.2 2355.39   1
  -5   2  -5 71560.9 1849.28  12
  -5  -2  -6-365.073 229.126   8
   5   2   6 307.348 222.409  13
  -5   2  -6-74.4924 179.004  12
   5   2   7 17917.8 874.237  13
  -5  -2  -7 17810.5 963.201   8
  -5   2  -7 17761.6 922.408  12
  -5  -2  -7 19077.5 923.805  12
  -5   2  -8 2004.79 393.721  11
  -5   2  -9 11537.5 716.930  11
  -5  -2  -9 12132.0 667.031   6
  -5   2 -10 24.9450 122.805  11
  -5  -2 -10 23.0944 116.150  11
  -5  -2 -10-26.8765 106.439   6
   5   3 -14 2958.45 244.516   5
   5  -3 -14 5348.87 327.587   6
   5   3 -13 12148.9 618.757   5
   5   3 -13 11577.3 645.676  14
   5  -3 -13 15558.6 705.492   4
   5   3 -13 16255.8 725.351   6
   5  -3 -13 11279.0 606.856   6
   5  -3 -12 1683.89 255.530   5
   5   3 -12 1362.80 287.422   5
   5  -3 -12 1736.28 388.646  10
   5   3 -12 1456.04 366.770  14
   5  -3 -12 1223.85 340.137   4
   5   3 -12 1887.58 391.312   6
   5  -3 -12 1302.46 296.581   6
   5  -3 -11 19130.7 892.158   5
   5   3 -11 17665.0 941.913   5
   5  -3 -11 17225.4 998.213  10
   5  -3 -11 17254.2 950.527   4
   5  -3 -11 18315.2 1074.37  14
   5   3 -11 18529.4 1053.61  14
   5   3 -11 17964.4 962.233   6
   5  -3 -11 19546.9 951.453   6
   5  -3 -10 16797.7 872.451   5
   5   3 -10 17105.3 951.075   5
   5  -3 -10 16539.3 1034.07  10
   5  -3 -10 14988.6 922.094   4
   5  -3 -10 18005.7 1084.77  14
   5   3 -10 16610.3 1021.12  14
   5   3 -10 16982.5 963.413   6
   5  -3 -10 17569.6 939.212   6
   5  -3  -9 19509.8 945.281   5
   5   3  -9 20865.3 1021.95   5
   5  -3  -9 20128.1 1130.54  10
   5   3  -9 20195.5 1116.98  14
   5   3  -9 23887.2 1122.83   4
   5  -3  -9 20151.0 1120.27  14
   5  -3  -9 19296.3 993.722   4
   5   3  -9 20497.5 1204.32  15
   5   3  -9 18326.7 998.783   6
   5  -3  -9 21343.3 1005.69   6
   5  -3  -8 4403.28 629.680   2
   5  -3  -8 4446.27 448.500   5
   5   3  -8 5443.63 523.929   5
   5  -3  -8 4558.40 559.188  10
   5   3  -8 6331.18 612.784   4
   5   3  -8 4961.17 579.041  15
   5   3  -8 5577.15 603.002  14
   5  -3  -8 4302.27 537.212  14
   5  -3  -8 4552.34 499.647   4
   5  -3  -8 5075.74 483.312   6
   5   3  -8 3434.00 471.615   6
   5   3  -7 20235.5 1025.90  15
   5  -3  -7 19741.6 1220.33   2
   5  -3  -6 841.133 313.672   2
   5   3  -6 598.241 233.405   2
   5   3  -6 727.877 188.853  15
   5   3  -5 55365.0 1370.85  15
   5  -3  -5 55063.2 1908.83   2
   5   3  -5 54115.9 1809.86   2
   5  -3  -4 1927.52 417.824   2
   5   3  -4 2200.45 401.917   2
   5   3  -4 2060.53 238.508  15
   5  -3  -3 64622.9 1990.68   2
   5   3  -3 62367.6 1823.35   2
   5  -3  -2 2090.13 425.624   2
  -5   3   2 2355.79 254.210  16
   5   3  -2 2185.72 402.611   2
  -5   3   2 2073.54 222.566   1
  -5  -3   1 27278.1 873.349   1
   5  -3  -1 24230.6 1160.60   2
  -5   3   1 25822.9 856.617   1
   5   3  -1 23463.5 1155.93   2
  -5  -3   0 865.651 211.364   1
   5  -3   0 1228.67 310.179   2
  -5   3   0 918.348 219.909   1
   5   3   0 1103.63 338.919   2
  -5  -3  -1 81376.6 1843.84   1
   5  -3   1 80200.1 1948.73   2
  -5   3  -1 80610.3 1808.53   1
   5   3   1 78778.0 2184.62   2
   5   3   2 4120.65 549.482   2
  -5  -3  -2 3884.49 471.800   1
   5  -3   2 4378.98 463.434   2
  -5   3  -2 4167.30 477.899   1
  -5  -3  -3 36759.5 1469.32   1
   5   3   3 37021.4 1601.89   2
  -5   3  -3 37129.9 1449.75   1
  -5   3  -4 14780.3 988.989   1
  -5  -3  -4 15360.3 1031.99   1
   5   3   4 14973.0 1045.99   2
  -5   3  -5 384.390 247.979   1
  -5  -3  -5 185.110 210.132   8
   5   3   5-17.1331 242.045  13
  -5  -3  -5 57.8316 158.589   1
  -5   3  -5 70.0735 178.823  12
  -5  -3  -6 13514.8 841.468   8
   5   3   6 12879.0 801.773  13
  -5   3  -6 13299.6 827.840  12
  -5   3  -7 18372.2 1029.60  11
  -5  -3  -7 17989.9 960.306   8
   5   3   7 18457.6 918.731  13
  -5   3  -7 19026.2 948.230  12
  -5  -3  -7 17400.0 871.028  12
  -5   3  -8 1802.88 355.261  11
  -5  -3  -8 1878.60 345.565   8
   5   3   8 2112.98 322.101  13
  -5   3  -8 1912.05 294.660  12
  -5   3  -9 30928.2 1135.76  11
  -5  -3  -9 29645.8 1041.58   6
  -5   3 -10 879.381 196.866  11
  -5  -3 -10 693.733 165.048  11
  -5  -3 -10 674.014 164.365   6
   5   4 -14 18613.3 536.140   5
   5   4 -13 5288.44 412.213   5
   5   4 -13 5135.40 417.787  14
   5  -4 -13 5633.35 424.930   6
   5   4 -12 4687.04 476.864   5
   5  -4 -12 4393.18 488.175   4
   5   4 -12 5019.22 508.097  14
   5  -4 -12 4096.19 450.601   6
   5   4 -11 29839.8 1183.52   5
   5  -4 -11 28426.6 1268.89  10
   5  -4 -11 28724.9 1193.21   4
   5   4 -11 29504.9 1267.81  14
   5  -4 -11 31180.5 1364.42  14
   5   4 -11 28261.0 1166.07   6
   5  -4 -11 29208.2 1132.38   6
   5  -4 -10 991.356 252.772   5
   5   4 -10 871.086 307.300   5
   5  -4 -10 118.288 415.429  10
   5  -4 -10 827.429 356.926  14
   5   4 -10 788.941 345.113  14
   5  -4 -10 628.734 270.732   4
   5   4 -10 464.214 344.170   6
   5  -4 -10 682.926 237.970   6
   5   4  -9 2263.33 426.770  14
   5  -4  -9 2465.19 366.964   5
   5   4  -9 2664.81 399.601   5
   5  -4  -9 2932.44 488.244  10
   5  -4  -9 2654.60 484.621  14
   5  -4  -9 2523.86 417.063   4
   5   4  -9 1911.82 387.453   6
   5  -4  -9 2726.83 367.917   6
   5   4  -8 7552.57 610.766   5
   5  -4  -8 8114.32 728.139  10
   5  -4  -8 8340.03 651.294   4
   5  -4  -8 8717.13 881.533   2
   5   4  -8 8340.27 715.384  15
   5   4  -8 7885.95 691.858  14
   5   4  -8 7238.89 528.386   7
   5   4  -8 7583.91 656.564   6
   5  -4  -8 8264.34 609.665   6
   5  -4  -8 8274.96 721.135  14
   5  -4  -7 388.417 226.333   2
   5   4  -7 778.744 226.982  15
   5   4  -6 42970.9 1358.27  15
   5  -4  -6 40679.4 1738.16   2
   5   4  -6 39524.5 1516.10   2
   5   4  -5 14396.0 707.970  15
   5  -4  -5 14950.2 1032.88   2
   5   4  -5 15685.7 974.369   2
   5  -4  -4 51112.7 1838.63   2
   5   4  -4 55365.1 1205.90  15
   5   4  -4 53150.5 1721.88   2
   5  -4  -3 3946.27 537.175   2
   5   4  -3 3990.30 507.192   2
  -5   4   2 36530.6 1089.04  16
   5  -4  -2 38244.0 1558.24   2
  -5   4   2 38708.5 1022.43   1
   5   4  -2 38129.3 1479.82   2
  -5   4   1 3422.45 374.288  16
   5  -4  -1 4517.72 544.726   2
  -5   4   1 4300.21 382.062   1
   5   4  -1 4211.89 558.594   2
  -5  -4   0 47029.1 1362.87   1
   5  -4   0 45978.5 1542.27   2
  -5   4   0 46083.0 1340.27   1
   5   4   0 44900.5 1673.71   2
   5  -4   1 85.0401 101.804   2
   5   4   1 76.9463 82.3290  16
   5   4   1 357.982 279.428   2
  -5  -4  -1 188.082 173.376   1
  -5   4  -1 157.961 164.532   1
  -5   4  -2 43448.6 1510.76   1
  -5  -4  -2 41661.0 1502.77   1
   5   4   2 43624.2 1717.10   2
  -5  -4  -3 46161.5 1711.22   1
  -5   4  -3 46573.2 1674.18   1
   5   4   3 46149.0 1838.26   2
  -5   4  -4 4911.64 599.172   1
   5   4   4 5150.40 678.409   2
  -5  -4  -4 5269.71 639.007   1
  -5   4  -5 9592.85 870.340   1
  -5  -4  -5 8872.39 678.668   8
   5   4   5 10123.4 729.547  13
  -5   4  -5 8524.26 669.933  12
  -5  -4  -5 9402.12 890.807   1
  -5   4  -6 12144.8 834.747  11
  -5  -4  -6 13270.5 831.308   8
   5   4   6 12896.3 827.769  13
  -5   4  -6 12655.2 810.785  12
  -5   4  -7 11096.1 803.545  11
  -5  -4  -7 11061.7 752.927   8
   5   4   7 11430.8 753.440  13
  -5   4  -7 10381.7 719.915  12
  -5   4  -8 6395.44 596.446  11
  -5  -4  -8 6594.44 564.918   8
   5   4   8 7330.05 542.257  13
  -5   4  -8 7433.84 542.790  12
  -5   4  -9 4303.46 449.504  11
   5   4   9 4105.19 338.813  13
  -5  -4  -9 4251.36 420.503   6
  -5   4 -10 20842.2 734.576  11
  -5  -4 -10 19131.6 668.739   6
   5   5 -13 209.097 147.656   5
   5   5 -13 524.716 180.000  14
   5  -5 -13 215.224 197.074   6
   5   5 -12 21602.9 904.424   5
   5  -5 -12 24159.5 1019.34  10
   5  -5 -12 22177.4 926.482   4
   5   5 -12 21503.0 940.601  14
   5  -5 -12 20703.5 850.722   6
   5   5 -11-41.0214 208.463   5
   5   5 -11 261.396 250.201  14
   5  -5 -11-230.959 361.343   4
   5  -5 -11-582.707 246.672   6
   5   5 -10 52354.9 1588.53   5
   5  -5 -10 51107.9 1785.00  10
   5  -5 -10 56459.0 1853.29  14
   5  -5 -10 51431.9 1625.20   4
   5   5 -10 50260.9 1678.75  14
   5   5 -10 51877.1 1356.52   7
   5   5 -10 53321.9 1615.70   6
   5  -5 -10 54892.3 1556.03   6
   5   5  -9 109.253 203.248   5
   5  -5  -9-276.864 296.640  10
   5  -5  -9-136.779 223.556  14
   5   5  -9 421.524 231.973  14
   5  -5  -9 109.945 218.427   4
   5   5  -9 579.237 186.739   7
   5   5  -9 311.911 300.926   6
   5  -5  -9-104.406 139.967   6
   5   5  -8 53597.3 1572.78   5
   5  -5  -8 50923.4 1762.93  10
   5  -5  -8 52775.8 2194.44   2
   5   5  -8 51026.5 1771.05  15
   5  -5  -8 51267.2 1601.12   4
   5  -5  -8 54590.8 1781.45  14
   5   5  -8 50640.7 1693.64  14
   5   5  -8 49987.7 1413.93   7
   5   5  -8 50828.1 1589.23   6
   5  -5  -8 52343.9 1489.21   6
   5  -5  -7 339.654 293.527  10
   5   5  -7 349.085 163.334  15
   5   5  -7 523.332 224.768  14
   5   5  -6 27184.7 1104.98  15
   5  -5  -6 26111.7 1444.24   2
   5  -5  -5 67.6786 224.025   2
   5   5  -5 42.0704 152.829   2
   5   5  -5 372.452 144.583  15
   5  -5  -4 4168.26 585.757   2
   5   5  -4 4594.17 550.411   2
  -5   5   3 6693.49 476.205  16
   5  -5  -3 6699.17 709.323   2
   5   5  -3 6327.01 641.181   2
   5  -5  -2 368.905 273.925   2
  -5   5   2 567.541 225.241  16
   5   5  -2 105.944 234.623   2
   5  -5  -1 3453.58 492.942   2
   5   5  -1 2933.07 480.131   2
  -5   5   1 3038.77 383.445  16
  -5   5   1 2911.89 371.247   1
  -5   5   0 46554.0 1478.99  16
   5  -5   0 46076.2 1576.80   2
  -5   5   0 44091.7 1384.32   1
   5   5   0 42285.5 1664.78   2
   5  -5   1 227.108 158.226   2
   5   5   1-29.3164 159.260  16
   5   5   1-322.886 246.690   2
  -5  -5  -1-81.4973 150.917   1
  -5   5  -1 69.3127 147.800   1
  -5  -5  -2 41947.8 1574.63   1
   5   5   2 44242.7 1487.39  16
  -5   5  -2 42830.5 1552.04   1
   5   5   2 41847.9 1733.08   2
   5   5   3 297.331 185.602  16
   5   5   3 74.9341 226.067   2
  -5   5  -3 233.640 212.564   1
  -5  -5  -3 109.096 225.545   1
  -5   5  -4 35649.4 1329.06  11
  -5  -5  -4 33737.8 1619.30   1
   5   5   4 33522.8 1555.53  16
  -5  -5  -4 37279.1 1332.10   8
   5   5   4 38306.3 1326.52  13
  -5   5  -4 36059.9 1344.50  12
   5   5   4 33864.4 1667.39   2
  -5   5  -4 35810.4 1609.71   1
  -5  -5  -5 3400.30 439.576   8
  -5   5  -5 3270.03 455.751  11
  -5   5  -5 3366.34 515.334   1
  -5  -5  -5 2548.62 539.348   1
   5   5   5 3341.87 549.432  16
   5   5   5 3388.43 468.172  13
  -5   5  -5 3409.97 440.792  12
  -5   5  -6 62051.8 1858.21  11
  -5  -5  -6 68471.1 1851.53   8
   5   5   6 65487.6 1825.05  13
  -5   5  -6 62073.8 1786.62  12
  -5   5  -7 2354.54 417.326  11
  -5  -5  -7 2377.32 396.536   8
   5   5   7 2219.24 387.334  13
  -5   5  -7 1969.68 336.778  12
  -5   5  -8 23625.9 1067.15  11
  -5  -5  -8 23226.9 1002.38   8
   5   5   8 23639.6 953.399  13
  -5   5  -8 21274.2 885.319  12
  -5  -5  -9 43.1274 174.135   6
  -5   5  -9 21.2938 173.264  11
   5   5   9-9.71018 122.536  13
  -5   5 -10 7956.70 435.590  11
  -5  -5 -10 7847.98 420.805   6
   5   6 -13 17017.9 631.507   5
   5  -6 -13 16543.9 625.556   4
   5   6 -12 5698.50 479.063  14
   5   6 -12 5882.44 473.346   5
   5  -6 -12 5381.58 482.053   4
   5  -6 -12 5555.79 433.753   6
   5   6 -11 9934.07 664.518   5
   5  -6 -11 9036.92 741.219  10
   5  -6 -11 9552.92 691.693   4
   5   6 -11 9660.35 707.500  14
   5   6 -11 9283.08 527.363   7
   5  -6 -11 8888.73 606.586   6
   5   6 -10 2883.53 418.680   5
   5  -6 -10 1777.48 479.815  10
   5   6 -10 3108.65 471.326  14
   5  -6 -10 2754.64 432.073   4
   5   6 -10 3087.68 357.267   7
   5  -6 -10 3219.17 384.020   6
   5   6  -9 28763.8 1176.39   5
   5   6  -9 28130.1 1075.41   7
   5  -6  -9 28300.8 1371.37  10
   5  -6  -9 28040.7 1219.97   4
   5  -6  -9 30914.6 1377.96  14
   5   6  -9 25731.6 1241.89  14
   5   6  -9 29631.6 1233.11   6
   5  -6  -9 28030.5 1087.31   6
   5   6  -8 165.946 187.040   5
   5  -6  -8 624.765 265.540  10
   5  -6  -8 561.627 155.969   3
   5   6  -8 336.317 184.112  15
   5  -6  -8 318.481 275.365  14
   5   6  -8 490.839 263.239  14
   5  -6  -8 68.4020 103.820   4
   5   6  -8 109.030 159.093   7
   5   6  -7 46459.9 1398.31   5
   5  -6  -7 45859.6 1629.44  10
   5  -6  -7 45238.0 2036.57   2
   5   6  -7 44060.4 1556.65  15
   5  -6  -7 44769.2 1428.66   4
   5   6  -7 45394.9 1579.09  14
   5   6  -7 43746.7 1435.62   6
   5   6  -7 43272.0 1327.61   7
   5  -6  -7 44014.6 1549.43   3
   5   6  -6 14335.7 816.521  15
   5  -6  -6 14622.2 1123.39   2
   5  -6  -5 564.329 304.911   2
   5   6  -5 509.691 180.250   2
   5  -6  -4 20466.1 1245.78   2
   5   6  -4 22384.2 1165.21   2
   5  -6  -3 2570.47 488.715   2
  -5   6   3 3310.16 381.744  16
   5   6  -3 2571.57 443.145   2
  -5   6   2 178054. 2757.61  16
   5  -6  -2 173644. 3354.09   2
   5   6  -2 172138. 3356.59   2
  -5   6   1 12332.4 796.567  16
   5  -6  -1 12560.2 884.456   2
   5   6  -1 12206.7 938.135   2
  -5   6   0 5091.04 558.721  16
   5  -6   0 5492.19 574.620   2
  -5   6   0 5429.82 538.354   1
   5   6   0 5042.17 640.092   2
  -5   6  -1 24891.4 1173.38   1
   5   6   1 23190.1 1300.08   2
   5   6   2 2578.26 386.126  16
   5   6   2 2314.18 449.192   2
  -5   6  -2 2553.25 439.825   1
  -5  -6  -3 4372.57 581.830   1
   5   6   3 4278.42 567.460  16
   5   6   3 4273.79 622.813   2
  -5   6  -3 4836.17 616.325   1
  -5   6  -4 1710.62 343.750  11
  -5  -6  -4 1615.94 396.687   1
   5   6   4 1193.64 344.831  16
   5   6   4 2187.77 430.172   2
  -5  -6  -4 1750.51 354.550   8
  -5   6  -4 1903.46 430.218   1
  -5   6  -4 1420.46 286.280  12
  -5   6  -5 64279.6 1851.92  11
  -5  -6  -5 65220.7 1826.50   8
   5   6   5 63679.1 1789.02  13
  -5   6  -5 64655.1 1855.22  12
  -5   6  -6 5159.42 564.460  11
   5   6   6 5295.26 566.628  13
  -5  -6  -6 4864.34 535.427   8
  -5   6  -6 4626.49 514.807  12
  -5   6  -7 14939.5 899.837  11
  -5  -6  -7 14242.6 826.994   8
  -5   6  -7 14493.7 822.561  12
   5   6   7 15341.0 876.698  13
  -5   6  -8 2649.11 390.091  11
  -5  -6  -8 2652.93 371.126   8
   5   6   8 2367.28 341.530  13
  -5   6  -8 2643.08 308.637  12
  -5   6  -9 2608.28 324.764  11
   5   6   9 2417.06 282.783  13
  -5  -6  -9 2621.66 327.085   6
  -5   6 -10 12397.0 511.684  11
  -5  -6 -10 11633.3 483.161   6
   5   7 -13 6633.96 359.814   5
   5  -7 -13 6806.09 387.524   4
   5   7 -12 184.168 156.520   5
   5   7 -12 514.082 181.912  14
   5   7 -11 3156.50 374.889   5
   5  -7 -11 4097.84 557.896  10
   5   7 -11 3227.87 410.698  14
   5  -7 -11 2647.81 400.534   4
   5   7 -11 3221.28 334.911   7
   5  -7 -11 2855.13 357.430   6
   5   7 -10 10571.8 694.613   5
   5  -7 -10 9096.46 791.298  10
   5  -7 -10 9587.28 710.978   4
   5   7 -10 9731.09 724.043  14
   5   7 -10 8958.29 592.298   7
   5  -7 -10 9699.77 630.391   6
   5   7  -9 1099.17 313.498   5
   5  -7  -9 731.478 390.252  10
   5   7  -9 1177.82 339.445  14
   5  -7  -9 1114.50 298.144   4
   5   7  -9 1253.01 274.097   7
   5   7  -8 1882.09 339.529   5
   5  -7  -8 1624.36 405.987  10
   5  -7  -8 1702.61 346.385   3
   5  -7  -8 1506.94 352.743   4
   5   7  -8 1841.49 398.409  14
   5   7  -8 1333.59 285.265   7
   5   7  -7 32361.6 1169.95   5
   5  -7  -7 32764.5 1399.75  10
   5  -7  -7 32904.2 1792.75   2
   5  -7  -7 31450.0 1225.83   4
   5   7  -7 32186.7 1336.07  14
   5  -7  -7 29800.7 1330.96   3
   5   7  -7 31411.5 1165.64   7
   5  -7  -6 4972.03 701.795   2
   5   7  -6 4080.63 508.850  14
   5  -7  -6 4279.10 527.431   3
   5   7  -6 5139.29 465.833   7
   5  -7  -5 47504.0 2011.05   2
   5  -7  -4 1751.79 415.177   2
   5   7  -4 1415.21 340.428   2
  -5   7   3 55859.5 1617.54  16
   5  -7  -3 53222.5 1981.03   2
   5   7  -3 52031.4 1872.40   2
  -5   7   2 37560.2 1369.15  16
   5  -7  -2 35224.4 1559.75   2
   5   7  -2 34919.7 1577.60   2
  -5   7   1 101933. 2354.57  16
   5  -7  -1 104292. 2564.06   2
   5   7  -1 98728.2 2676.17   2
  -5   7   0 21138.3 1165.31  16
  -5   7   0 19501.5 1043.38   1
   5  -7   0 21276.3 1114.67   2
   5   7   0 19348.5 1208.03   2
  -5   7  -1 19642.2 1102.79   1
   5   7   1 20843.5 1282.33   2
   5   7   2 508.479 221.829   2
  -5   7  -2 732.412 280.468   1
   5   7   3 8221.22 876.549   2
   5   7   3 8265.49 767.475  16
  -5  -7  -3 9350.86 688.980   8
   5   7   3 9731.41 664.559  12
  -5   7  -3 8138.79 801.833   1
  -5   7  -3 8858.91 693.161  12
  -5   7  -4 12170.4 810.317  11
  -5  -7  -4 12474.6 829.042   8
   5   7   4 10870.3 932.434  16
   5   7   4 11419.6 701.741  12
  -5   7  -4 10888.7 784.689  12
  -5   7  -4 11492.9 966.226   1
   5   7   4 11300.3 1038.87   2
  -5   7  -5 3012.54 451.273  11
  -5  -7  -5 3640.14 478.159   8
   5   7   5 3017.54 461.136  13
  -5   7  -5 2991.62 430.508  12
  -5   7  -6 1121.36 316.047  11
  -5  -7  -6 855.497 305.128   8
   5   7   6 899.262 292.182  13
  -5   7  -6 1062.29 321.311  12
  -5   7  -7 12231.4 793.941  11
   5   7   7 13239.8 798.833  13
  -5   7  -7 13063.6 769.073  12
  -5  -7  -7 13830.2 809.016   8
  -5   7  -8 1289.27 301.205  11
  -5  -7  -8 1495.13 298.028   8
   5   7   8 1967.66 326.968  13
  -5   7  -8 1327.83 242.796  12
  -5   7  -9 16958.9 723.243  11
   5   7   9 17336.1 631.504  13
  -5  -7  -9 16231.0 701.546   6
  -5   7 -10 2839.92 232.773  11
  -5  -7 -10 2889.92 226.197   6
   5  -8 -13 10982.7 409.544   4
   5   8 -12 560.925 160.734   5
   5  -8 -12 30.8926 235.179   4
   5   8 -11 23867.6 887.613   5
   5  -8 -11 24316.4 965.789   4
   5   8 -11 22707.0 909.782  14
   5   8 -11 22857.4 802.885   7
   5   8 -10 416.486 209.314   5
   5  -8 -10 160.159 349.310  10
   5  -8 -10 780.030 267.196   4
   5   8 -10 403.151 241.619  14
   5   8 -10 502.717 200.819   7
   5   8  -9 33470.4 1185.23   5
   5  -8  -9 29659.3 1360.08  10
   5  -8  -9 31073.1 1266.62   4
   5   8  -9 30477.1 1261.35  14
   5   8  -9 31639.5 1154.25   7
   5  -8  -9 30093.1 1223.11   3
   5   8  -8 144.784 164.361   5
   5  -8  -8 160.068 193.774   3
   5  -8  -8 365.382 212.907   4
   5   8  -8 176.151 242.818  14
   5   8  -8 38.5801 166.071   7
   5   8  -7 37408.4 1241.78   5
   5  -8  -7 36793.1 1498.43  10
   5  -8  -7 35842.9 1310.63   4
   5   8  -7 37722.7 1440.90  14
   5   8  -7 36689.6 1276.76   7
   5  -8  -7 37601.1 1501.84   3
   5  -8  -6 20293.4 1092.47  10
   5  -8  -6 21786.0 1469.74   2
   5  -8  -6 20837.7 963.159   4
   5   8  -6 20973.1 1065.59  14
   5   8  -6 20802.0 948.392   7
   5  -8  -6 20731.5 1134.03   3
   5  -8  -5 209.398 192.190   2
   5  -8  -5-66.4366 193.757   3
   5   8  -5 43.4412 127.994   7
   5  -8  -4 18399.4 1276.09   2
   5   8  -4 19365.9 1139.50   2
   5  -8  -3 4757.33 665.029   2
  -5   8   3 4731.88 520.812  16
   5   8  -3 5197.63 620.670   2
  -5   8   2 41173.1 1549.52  16
   5  -8  -2 41329.5 1742.94   2
   5   8  -2 42225.6 1803.00   2
   5  -8  -1 3576.43 534.488   2
  -5   8   1 2682.32 460.994  16
   5   8  -1 3445.04 581.251   2
  -5   8   0 6010.60 695.450  16
   5   8   0 5265.38 660.597   2
  -5   8  -1 19863.2 1227.96  16
  -5   8  -1 19905.7 1154.64   1
   5   8   1 21178.7 1336.68   2
   5   8   2 448.543 297.125   2
  -5   8  -2 427.927 266.770   1
   5   8   2 531.498 214.832  12
  -5   8  -2 260.595 194.330  12
   5   8   3 21402.5 1433.99   2
  -5   8  -3 18282.5 944.449  11
   5   8   3 20346.0 952.448  12
  -5   8  -3 20509.8 1273.41   1
  -5   8  -3 19703.1 1046.42  12
  -5  -8  -4 3223.80 479.059   8
  -5   8  -4 3268.84 424.537  11
   5   8   4 3747.50 440.995  12
  -5   8  -4 3359.74 477.541  12
  -5   8  -5 51485.9 1629.41  11
  -5  -8  -5 52265.0 1661.25   8
   5   8   5 52612.1 1622.23  13
  -5   8  -5 51346.3 1677.08  12
  -5  -8  -6 54.5767 244.848   8
  -5   8  -6 207.408 221.887  11
   5   8   6 286.856 283.122  13
  -5   8  -6-31.0511 214.001  12
  -5   8  -7 25447.3 1075.58  11
  -5  -8  -7 25936.6 1054.04   8
   5   8   7 26397.4 1078.89  13
  -5   8  -7 23969.2 1004.99  12
  -5   8  -8 3377.71 393.275  11
   5   8   8 3555.41 381.303  13
  -5  -8  -8 3520.08 369.089   8
  -5   8  -8 3009.57 312.933  12
  -5   8  -9 5091.66 384.709  11
   5   8   9 5108.53 340.718  13
  -5  -8  -9 4923.89 371.756   6
   5   9 -12 15677.4 514.567   5
   5  -9 -12 15504.5 605.189   4
   5   9 -11 3629.08 330.936   5
   5  -9 -11 3603.16 382.218   4
   5   9 -10 25367.4 928.274   5
   5  -9 -10 25995.4 1146.40  10
   5   9 -10 22918.1 966.440  14
   5  -9 -10 24453.3 1018.06   4
   5   9 -10 24279.5 923.886   7
   5  -9  -9 443.961 221.440   3
   5   9  -9 706.734 222.010   5
   5  -9  -9 73.6026 409.833  10
   5   9  -9 398.046 242.424  14
   5  -9  -9 623.701 269.598   4
   5   9  -9 622.827 244.662   7
   5  -9  -8 17469.9 1044.54  10
   5  -9  -8 17036.9 940.374   4
   5   9  -8 16151.6 937.884  14
   5   9  -8 16741.9 876.658   7
   5  -9  -8 16809.6 1004.26   3
   5  -9  -7 12285.5 893.387  10
   5  -9  -7 12421.7 791.684   4
   5   9  -7 11549.2 816.332  14
   5  -9  -7 12945.9 904.998   3
   5   9  -7 12084.3 757.931   7
   5  -9  -6 41104.5 1537.84  10
   5  -9  -6 40472.5 1364.79   4
   5   9  -6 43179.6 1523.01  14
   5   9  -6 43976.1 1392.43   7
   5  -9  -6 42011.2 1632.47   3
   5  -9  -5 15155.0 1216.92   2
   5   9  -5 14637.1 805.611   7
   5   9  -5 15160.3 921.789  14
   5  -9  -5 15787.4 1007.65   3
   5  -9  -4 15298.7 969.493   3
   5  -9  -4 13842.2 1132.59   2
   5  -9  -4 13628.2 786.114   9
   5   9  -4 14604.9 896.277  14
   5   9  -4 14541.7 787.060   7
   5  -9  -3 191.628 316.569   2
  -5   9   3 474.392 233.921  16
   5   9  -3 609.574 260.288   2
  -5   9   2 9063.88 786.139  16
   5  -9  -2 9239.68 866.606   2
   5   9  -2 10298.6 937.402   2
   5  -9  -1 1993.55 412.371   2
  -5   9   1 1033.96 341.336  16
   5   9  -1 2179.62 471.502   2
  -5   9   0 25836.0 1438.42  16
   5   9   0 25365.9 1023.37  12
   5   9   0 26021.6 1516.54   2
  -5   9  -1 2051.38 427.821   1
   5   9   1 2193.95 470.011   2
  -5   9  -1 2530.22 490.739  16
   5   9   1 2358.22 328.931  13
   5   9   1 2114.62 341.766  12
  -5   9  -1 2198.33 388.969  12
   5   9   2 51125.1 2197.52   2
  -5   9  -2 50995.3 1995.11   1
   5   9   2 48891.7 1469.29  12
  -5   9  -2 47369.8 1619.34  12
  -5   9  -3 13227.8 807.271  11
   5   9   3 13193.8 786.262  12
  -5   9  -3 11966.1 859.885  12
  -5   9  -4 18069.6 959.122  11
  -5  -9  -4 18728.3 1020.34   8
   5   9   4 17612.7 874.334  12
  -5   9  -4 17278.9 1000.34  12
  -5   9  -5 2507.50 404.568  11
  -5  -9  -5 3312.41 458.155   8
   5   9   5 2583.84 412.580  13
  -5   9  -5 2435.71 413.316  12
  -5   9  -6 17754.0 916.371  11
  -5  -9  -6 17748.6 927.446   8
   5   9   6 17247.5 924.829  13
  -5   9  -6 17482.2 929.496  12
  -5   9  -7 12615.4 731.750  11
  -5  -9  -7 11960.4 696.909   8
   5   9   7 12213.0 730.065  13
  -5   9  -7 11956.1 687.735  12
  -5   9  -8 14610.9 692.133  11
  -5  -9  -8 14873.4 665.997   8
   5   9   8 15009.4 675.188  13
  -5   9  -8 13695.5 587.387  12
  -5  -9  -8 12933.0 651.247   6
  -5   9  -9 254.045 132.820  11
   5   9   9 252.861 132.610  13
  -5  -9  -9 325.900 114.402   6
   5 -10 -12 211.905 139.988   4
   5 -10 -11 6619.46 459.395   4
   5  10 -11 6472.77 397.154   7
   5 -10 -10 317.129 198.666   4
   5  10 -10 388.339 133.769  14
   5 -10  -9-36.9506 161.912   3
   5 -10  -9 518.854 378.125  10
   5  10  -9 455.023 219.524  14
   5 -10  -9 268.058 213.754   4
   5  10  -9 280.157 210.292   7
   5 -10  -8 103.030 210.394   3
   5 -10  -8 91.7675 190.366   4
   5  10  -8 180.417 198.015  14
   5  10  -8 227.066 205.115   7
   5 -10  -7 914.970 358.474  10
   5 -10  -7 1795.60 395.966   3
   5  10  -7 1679.38 320.967   7
   5  10  -7 1511.10 332.029  14
   5 -10  -7 1696.15 332.762   4
   5  10  -6 108772. 2403.06  14
   5 -10  -6 107369. 2398.19  10
   5  10  -6 105709. 2170.14   7
   5 -10  -6 105135. 2189.21   4
   5 -10  -6 109459. 2658.89   3
   5  10  -5 1212.27 350.086  14
   5 -10  -5 860.942 312.660   3
   5 -10  -5 1344.84 288.851   9
   5  10  -5 1470.61 289.184   7
   5 -10  -4 4303.64 482.221   9
   5  10  -4 4859.49 569.420  14
   5  10  -4 5314.25 520.947   7
   5  10  -4 4543.56 444.964  12
   5 -10  -4 5140.35 617.429   3
   5 -10  -3 718.508 290.376   3
  -5  10   3 1177.24 297.707  16
   5  10  -3 1164.14 339.066   2
   5 -10  -3 930.438 291.353   9
   5  10  -3 865.697 239.446   7
   5  10  -3 837.079 300.319  14
   5  10  -3 1073.92 259.712  12
   5 -10  -2 54394.9 1822.83   3
  -5  10   2 53925.1 1990.25  16
   5 -10  -2 54064.2 1661.11   9
   5 -10  -2 51219.3 1636.17  13
   5  10  -2 52778.5 1436.02   7
   5  10  -2 56155.4 1506.68  12
   5  10  -2 51300.1 2127.17   2
   5  10  -1 432.501 217.453   2
   5 -10  -1 720.375 227.404   3
  -5  10   1 161.674 289.125  16
   5  10  -1 157.719 161.545   7
   5  10  -1 337.586 191.437  12
  -5  10   1 171.297 176.346  12
  -5  10   0 62646.2 2315.34  16
   5  10   0 63119.1 1651.78  12
  -5  10   0 61075.0 1787.30  12
   5  10   0 64847.7 2444.71   2
  -5  10  -1 4396.66 671.929  16
  -5  10  -1 4149.19 587.952   1
   5  10   1 3530.11 646.826   2
   5  10   1 3500.48 412.529  13
   5  10   1 3969.22 463.984  12
  -5  10  -1 3634.72 486.446  12
   5  10   2 519.280 234.832  13
   5  10   2 285.185 222.720  12
  -5  10  -2 546.785 263.008  12
  -5  10  -3 4660.18 491.113  11
   5  10   3 5372.23 531.348  13
   5  10   3 4873.15 510.087  12
  -5  10  -3 5141.08 602.782  12
  -5  10  -4 16214.8 890.910  11
  -5 -10  -4 16726.9 963.284   8
   5  10   4 16121.0 897.323  13
   5  10   4 16304.4 836.085  12
  -5  10  -4 15002.2 924.180  12
  -5  10  -5 609.996 230.443  11
  -5 -10  -5 569.763 303.103   8
   5  10   5 500.262 277.356  13
  -5  10  -5 510.647 294.392  12
  -5  10  -6 2289.37 361.977  11
  -5 -10  -6 2830.15 410.297   8
   5  10   6 2257.12 401.274  13
  -5  10  -6 2207.11 373.894  12
  -5  10  -7 10326.0 622.472  11
  -5 -10  -7 9858.38 598.997   8
   5  10   7 10371.4 636.553  13
  -5  10  -7 9890.63 591.802  12
  -5  10  -8 20748.0 741.293  11
  -5 -10  -8 20197.0 706.327   8
   5  10   8 20340.2 721.293  13
  -5  10  -9 343.737 97.3273  11
   5  10   9 482.160 101.541  13
   5  11 -11-74.9130 99.8180   7
   5 -11 -10 7044.72 489.747   4
   5  11 -10 6724.06 457.465   7
   5 -11  -9 6050.23 513.277   4
   5  11  -9 5502.66 448.116  14
   5  11  -9 5123.91 463.454   7
   5 -11  -9 4886.66 492.163   3
   5 -11  -8 18229.3 905.267   4
   5  11  -8 15924.0 832.768  14
   5  11  -8 17621.8 862.949   7
   5 -11  -8 17354.0 988.332   3
   5 -11  -7 1476.81 368.021   3
   5 -11  -7 1102.63 336.854  10
   5 -11  -7 1665.23 303.424   4
   5  11  -7 1376.60 322.756  14
   5  11  -7 1187.21 315.235   7
   5 -11  -6 2324.23 462.609   3
   5  11  -6 2693.90 434.325  14
   5 -11  -6 2568.20 378.228   4
   5  11  -6 2520.25 394.288   7
   5 -11  -5 15963.1 886.833   9
   5  11  -5 18765.1 1006.61  14
   5  11  -5 16908.2 882.043   7
   5  11  -5 16100.5 786.078  12
   5 -11  -5 16977.6 1087.29   3
   5 -11  -4 450.525 312.757   3
   5 -11  -4 527.407 232.955   9
   5  11  -4 276.731 264.425  14
   5  11  -4 639.502 237.449   7
   5  11  -4 588.064 222.359  12
   5 -11  -3 15356.8 920.600   9
   5  11  -3 15992.2 950.034  14
   5  11  -3 15618.4 833.134   7
   5  11  -3 15488.8 803.757  12
   5 -11  -3 15880.6 1044.02   3
   5 -11  -2 347.703 272.825   3
  -5  11   2-92.9383 250.626  16
   5 -11  -2 326.003 198.680   9
   5  11  -2 439.166 194.626   7
   5  11  -2 304.398 176.610  12
  -5  11   1 72278.6 2479.32  16
   5 -11  -1 72907.3 1990.49   9
   5  11  -1 70743.5 1644.01   7
   5  11  -1 72817.2 1783.09  12
  -5  11   1 71487.8 1873.45  12
   5  11  -1 70896.4 2624.98   2
   5 -11  -1 73022.5 2079.14   3
   5 -11   0 2621.67 441.090   9
   5  11   0 2762.95 395.289  12
  -5  11   0 3251.54 464.536  12
   5  11   1 16184.9 829.439  13
   5  11   1 15278.1 849.015  12
  -5  11  -1 16072.7 970.819  12
   5 -11   2 7375.93 655.041   9
   5  11   2 6652.89 565.270  13
   5  11   2 6037.44 567.433  12
  -5  11  -2 6041.16 624.014  12
  -5  11  -3 329.937 200.391  11
   5 -11   3 51.4465 213.997   9
   5  11   3 252.581 215.152  13
   5  11   3 70.3925 188.934  12
  -5  11  -3-42.7640 224.832  12
  -5  11  -4 6618.28 560.956  11
   5 -11   4 6915.57 574.559   9
  -5 -11  -4 6507.52 614.121   8
   5  11   4 7171.03 604.919  13
   5  11   4 7006.05 542.894  12
  -5  11  -4 7011.46 640.759  12
  -5  11  -5 3823.58 430.076  11
  -5 -11  -5 3734.49 474.089   8
   5  11   5 3365.78 433.974  13
  -5  11  -5 3277.49 448.050  12
  -5  11  -6 18760.9 831.080  11
  -5 -11  -6 18911.7 869.413   8
   5  11   6 18743.4 867.839  13
  -5  11  -6 17869.2 846.228  12
  -5  11  -7 18593.3 746.759  11
  -5 -11  -7 18520.8 742.657   8
   5  11   7 19724.4 779.640  13
  -5  11  -7 18740.0 731.854  12
  -5  11  -8 4149.01 303.553  11
  -5 -11  -8 4290.92 300.171   8
   5  11   8 4174.21 310.133  13
   5 -12 -11 15371.2 487.740   4
   5  12 -11 16664.1 485.908   7
   5 -12 -10 1183.92 219.897   4
   5  12 -10 1171.02 206.761   7
   5 -12  -9 20182.3 827.205   4
   5  12  -9 19893.1 796.455   7
   5 -12  -9 18921.3 877.222   3
   5 -12  -8 189.828 245.575   3
   5 -12  -8 490.056 212.979   4
   5  12  -8 129.442 220.198   7
   5 -12  -7 40101.7 1293.67   4
   5  12  -7 37206.3 1238.94  14
   5  12  -7 40750.3 1289.56   7
   5 -12  -7 41060.3 1552.27   3
   5 -12  -6 706.564 299.898   3
   5 -12  -6 758.470 231.938   9
   5  12  -6 758.262 296.014   7
   5  12  -6 722.200 235.859  14
   5 -12  -6 468.211 183.566   4
   5 -12  -5 2665.98 495.817   3
   5 -12  -5 2179.66 353.735   9
   5  12  -5 1972.48 373.420  14
   5 -12  -5 2004.17 326.404   4
   5  12  -5 2403.58 367.632   7
   5  12  -5 1942.61 294.966  12
   5 -12  -4 1463.98 364.634   3
   5 -12  -4 1469.19 348.703   9
   5  12  -4 1870.68 407.157  14
   5  12  -4 1605.22 311.205   7
   5  12  -4 1657.91 297.178  12
   5 -12  -3 297.267 255.286   3
   5 -12  -3 207.370 223.983   9
   5  12  -3 604.534 281.350  14
   5  12  -3 599.692 223.887   7
   5  12  -3 542.682 240.222  12
   5 -12  -2 336.406 259.531   3
   5 -12  -2 532.738 258.575   9
   5  12  -2 498.288 284.764  14
   5  12  -2 482.511 196.971   7
   5  12  -2 303.383 196.610  12
   5 -12  -1 6124.25 622.497   9
   5  12  -1 5825.93 494.323   7
   5  12  -1 6481.76 557.211  12
  -5  12   1 5976.27 567.102  12
   5 -12  -1 6089.21 639.977   3
   5 -12   0 1703.36 403.641   9
   5  12   0 1544.07 316.071  12
  -5  12   0 1307.90 330.119  12
   5 -12   1 7244.32 671.240   9
   5  12   1 7688.93 626.838  12
  -5  12  -1 7428.10 672.374  12
   5 -12   2 1074.31 319.124   9
   5  12   2 1344.28 295.960  13
   5  12   2 654.377 243.679  12
  -5  12  -2 864.063 325.723  12
   5 -12   3 46732.2 1490.75   9
   5  12   3 45160.3 1386.58  13
   5  12   3 46048.0 1386.26  12
  -5  12  -3 44787.0 1548.60  12
  -5  12  -4 2526.24 326.030  11
   5 -12   4 2129.65 332.189   9
  -5 -12  -4 2370.45 404.916   8
   5  12   4 2130.90 353.465  13
   5  12   4 2594.61 349.794  12
  -5  12  -4 2048.40 395.066  12
  -5  12  -5 33918.5 1089.48  11
  -5 -12  -5 33019.1 1178.99   8
   5  12   5 33685.0 1136.18  13
  -5  12  -5 31184.5 1153.63  12
  -5  12  -6 357.476 165.347  11
  -5 -12  -6 396.654 200.553   8
   5  12   6 356.229 205.504  13
  -5  12  -6 445.094 214.567  12
  -5  12  -7 14764.7 578.481  11
  -5 -12  -7 14796.8 603.169   8
   5  12   7 14564.7 600.041  13
  -5  12  -7 14389.6 561.006  12
  -5 -12  -8 266.241 78.3807   8
   5  12   8 97.9762 81.5755  13
   5 -13 -10 473.478 123.124   4
   5  13 -10 535.718 135.785   7
   5 -13  -9-37.0418 142.353   3
   5 -13  -9-201.929 139.515   4
   5  13  -9 36.1397 146.326   7
   5 -13  -8 7495.68 515.194   4
   5  13  -8 7073.26 505.196   7
   5 -13  -8 6690.60 578.844   3
   5 -13  -7 2268.59 417.682   3
   5 -13  -7 2754.87 346.891   4
   5  13  -7 2390.37 359.612   7
   5 -13  -6 14934.0 763.304   9
   5 -13  -6 14104.6 744.264   4
   5  13  -6 14097.0 749.994  14
   5  13  -6 15750.1 799.650   7
   5 -13  -6 15639.6 990.612   3
   5 -13  -5 28944.3 1144.10   9
   5 -13  -5 26414.2 1013.65   4
   5  13  -5 27623.8 1103.51  14
   5  13  -5 29880.0 1100.37   7
   5  13  -5 29389.6 1015.83  12
   5 -13  -5 28082.4 1347.25   3
   5 -13  -4 1726.75 391.972   3
   5 -13  -4 1898.63 358.726   9
   5  13  -4 1820.73 350.258  14
   5  13  -4 1864.00 316.468   7
   5  13  -4 1693.51 297.027  12
   5 -13  -3 25051.8 1165.71   9
   5  13  -3 26735.2 1171.90  14
   5  13  -3 25949.9 1006.32   7
   5  13  -3 26338.6 1050.97  12
   5 -13  -3 27481.1 1322.48   3
   5 -13  -2 869.243 330.441   3
   5 -13  -2 376.798 247.078   9
   5  13  -2 450.774 278.172  14
   5  13  -2 273.864 196.432   7
   5  13  -2 412.806 222.188  12
   5 -13  -1 11042.2 824.680   9
   5  13  -1 11354.7 730.005  12
  -5  13   1 11387.0 761.312  12
   5 -13  -1 12074.9 840.105   3
   5 -13   0 1458.03 363.598   9
   5  13   0 1621.94 328.255  12
  -5  13   0 1712.76 320.865  12
   5 -13   1 19834.5 1045.07   9
   5  13   1 19850.0 945.441  12
  -5  13  -1 20142.4 1045.33  12
   5 -13   2 24011.6 1099.49   9
   5  13   2 23298.4 915.004  13
   5  13   2 23484.9 1003.02  12
  -5  13  -2 23815.7 1107.52  12
   5 -13   3 242.107 194.161   9
  -5 -13  -3-84.3085 212.967   8
   5  13   3 421.963 184.447  13
   5  13   3 158.184 195.944  12
  -5  13  -3 85.7382 212.994  12
  -5  13  -4 25881.5 901.047  11
   5 -13   4 24664.8 907.440   9
  -5 -13  -4 26546.0 1072.16   8
   5  13   4 25650.5 952.174  13
  -5  13  -4 24306.0 1041.80  12
  -5  13  -5 1253.63 207.647  11
  -5 -13  -5 1185.19 263.723   8
   5  13   5 1008.42 252.807  13
  -5  13  -5 1159.24 257.602  12
  -5 -13  -6 269.170 163.241   8
   5  13   6 85.8259 153.514  13
  -5  13  -6 110.996 139.388  12
  -5 -13  -7-11.8004 81.8342   8
   5  13   7 112.257 105.795  13
  -5  13  -7-203.547 83.8349  12
   5 -14  -9 1317.30 220.942   3
   5 -14  -9 986.473 155.059   4
   5  14  -9 1383.46 199.603   7
   5 -14  -8 605.524 236.332   3
   5 -14  -8 88.5102 110.949   4
   5  14  -8 486.652 169.527   7
   5 -14  -7 10036.0 552.562   4
   5  14  -7 10717.0 587.774   7
   5 -14  -7 10120.0 707.097   3
   5 -14  -6 9607.34 577.479   4
   5 -14  -6 10406.5 606.472   9
   5  14  -6 11077.6 625.494   7
   5  14  -6 9725.58 508.039  12
   5 -14  -6 9297.78 746.205   3
   5 -14  -5 358.663 315.515   3
   5 -14  -5 295.237 194.030   9
   5  14  -5 264.400 196.037   7
   5  14  -5 331.359 178.109  12
   5 -14  -4 41320.8 1395.80   9
   5  14  -4 37000.8 1223.38  14
   5  14  -4 42548.9 1225.97   7
   5  14  -4 40146.4 1207.62  12
   5 -14  -4 40360.2 1555.07   3
   5 -14  -3 3641.00 514.559   3
   5 -14  -3 3354.62 457.239   9
   5  14  -3 2936.73 410.683  14
   5  14  -3 3358.98 369.370   7
   5  14  -3 3148.72 392.643  12
   5 -14  -2 21478.4 1093.24   9
   5  14  -2 21158.7 1007.62  14
   5  14  -2 21490.2 836.640   7
   5  14  -2 21453.2 947.884  12
   5 -14  -2 21836.9 1107.23   3
   5 -14  -1 4844.33 586.901   9
   5  14  -1 5251.69 533.828  14
   5  14  -1 5035.42 489.950  12
  -5  14   1 5134.66 484.021  12
   5 -14  -1 5074.00 533.527   3
   5 -14   0 30527.7 1271.32   9
   5  14   0 30533.1 1130.88  12
  -5  14   0 30490.3 1198.27  12
   5 -14   1 10263.5 735.147   9
   5  14   1 10157.6 669.254  12
  -5  14  -1 9821.10 707.209  12
   5 -14   2 8309.44 624.902   9
   5  14   2 8892.03 604.426  12
  -5  14  -2 8993.73 661.267  12
   5 -14   3 3665.02 398.371   9
   5  14   3 3756.01 341.223  13
  -5 -14  -3 3619.98 428.128   8
   5  14   3 3442.90 359.919  12
  -5  14  -3 3472.32 414.287  12
  -5 -14  -4 541.757 234.782   8
   5  14   4 551.277 183.776  13
  -5  14  -4 189.097 178.805  12
  -5 -14  -5 8267.36 498.873   8
   5  14   5 8469.45 447.757  13
  -5  14  -5 7465.54 469.105  12
  -5 -14  -6 2956.29 260.275   8
   5  14   6 2872.86 232.200  13
  -5  14  -6 2803.46 244.510  12
   5  15  -9 1141.47 134.678   7
   5  15  -8 3238.35 263.053   7
   5 -15  -8 3299.94 329.149   3
   5 -15  -7 1372.86 302.195   3
   5  15  -7 1343.29 212.099   7
   5 -15  -6 8585.30 499.897   9
   5  15  -6 8726.75 498.817   7
   5 -15  -6 9481.86 685.021   3
   5 -15  -5 2099.07 409.979   3
   5 -15  -5 2181.73 303.757   9
   5  15  -5 2411.89 304.932   7
   5  15  -5 2319.69 273.725  12
   5 -15  -4 4576.87 467.327   9
   5  15  -4 3820.96 360.279   7
   5  15  -4 4601.92 411.220  12
   5 -15  -4 4613.53 539.868   3
   5  15  -3 6005.45 477.919  14
   5 -15  -3 6531.15 583.913   9
   5  15  -3 6117.43 424.729   7
   5  15  -3 6488.39 504.677  12
   5 -15  -3 6070.15 584.837   3
   5 -15  -2 1299.15 318.085   3
   5 -15  -2 1872.98 380.107   9
   5  15  -2 968.699 239.281  14
   5  15  -2 1602.63 302.076  12
   5 -15  -1 13305.4 834.763   9
   5  15  -1 12895.5 733.275  14
   5  15  -1 14215.1 750.393  12
  -5  15   1 12392.9 666.864  12
   5 -15   0 14971.9 856.871   9
   5  15   0 14226.2 762.752  14
   5  15   0 15351.4 779.712  12
  -5  15   0 14531.1 753.072  12
   5 -15   1 850.508 291.929   9
   5  15   1 810.886 235.718  12
  -5  15  -1 927.898 269.237  12
   5 -15   2 27375.9 990.725   9
   5  15   2 27238.3 934.212  12
  -5  15  -2 27033.6 993.657  12
   5 -15   3 121.896 137.926   9
  -5 -15  -3 324.347 208.338   8
   5  15   3 231.519 138.400  12
  -5  15  -3 175.641 181.921  12
  -5  15  -4 3886.24 344.861  12
  -5 -15  -4 4044.11 363.327   8
  -5 -15  -5-23.6507 108.915   8
  -5  15  -5-180.053 104.181  12
   5  16  -7 19991.0 551.770   7
   5 -16  -7 20307.4 762.804   3
   5 -16  -6 1150.03 261.706   3
   5  16  -6 1514.58 194.934   7
   5 -16  -5 5414.62 405.321   9
   5  16  -5 5763.83 349.032   7
   5  16  -5 5747.54 361.392  12
   5 -16  -5 5647.23 504.538   3
   5 -16  -4 1213.26 274.601   3
   5 -16  -4 1302.91 245.521   9
   5  16  -4 1092.61 208.029  12
   5 -16  -3 431.309 185.764   3
   5 -16  -3-49.9846 175.216   9
   5  16  -3 244.600 161.728  12
   5 -16  -2 3217.71 361.524   3
   5 -16  -2 4234.45 462.200   9
   5  16  -2 3967.48 386.961  12
   5 -16  -1 925.138 282.255   9
   5  16  -1 702.822 227.020  12
  -5  16   1 1104.53 197.868  12
   5 -16   0 4692.59 456.993   9
   5  16   0 4911.21 410.763  14
   5  16   0 5208.57 440.193  12
  -5  16   0 4998.02 389.793  12
   5 -16   1 10827.4 611.827   9
   5  16   1 11367.8 580.940  14
   5  16   1 11439.8 591.179  12
  -5  16  -1 11946.9 596.155  12
   5 -16   2 2069.92 264.217   9
   5  16   2 1854.56 254.289  14
  -5 -16  -2 2116.02 290.641   8
   5  16   2 1805.63 236.371  12
  -5  16  -2 1934.51 271.154  12
   5 -16   3 15912.2 512.911   9
  -5 -16  -3 16964.1 655.885   8
   5  16   3 16705.9 610.284  14
  -5  16  -3 16428.6 623.453  12
  -5 -16  -4 365.138 129.074   8
   5  16   4 315.197 103.254  14
  -5  16  -4 437.082 125.652  12
   5 -17  -6 117.514 109.299   3
   5 -17  -5 14766.0 634.188   3
   5 -17  -4-23.0959 144.587   3
   5 -17  -4 118.980 118.255   9
   5  17  -4 161.246 88.5346  12
   5 -17  -3 11045.9 577.345   9
   5  17  -3 10979.7 508.829  12
   5 -17  -3 11057.0 543.771   3
   5 -17  -2 220.309 175.698   9
   5  17  -2 236.984 151.910  12
   5 -17  -1 33091.6 997.258   9
   5  17  -1 33574.4 918.710  12
   5 -17   0 801.665 203.418   9
   5  17   0 822.602 184.997  12
  -5  17   0 636.446 138.117  12
   5 -17   1 7965.78 439.936   9
  -5 -17  -1 8615.93 443.952   8
   5  17   1 8156.97 423.245  12
  -5  17  -1 8014.29 400.127  12
   5 -17   2-54.0286 87.1101   9
  -5 -17  -2 124.803 110.825   8
  -5  17  -2-128.949 105.126  12
  -5 -17  -3 738.844 128.044   8
  -5  17  -3 700.752 117.209  12
   5 -18  -3 1955.55 204.059   9
   5  18  -3 2095.27 193.539  12
   5 -18  -2 4349.24 306.724   9
   5  18  -2 4557.15 283.602  12
   5 -18  -1 264.790 123.126   9
   5  18  -1 404.896 128.273  12
   5 -18   0 5525.35 314.058   9
   5  18   0 5288.22 292.897  12
   6   0 -13 154.927 141.545   5
   6   0 -13 4694.76 461.925   6
   6   0 -12 10303.3 642.956   5
   6   0 -12 9189.83 613.829  10
   6   0 -12 10821.7 776.402  14
   6   0 -12 11959.5 747.263   6
   6   0 -11-69.8708 184.928   5
   6   0 -11 14.1442 327.952  14
   6   0 -11-159.275 315.779   6
   6   0 -10 22416.9 1066.56   5
   6   0 -10 21384.7 1123.88  10
   6   0 -10 19877.9 995.937   4
   6   0 -10 20268.0 1174.72  14
   6   0 -10 21111.4 1070.16   6
   6   0  -9-131.787 214.386   5
   6   0  -9-331.652 255.324  10
   6   0  -9 206.573 304.041  14
   6   0  -9-92.8344 310.371   6
   6   0  -8 238.028 150.982   5
   6   0  -8 52.0497 219.206  10
   6   0  -8-33.9859 111.788  15
   6   0  -8-109.254 268.794  14
   6   0  -8-172.186 337.722   6
   6   0  -7-431.613 237.141   2
   6   0  -7 88.6416 120.296  15
   6   0  -6 356.644 231.958   2
   6   0  -6 276.477 181.038  15
   6   0  -5 93.4986 205.883   2
   6   0  -4 77866.5 2325.59   2
   6   0  -3-35.4623 197.861   2
   6   0  -2 83496.6 2280.28   2
   6   0  -1-186.175 228.523   2
  -6   0   0 158620. 2339.30   1
   6   0   0 147264. 2989.12   2
   6   0   1-110.041 224.016   2
  -6   0  -1 18.9014 128.656   1
  -6   0  -2 66293.9 1841.60   1
   6   0   2 69940.6 2071.64   2
  -6   0  -3-93.6639 134.557   1
  -6   0  -4 803.473 316.703   1
  -6   0  -4 909.825 273.508   8
   6   0   4 817.447 267.418  13
  -6   0  -5-278.192 201.246  12
  -6   0  -5-101.707 245.095   8
   6   0   5-490.275 241.165  13
   6   0   6 12053.2 699.657  13
  -6   0  -6 12162.0 803.155  12
  -6   0  -7 129.291 177.929  12
  -6   0  -8 1212.16 218.353   6
  -6   0  -8 993.968 297.652  11
  -6   0  -9 31.5973 135.753  11
  -6   0 -10 3895.50 266.228  11
   6   1 -14 251.113 90.6352   5
   6  -1 -13 6130.61 413.949   5
   6   1 -13 6691.75 446.489   5
   6   1 -13 7587.43 554.232  14
   6   1 -13 12632.6 687.875   6
   6  -1 -13 10897.4 611.133   6
   6  -1 -12 511.369 196.532   5
   6   1 -12 704.388 237.762   5
   6  -1 -12 125.155 298.528  10
   6  -1 -12 634.155 339.094  14
   6   1 -12 565.987 341.652  14
   6  -1 -12 913.448 334.627   6
   6  -1 -11 587.137 236.495   5
   6   1 -11 295.979 221.066   5
   6  -1 -11-22.9972 371.060  10
   6   1 -11-42.8138 305.511  10
   6  -1 -11 291.516 358.331  14
   6   1 -11 232.610 295.186  14
   6  -1 -11 819.902 385.172   4
   6   1 -11 483.994 349.289   6
   6  -1 -11-63.5098 289.046   6
   6  -1 -10 24566.0 1105.69   5
   6   1 -10 25191.3 1135.97   5
   6  -1 -10 22317.5 1168.77  10
   6   1 -10 23839.0 1150.44  10
   6   1 -10 26691.4 1130.51   4
   6  -1 -10 22539.8 1057.60   4
   6  -1 -10 24795.7 1291.52  14
   6   1 -10 23529.5 1250.91  14
   6   1 -10 23510.7 1126.33   6
   6  -1 -10 22715.0 1113.62   6
   6  -1  -9 6276.69 588.549   5
   6   1  -9 6771.27 621.637   5
   6  -1  -9 6269.83 661.014  10
   6   1  -9 5902.38 609.460  10
   6   1  -9 5681.24 665.650  14
   6   1  -9 6527.75 609.497   4
   6  -1  -9 5895.84 677.323  14
   6  -1  -9 4715.30 552.694   4
   6   1  -9 5980.49 623.673   6
   6  -1  -9 5661.19 584.474   6
   6  -1  -8 48020.3 1518.01   5
   6   1  -8 48229.6 1531.86   5
   6  -1  -8 46728.3 1705.81  10
   6   1  -8 44196.0 1619.55  10
   6   1  -8 41111.0 1330.43   4
   6  -1  -8 42329.9 1357.00   4
   6   1  -8 44348.0 1659.91  15
   6  -1  -8 44361.9 1690.85  15
   6   1  -8 45421.3 1669.87  14
   6  -1  -8 44428.8 1918.75   2
   6  -1  -8 48657.2 1716.77  14
   6   1  -8 44395.7 1498.69   6
   6  -1  -8 45100.4 1483.80   6
   6   1  -7 7503.18 650.193  15
   6  -1  -7 7706.11 670.434  15
   6  -1  -7 7197.17 790.012   2
   6   1  -6 81394.8 1903.65  15
   6  -1  -6 81430.1 2573.43   2
   6   1  -6 81918.9 2517.32   2
   6   1  -5 14973.2 742.245  15
   6   1  -5 13401.2 1013.59   2
   6  -1  -5 15511.2 1120.49   2
   6  -1  -4 8664.91 823.386   2
   6   1  -4 8353.74 775.461   2
   6  -1  -3 48576.1 1794.71   2
   6   1  -3 49073.1 1783.95   2
   6  -1  -2 3227.36 483.555   2
   6   1  -2 3058.02 500.186   2
   6  -1  -1 8373.32 748.601   2
   6   1  -1 8515.99 753.836   2
  -6  -1   0 705.645 185.604   1
   6  -1   0 453.582 272.178   2
   6   1   0 333.033 264.119   2
  -6   1   0 61.2137 116.760   1
  -6   1  -1 99218.3 2070.52   1
  -6  -1  -1 101167. 2095.67   1
   6  -1   1 97988.0 2431.62   2
   6   1   1 97080.4 2490.99   2
  -6   1  -2 6316.88 579.830   1
  -6  -1  -2 6129.72 589.356   1
   6  -1   2 6485.87 653.951   2
   6   1   2 6173.53 655.726   2
  -6  -1  -3 2693.30 430.479   1
   6   1   3 2277.05 454.484   2
  -6   1  -3 2550.75 414.324   1
  -6   1  -4 23800.0 1306.41   1
  -6   1  -4 21110.7 981.176   8
  -6  -1  -4 22173.4 1001.07   8
  -6  -1  -4 21850.7 1248.73   1
   6  -1   4 21075.2 940.691  13
   6   1   4 22102.5 993.648  13
  -6   1  -4 20320.6 1022.90  12
   6  -1   5 8397.61 606.290  13
   6   1   5 8740.74 642.885  13
  -6  -1  -5 8627.44 662.426   8
  -6   1  -5 8334.94 684.261  12
  -6  -1  -6 24019.8 1103.82   8
   6   1   6 25307.2 1032.21  13
  -6   1  -6 24836.8 1121.18  12
  -6  -1  -6 25421.8 1135.11  12
   6   1   7 2549.74 344.414  13
  -6   1  -7 2116.24 346.331  12
  -6  -1  -7 2991.55 366.604  12
  -6   1  -8 13605.5 791.625  11
  -6   1  -8 12665.8 639.640  12
  -6  -1  -8 13105.2 673.822   6
  -6   1  -9 2680.85 326.562  11
  -6  -1  -9 2368.41 298.144  11
  -6  -1  -9 2182.39 234.278   6
  -6   1 -10 13940.9 489.224  11
  -6  -1 -10 13439.7 461.549  11
   6   2 -14 2908.58 222.402   5
   6   2 -13 7586.60 476.406   5
   6  -2 -13 11565.6 580.926  10
   6   2 -13 7714.76 548.081  14
   6  -2 -13 10493.0 582.819   6
   6  -2 -12 42.0187 111.635   5
   6   2 -12 209.580 212.466   5
   6  -2 -12-995.854 333.406  10
   6  -2 -12 3437.63 452.655   4
   6  -2 -12 41.0718 290.071  14
   6   2 -12 119.122 260.437  14
   6   2 -12 4622.77 547.491   6
   6  -2 -12 553.893 298.755   6
   6  -2 -11 6060.70 541.686   5
   6   2 -11 6777.92 602.568   5
   6  -2 -11 6159.59 631.975  10
   6  -2 -11 6319.47 590.926   4
   6  -2 -11 6390.56 688.073  14
   6   2 -11 5795.51 663.225  14
   6   2 -11 7108.74 685.384   6
   6  -2 -11 5803.48 569.556   6
   6  -2 -10 1466.51 316.526   5
   6   2 -10 1407.19 329.318   5
   6  -2 -10 1715.78 387.588  10
   6   2 -10 1358.24 321.012  10
   6  -2 -10 1536.77 402.633  14
   6   2 -10 1625.63 439.190  14
   6  -2 -10 359.045 335.698   4
   6   2 -10 1836.60 447.814   6
   6  -2 -10 1140.98 340.204   6
   6  -2  -9 42891.2 1448.49   5
   6   2  -9 44897.7 1511.68   5
   6  -2  -9 46146.9 1711.70  10
   6   2  -9 41360.1 1516.26  10
   6   2  -9 46761.8 1462.88   4
   6  -2  -9 41613.5 1406.73   4
   6   2  -9 44279.7 1678.39  14
   6  -2  -9 45756.2 1714.79  14
   6   2  -9 42139.3 1511.97   6
   6  -2  -9 44746.0 1496.18   6
   6  -2  -8 238.947 152.584   2
   6  -2  -8-3.43482 151.132   5
   6   2  -8 118.302 192.824   5
   6  -2  -8 365.828 242.938  10
   6   2  -8-75.5580 113.797  10
   6   2  -8 23.8716 101.592  15
   6  -2  -8 573.075 267.375  14
   6   2  -8 184.236 303.274  14
   6   2  -8-13.4567 275.247   6
   6   2  -7 19447.5 952.095   5
   6  -2  -7 19663.5 1114.45  10
   6   2  -7 18489.3 983.432  15
   6  -2  -7 17830.9 1251.50   2
   6   2  -7 17757.4 1148.96   2
   6   2  -7 17197.5 935.944   6
   6  -2  -6 961.050 296.639   2
   6   2  -6 1606.84 390.513   2
   6   2  -6 1837.17 314.273  15
   6  -2  -5 115499. 3069.83   2
   6   2  -5 108392. 2777.38   2
   6  -2  -4 3811.02 577.265   2
   6   2  -4 3333.57 545.882   2
   6  -2  -3 101464. 2655.97   2
   6   2  -3 103586. 2603.21   2
   6  -2  -2 71613.3 2159.13   2
   6   2  -2 72714.0 2156.73   2
   6  -2  -1 15311.9 996.167   2
   6   2  -1 16436.9 1046.88   2
  -6   2   0-147.892 117.701   1
   6  -2   0-113.975 208.175   2
   6   2   0 145.998 227.804   2
  -6  -2   0 382.599 152.765   1
  -6  -2  -1 1000.04 226.473   1
  -6   2  -1 1221.04 263.008   1
   6  -2   1 1018.30 287.318   2
   6   2   1 1163.21 347.577   2
  -6   2  -2 1561.06 309.923   1
  -6  -2  -2 1549.23 348.859   1
  -6   2  -3 26382.8 1279.43   1
  -6  -2  -3 26338.0 1308.74   1
   6   2   3 27200.5 1397.87   2
  -6  -2  -4 4431.22 480.882   8
  -6  -2  -4 4117.65 565.927   1
  -6   2  -4 4115.52 602.355   1
   6   2   4 4316.30 499.832  13
  -6   2  -4 5536.90 550.270  12
  -6  -2  -5 79533.7 1947.76   8
   6   2   5 79360.5 1901.47  13
  -6   2  -5 80866.3 2049.92  12
  -6  -2  -6 2923.83 400.013  12
  -6  -2  -6 3178.13 437.563   8
   6   2   6 3447.74 444.964  13
  -6   2  -6 3071.83 431.345  12
  -6   2  -7 6425.29 600.667  11
   6   2   7 6408.78 520.617  13
  -6   2  -7 6504.50 546.866  12
  -6  -2  -7 6731.28 550.315  12
  -6   2  -8 3418.28 425.135  11
  -6   2  -8 3699.21 359.254  12
  -6   2  -9 34196.1 1040.50  11
  -6  -2  -9 32724.9 992.337  11
  -6  -2  -9 32103.4 873.256   6
  -6   2 -10 244.693 93.2751  11
  -6  -2 -10 126.698 82.1342  11
   6   3 -14 444.870 106.122   5
   6   3 -13 14202.4 637.338   5
   6   3 -13 13923.3 676.889  14
   6  -3 -12 1135.28 211.168   5
   6   3 -12 1508.72 305.489   5
   6  -3 -12 1016.79 309.973  10
   6   3 -12 1201.50 339.154  14
   6  -3 -12 1431.01 343.487   6
   6  -3 -11 35760.9 1199.36   5
   6   3 -11 36322.1 1305.92   5
   6  -3 -11 33190.9 1375.00  10
   6  -3 -11 35716.3 1255.98   4
   6  -3 -11 36423.1 1459.13  14
   6   3 -11 36677.5 1442.07  14
   6   3 -11 37302.3 1361.35   6
   6  -3 -11 36504.8 1283.31   6
   6  -3 -10 2442.44 369.047   5
   6   3 -10 2357.40 402.702   5
   6  -3 -10 2068.00 423.289  10
   6  -3 -10 2060.09 444.384  14
   6   3 -10 1937.96 439.850  14
   6  -3 -10 1294.08 363.049   4
   6   3 -10 3406.94 535.642   6
   6  -3 -10 1357.27 345.904   6
   6  -3  -9 2355.40 378.983   5
   6   3  -9 2457.15 399.518   5
   6  -3  -9 2080.50 437.014  10
   6   3  -9 2822.66 405.639  10
   6  -3  -9 2318.23 468.607  14
   6   3  -9 2603.48 524.183  14
   6  -3  -9 1603.60 364.361   4
   6   3  -9 2344.81 485.389   6
   6  -3  -9 1602.89 360.523   6
   6  -3  -8 16875.7 893.863   5
   6   3  -8 19261.0 980.719   5
   6  -3  -8 17571.2 1077.29  10
   6   3  -8 15471.1 934.957  10
   6  -3  -8 17129.0 881.002   4
   6   3  -8 16231.5 998.223  15
   6  -3  -8 17607.9 1286.89   2
   6  -3  -8 17507.4 1024.60  14
   6   3  -8 16736.2 974.742   6
   6  -3  -8 14267.6 866.711   6
   6   3  -8 16650.0 1017.20  14
   6  -3  -7 960.870 341.113   2
   6  -3  -7 265.941 185.245   5
   6   3  -7 481.957 210.707   5
   6  -3  -7 785.853 304.010  10
   6   3  -7 545.507 202.381  15
   6   3  -7 585.387 284.615  14
   6   3  -7 1151.75 418.758   6
   6   3  -6 5766.76 669.549   2
   6  -3  -6 6285.81 773.131   2
   6  -3  -5 49648.5 2045.35   2
   6   3  -5 49480.5 1870.51   2
   6  -3  -4 5229.09 672.040   2
   6   3  -4 4780.21 618.677   2
   6  -3  -3 67358.4 2209.23   2
   6   3  -3 67149.8 2100.21   2
   6  -3  -2 2198.95 468.614   2
   6   3  -2 2405.66 438.259   2
   6  -3  -1 30039.0 1398.20   2
   6   3  -1 27806.9 1376.59   2
  -6  -3   0 4142.88 415.810   1
   6  -3   0 2816.34 461.126   2
   6   3   0 3793.63 543.378   2
  -6   3   0 3786.28 415.949   1
  -6   3  -1 79640.8 1957.90   1
   6  -3   1 82350.2 2198.00   2
   6   3   1 76541.9 2352.35   2
  -6  -3  -1 83272.6 2015.47   1
  -6   3  -2 292.104 206.760   1
   6   3   2 119.186 208.224   2
  -6  -3  -2 399.455 188.155   1
  -6   3  -3 14437.2 973.426   1
   6   3   3 13496.5 793.055  13
  -6  -3  -3 12405.0 923.184   1
   6   3   3 13798.8 1050.09   2
  -6   3  -3 15017.7 873.248  12
  -6   3  -4 26337.8 1383.40   1
   6   3   4 25113.2 1102.37  13
  -6  -3  -4 25143.9 1077.81   8
  -6  -3  -4 25059.4 1373.26   1
  -6   3  -4 25660.1 1152.96  12
  -6  -3  -5 32463.4 1260.66   8
   6   3   5 32518.7 1256.05  13
  -6   3  -5 32185.3 1305.57  12
  -6  -3  -6 760.709 287.901   8
   6   3   6 1414.80 316.493  13
  -6   3  -6 950.975 273.745  12
  -6  -3  -7-122.439 145.414  12
  -6   3  -7 16.5235 192.435  11
   6   3   7 257.615 229.724  13
  -6  -3  -7-14.0452 228.576   8
  -6   3  -7 333.108 200.170  12
  -6   3  -8 4611.41 478.710  11
   6   3   8 4657.27 385.847  13
  -6   3  -8 4841.39 409.309  12
  -6   3  -9 8602.60 527.497  11
  -6  -3  -9 8007.92 490.756  11
  -6  -3  -9 8131.15 454.396   6
  -6   3 -10 6803.73 325.943  11
   6   4 -13 904.793 192.911   5
   6   4 -13 708.392 198.251  14
   6   4 -12 13510.1 723.359   5
   6  -4 -12 13184.1 765.577  10
   6  -4 -12 12826.0 686.025   4
   6   4 -12 11913.8 733.315  14
   6  -4 -12 13203.9 692.646   6
   6   4 -11 4801.06 513.542   5
   6  -4 -11 3514.38 390.252   5
   6  -4 -11 3213.91 520.451  10
   6   4 -11 4651.46 554.446  14
   6  -4 -11 4221.68 539.006  14
   6  -4 -11 3680.87 462.863   4
   6  -4 -11 3592.13 442.437   6
   6  -4 -10 9851.23 656.975   5
   6   4 -10 8914.26 691.221   5
   6  -4 -10 8934.12 816.988  10
   6  -4 -10 9057.14 693.113   4
   6  -4 -10 9621.64 794.212  14
   6  -4 -10 8564.25 680.014   6
   6   4 -10 10654.8 842.575  14
   6  -4  -9 4158.22 448.683   5
   6   4  -9 3203.48 452.172   5
   6  -4  -9 3716.12 558.258  10
   6  -4  -9 4178.72 542.243  14
   6   4  -9 3457.92 517.130  14
   6  -4  -9 3705.06 466.234   4
   6  -4  -9 2223.16 416.316   6
   6  -4  -8 566.056 316.360   2
   6  -4  -8-286.404 147.273   5
   6   4  -8 178.840 207.668   5
   6  -4  -8-81.6909 273.723  10
   6  -4  -8-16.3616 229.271  14
   6   4  -8 258.319 283.805  14
   6  -4  -8-151.901 126.902   4
   6   4  -8 314.039 148.420   7
   6  -4  -8-183.352 349.017   6
   6  -4  -7 21092.3 964.894   5
   6   4  -7 21095.1 990.280   5
   6  -4  -7 22085.9 1191.31  10
   6  -4  -7 18131.9 1323.03   2
   6   4  -7 22296.2 1146.54  14
   6  -4  -7 20332.7 1056.44  13
   6   4  -7 19968.8 872.383   7
   6   4  -7 23135.3 1099.91   6
   6  -4  -6 2911.78 518.187   2
   6   4  -6 2603.73 453.636   2
   6  -4  -5 30704.3 1634.31   2
   6   4  -5 31443.8 1496.07   2
   6  -4  -4 57368.5 2204.68   2
   6   4  -4 55226.8 1938.34   2
   6  -4  -3 1592.35 403.588   2
   6   4  -3 1321.47 363.931   2
   6  -4  -2 23383.1 1311.17   2
   6   4  -2 21927.0 1236.17   2
   6  -4  -1 57.6448 177.336   2
   6   4  -1-139.181 198.754   2
  -6  -4   0 41715.8 1350.64   1
   6  -4   0 41598.4 1620.19   2
   6   4   0 38221.6 1699.62   2
  -6   4   0 41656.1 1346.37   1
   6  -4   1 1534.32 325.846   2
   6   4   1 1315.62 356.126   2
  -6   4  -1 928.993 269.155   1
  -6  -4  -1 852.016 251.080   1
  -6  -4  -2 74768.3 2138.34   1
   6   4   2 80418.0 2565.22   2
  -6   4  -2 80663.9 2178.75   1
  -6  -4  -3 35931.9 1592.58   1
  -6   4  -3 36302.1 1560.57   1
  -6  -4  -3 34796.0 1231.87   8
   6   4   3 38671.7 1344.36  13
  -6   4  -3 36187.1 1350.29  12
   6   4   3 34777.6 1718.78   2
  -6  -4  -4 9761.43 870.988   1
  -6   4  -4 10309.9 897.531   1
  -6  -4  -4 9639.18 693.447   8
   6   4   4 9739.25 719.130  13
  -6   4  -4 8474.07 678.874  12
  -6   4  -5 3533.01 474.110  11
  -6  -4  -5 4046.57 487.039   8
   6   4   5 3580.72 495.236  13
  -6   4  -5 3483.51 474.283  12
  -6   4  -6 1814.31 378.630  11
  -6  -4  -6 1365.91 336.759   8
   6   4   6 2028.04 379.015  13
  -6   4  -6 1419.33 332.366  12
  -6   4  -7 6908.62 611.407  11
  -6  -4  -7 6233.82 562.226   8
   6   4   7 5600.31 502.895  13
  -6   4  -7 6124.88 531.548  12
  -6  -4  -7 5910.40 485.691  12
  -6   4  -8 86.0129 194.780  11
   6   4   8 172.877 145.469  13
  -6   4  -8-194.478 100.137  12
  -6  -4  -9 18758.7 695.083  11
  -6  -4  -9 19928.1 696.679   6
  -6   4 -10 10519.5 375.779  11
   6   5 -13 1083.05 203.687   5
   6   5 -13 845.731 190.957  14
   6   5 -12 3962.72 406.702   5
   6  -5 -12 3975.89 481.114  10
   6   5 -12 3246.05 414.412  14
   6  -5 -12 3428.18 396.819   4
   6  -5 -12 4762.58 418.968   6
   6   5 -11-13.6734 213.925   5
   6  -5 -11-408.258 454.738  10
   6   5 -11 359.417 284.763  14
   6  -5 -11-112.146 340.585   4
   6  -5 -11-77.1007 256.967   6
   6   5 -10 58369.8 1651.47   5
   6  -5 -10 59743.1 1944.20  10
   6  -5 -10 59551.4 1648.41   4
   6  -5 -10 60813.1 1812.52  14
   6   5 -10 59210.6 1832.89  14
   6   5 -10 64679.9 1776.14   6
   6  -5 -10 58952.0 1593.09   6
   6   5  -9 328.108 244.110   5
   6  -5  -9 414.733 335.424  10
   6  -5  -9 33.6231 246.355  14
   6   5  -9 422.861 266.174  14
   6  -5  -9 127.480 191.583   4
   6   5  -9 454.516 197.994   7
   6  -5  -9 74.2537 346.886   6
   6   5  -8 16453.8 902.583   5
   6  -5  -8 15962.6 1054.23  10
   6  -5  -8 16767.4 887.459   4
   6   5  -8 17094.6 1038.31  14
   6   5  -8 14790.7 785.271   7
   6  -5  -8 13791.3 832.583   6
   6  -5  -7 1209.30 362.966   2
   6   5  -7 855.815 285.571   5
   6  -5  -7 1154.90 355.167  10
   6  -5  -7 1311.66 280.452   3
   6   5  -7 1448.24 325.706  14
   6   5  -7 1048.75 248.917   7
   6  -5  -6 63003.9 2439.23   2
   6   5  -6 67474.6 1939.50  14
   6  -5  -6 67368.9 1934.62  13
   6  -5  -5 385.548 253.402   2
   6   5  -5 1087.33 338.608   2
   6  -5  -4 44629.6 1993.79   2
   6   5  -4 42111.5 1719.41   2
   6  -5  -3 2688.86 521.251   2
   6   5  -3 2551.63 473.315   2
   6  -5  -2 18261.0 1203.54   2
   6   5  -2 18679.5 1184.48   2
   6  -5  -1 8250.56 785.949   2
   6   5  -1 7171.01 775.869   2
   6  -5   0-260.885 216.614   2
   6   5   0 35.3015 182.235   2
   6   5   1 2873.92 529.855   2
  -6   5  -1 2927.20 421.067   1
  -6  -5  -2 35783.0 1529.24   1
   6   5   2 34322.0 1761.89   2
  -6   5  -2 36896.7 1520.16   1
  -6   5  -3 1984.00 388.986   1
  -6   5  -3 1510.87 306.358  11
  -6  -5  -3 919.621 274.249   1
   6   5   3 1975.56 498.984   2
  -6  -5  -3 1452.32 303.300   8
   6   5   3 1609.56 345.119  13
  -6   5  -3 1857.65 358.967  12
  -6   5  -4 22820.4 1081.03  11
  -6  -5  -4 23368.9 1077.78   8
   6   5   4 23217.0 1105.20  13
  -6   5  -4 22508.7 1099.05  12
  -6   5  -5 243.941 221.523  11
  -6  -5  -5 77.4992 217.306   8
   6   5   5 246.661 244.113  13
  -6   5  -5-162.916 221.232  12
  -6   5  -6 37772.6 1399.59  11
  -6  -5  -6 38708.5 1362.20   8
   6   5   6 36509.2 1309.92  13
  -6   5  -6 37535.1 1358.83  12
  -6  -5  -7 203.634 153.679  12
  -6   5  -7 368.170 242.883  11
  -6  -5  -7 325.290 243.941   8
   6   5   7 75.7183 225.123  13
  -6   5  -7 54.9817 231.389  12
  -6   5  -8 35188.0 1143.92  11
   6   5   8 35308.8 991.811  13
  -6   5  -8 34519.1 993.818  12
  -6  -5  -9 1627.10 215.967   6
  -6   5  -9 1702.22 235.248  11
  -6  -5  -9 1262.76 186.616  11
   6   6 -13 965.406 171.677   5
   6   6 -13 1323.50 185.911  14
   6   6 -12 11251.0 601.416   5
   6  -6 -12 10915.2 582.986   4
   6   6 -12 10583.6 615.221  14
   6   6 -11 8383.91 599.679   5
   6  -6 -11 7794.75 689.984  10
   6  -6 -11 7233.99 568.570   4
   6   6 -11 7556.55 626.049  14
   6  -6 -11 8249.83 558.096   6
   6   6 -10 1206.41 327.690   5
   6  -6 -10 195.027 442.546  10
   6   6 -10 841.372 371.545  14
   6  -6 -10 826.696 294.690   4
   6   6 -10 1100.06 227.239   7
   6  -6 -10 743.189 277.205   6
   6   6  -9 26930.4 1126.24   5
   6  -6  -9 26040.9 1328.15  10
   6  -6  -9 26085.3 1098.70   4
   6   6  -9 25347.1 1232.63  14
   6   6  -9 25635.8 1004.77   7
   6   6  -8 5806.21 548.278   5
   6  -6  -8 5250.01 643.952  10
   6  -6  -8 5475.87 534.935   4
   6   6  -8 5398.96 604.086  14
   6   6  -8 5249.85 484.460   7
   6  -6  -8 5224.15 566.814   3
   6  -6  -7 18372.5 1067.63   3
   6   6  -7 19670.0 952.679   5
   6  -6  -7 19483.3 1131.42  10
   6  -6  -7 20492.1 1447.99   2
   6   6  -7 18754.3 1075.80  14
   6   6  -7 18089.1 891.693   7
   6   6  -6 11329.7 710.915   5
   6  -6  -6 11318.3 864.880  10
   6  -6  -6 10948.0 1051.80   2
   6   6  -6 11606.5 835.806  14
   6  -6  -6 11436.0 834.041  13
   6   6  -6 11953.3 718.234   7
   6  -6  -5 23715.1 1523.13   2
   6   6  -5 25520.6 1359.16   2
   6  -6  -4 1.73608 182.176   2
   6   6  -4 161.433 221.247   2
   6  -6  -3 1887.56 449.861   2
   6   6  -3 2286.82 442.594   2
   6  -6  -2 144989. 3376.33   2
   6   6  -2 141007. 3284.65   2
   6  -6  -1 9229.61 809.304   2
   6   6  -1 9240.40 907.533   2
   6  -6   0 30153.5 1405.07   2
  -6   6   0 29805.1 1250.00   1
   6   6   0 27483.0 1554.86   2
   6   6   1-379.958 322.036   2
  -6   6  -1 332.010 179.146   1
  -6  -6  -2 80545.7 1900.48   8
   6   6   2 83301.4 1960.78  13
   6   6   2 84849.8 1899.30  12
  -6   6  -2 79410.1 1994.86  12
  -6   6  -2 79271.8 2303.33   1
   6   6   2 83243.7 2807.69   2
  -6   6  -3 26760.0 1120.56  11
  -6  -6  -3 28710.5 1184.75   8
  -6   6  -3 26983.7 1208.01  12
   6   6   3 29734.6 1222.36  13
   6   6   3 28278.0 1682.98   2
  -6   6  -3 27847.8 1432.72   1
  -6   6  -4 10833.3 754.850  11
  -6  -6  -4 11247.2 770.024   8
   6   6   4 11074.1 767.165  13
  -6   6  -4 11792.1 816.113  12
  -6   6  -5 11126.4 768.349  11
  -6  -6  -5 11972.3 793.245   8
   6   6   5 12064.6 812.286  13
  -6   6  -5 11218.7 794.665  12
  -6   6  -6 1645.93 342.698  11
  -6  -6  -6 2426.82 395.155   8
   6   6   6 2464.38 419.446  13
  -6   6  -6 1640.85 344.488  12
  -6   6  -7 29714.9 1137.01  11
  -6  -6  -7 29440.0 1093.97   8
   6   6   7 29221.4 1058.38  13
  -6   6  -7 29042.3 1069.21  12
  -6  -6  -7 28955.4 969.755  12
  -6   6  -8 1594.99 272.183  11
   6   6   8 1212.31 235.680  13
  -6  -6  -8 1262.15 254.989   8
  -6   6  -8 1332.96 211.256  12
  -6   6  -9 11413.6 503.724  11
  -6  -6  -9 10612.5 475.002   6
   6   7 -13 6697.70 317.114   5
   6   7 -12 1115.09 215.580   5
   6   7 -12 1188.41 226.576  14
   6   7 -11 12579.0 681.970   5
   6  -7 -11 12077.9 804.138  10
   6  -7 -11 12932.3 697.787   4
   6   7 -11 12534.8 735.323  14
   6   7 -11 12370.2 561.189   7
   6   7 -10 6144.82 531.082   5
   6  -7 -10 5498.80 646.889  10
   6  -7 -10 5577.16 502.261   4
   6   7 -10 5616.89 456.490   7
   6   7 -10 6092.83 586.325  14
   6   7  -9 3188.29 416.080   5
   6  -7  -9 3431.28 431.678   3
   6  -7  -9 2703.73 553.234  10
   6   7  -9 3037.08 499.243  14
   6  -7  -9 3095.03 407.343   4
   6   7  -9 3069.48 388.411   7
   6   7  -8 6722.92 574.356   5
   6  -7  -8 7178.70 725.798  10
   6  -7  -8 6813.25 566.917   4
   6   7  -8 6362.86 655.793  14
   6   7  -8 7136.25 581.905   7
   6  -7  -8 6771.76 676.473   3
   6   7  -7 1735.80 316.946   5
   6  -7  -7 1667.24 409.300  10
   6  -7  -7 1095.96 310.736   3
   6   7  -7 1374.62 368.546  14
   6   7  -7 1700.88 321.744   7
   6  -7  -6 21503.3 1179.39   3
   6   7  -6 20304.6 935.807   5
   6  -7  -6 22089.1 1174.41  10
   6  -7  -6 22789.8 1554.19   2
   6   7  -6 22109.2 1151.87  14
   6   7  -6 21359.5 975.746   7
   6  -7  -5 2500.79 530.482   2
   6  -7  -5 1987.81 364.536  10
   6   7  -5 3175.52 471.428  14
   6  -7  -5 2052.61 431.854  13
   6   7  -5 2631.43 358.209   7
   6  -7  -4 1475.89 413.225   2
   6   7  -4 2192.46 417.960   2
   6   7  -4 2511.66 428.860  14
   6   7  -4 2154.81 322.862   7
   6  -7  -3 59198.9 2341.56   2
   6   7  -3 55496.8 2084.51   2
   6  -7  -2 272.582 223.374   2
   6   7  -2 156.142 235.384   2
   6  -7  -1 75203.0 2373.13   2
   6   7  -1 74805.6 2550.15   2
  -6   7   0 8175.64 709.192   1
   6   7   0 8261.23 888.446   2
  -6  -7  -1 47356.8 1415.09   8
   6   7   1 47485.3 1445.03  13
   6   7   1 52050.9 1516.86  12
  -6   7  -1 46488.2 1723.81   1
  -6   7  -1 47544.1 1547.82  12
   6   7   1 45713.5 2110.93   2
  -6  -7  -2 10836.8 743.878   8
   6   7   2 10348.3 719.824  13
   6   7   2 11179.1 727.680  12
  -6   7  -2 10027.9 871.982   1
  -6   7  -2 9833.25 743.714  12
   6   7   2 10553.8 1046.48   2
  -6   7  -3 38724.3 1340.03  11
  -6  -7  -3 39778.3 1416.92   8
   6   7   3 39239.9 1416.86  13
  -6   7  -3 37672.5 1444.95  12
  -6   7  -4 88.3892 157.486  11
  -6  -7  -4 114.921 221.606   8
   6   7   4 509.749 286.672  13
  -6   7  -4 375.778 257.751  12
  -6   7  -5 7132.30 615.867  11
  -6  -7  -5 7321.36 634.812   8
   6   7   5 7450.91 663.170  13
  -6   7  -5 7375.49 648.747  12
  -6   7  -6 99.8413 198.753  11
  -6  -7  -6 254.337 240.925   8
   6   7   6 372.664 288.977  13
  -6   7  -6 304.971 250.752  12
  -6   7  -7 73.5179 188.027  11
  -6  -7  -7-52.5498 172.159   8
   6   7   7 37.0002 223.758  13
  -6   7  -7-175.169 164.116  12
  -6   7  -8 1416.95 248.750  11
  -6  -7  -8 1460.49 253.356   8
   6   7   8 1333.01 222.479  13
  -6   7  -8 1575.01 212.014  12
  -6  -7  -9 1324.20 174.087   6
  -6   7  -9 1414.73 183.958  11
   6   8 -12 2354.22 245.320   5
   6   8 -12 2838.47 274.139  14
   6  -8 -12 1964.44 247.130   4
   6   8 -11 5822.57 426.064   5
   6  -8 -11 4898.32 427.818   4
   6   8 -11 5166.40 468.693  14
   6   8 -11 5541.03 380.024   7
   6   8 -10 3717.16 404.805   5
   6  -8 -10 4271.56 569.529  10
   6  -8 -10 4764.02 451.659   4
   6   8 -10 4475.25 500.863  14
   6   8 -10 4112.70 395.146   7
   6   8  -9 26999.7 1048.36   5
   6  -8  -9 27133.7 1316.39  10
   6  -8  -9 26519.8 1060.49   4
   6   8  -9 26441.8 1182.61  14
   6   8  -9 26919.2 1028.87   7
   6  -8  -9 26147.1 1149.66   3
   6   8  -8 368.281 197.033   5
   6  -8  -8 503.873 278.352   3
   6   8  -8 392.435 317.454  14
   6  -8  -8 205.133 211.162   4
   6   8  -8 436.980 234.757   7
   6   8  -7 17823.9 876.335   5
   6  -8  -7 19678.1 1144.34  10
   6   8  -7 17910.1 1053.39  14
   6   8  -7 18225.4 913.880   7
   6  -8  -7 17622.9 1092.13   3
   6  -8  -6 2405.92 449.891  10
   6  -8  -6 2777.09 486.909   3
   6   8  -6 2541.56 460.906  14
   6   8  -6 2673.03 372.293   7
   6  -8  -5 37423.2 1586.81   3
   6  -8  -5 38768.1 1511.94  10
   6  -8  -5 39078.4 2069.00   2
   6   8  -5 38144.3 1485.40  14
   6  -8  -5 36167.7 1508.93  13
   6   8  -5 37874.6 1276.09   7
   6  -8  -4 568.604 310.125   2
   6   8  -4 403.284 174.523   2
   6   8  -4 368.232 207.267  14
   6  -8  -4 35.0704 288.514  13
   6   8  -4 223.343 190.465   7
   6  -8  -3 23098.2 1499.85   2
   6   8  -3 23880.3 1145.54  14
   6   8  -3 23759.9 996.860   7
   6  -8  -3 23444.4 1195.56  13
   6   8  -3 23884.7 963.722  12
   6   8  -3 22431.7 1355.16   2
   6  -8  -2 15805.2 1189.76   2
   6  -8  -2 15972.5 1011.11  13
   6   8  -2 16784.7 822.314   7
   6   8  -2 16155.8 814.939  12
   6   8  -2 15176.6 1156.06   2
   6   8  -1 727.466 294.920   2
   6   8  -1 407.645 191.213   7
   6   8  -1 626.611 231.618  12
   6   8   0 27930.4 1066.59  13
  -6   8   0 28350.7 1343.44   1
   6   8   0 29868.0 1154.06  12
  -6   8   0 28322.5 1208.35  12
   6   8   0 30671.2 1740.00   2
   6   8   1 301.563 272.269   2
  -6   8  -1 458.144 191.694   1
   6   8   1-255.821 185.225  13
   6   8   1 105.188 192.492  12
  -6   8  -1 281.165 195.771  12
   6   8   2 7059.19 938.926   2
  -6  -8  -2 7544.03 622.869   8
   6   8   2 7654.91 628.061  13
   6   8   2 8368.87 635.941  12
  -6   8  -2 7326.19 640.218  12
  -6   8  -3 24188.9 1049.77  11
  -6  -8  -3 24279.0 1118.70   8
   6   8   3 22824.4 1082.72  13
   6   8   3 22965.6 1020.51  12
  -6   8  -3 22952.8 1143.66  12
  -6   8  -4 6335.87 573.995  11
  -6  -8  -4 6745.52 616.943   8
   6   8   4 6754.94 622.322  13
  -6   8  -4 6790.39 627.773  12
  -6   8  -5 15816.7 859.805  11
  -6  -8  -5 16494.5 901.111   8
   6   8   5 14657.6 866.920  13
  -6   8  -5 15278.5 900.013  12
  -6   8  -6 1318.15 308.020  11
  -6  -8  -6 1343.24 319.267   8
   6   8   6 1408.08 346.106  13
  -6   8  -6 1065.67 291.371  12
  -6   8  -7 22798.0 891.531  11
  -6  -8  -7 24086.1 907.568   8
   6   8   7 23484.0 885.934  13
  -6   8  -7 22404.1 865.039  12
  -6   8  -8 3819.23 325.478  11
  -6  -8  -8 3491.73 317.007   8
   6   8   8 3358.08 297.376  13
  -6  -8  -8 3137.69 308.550   6
  -6   8  -9 10093.8 366.674  11
  -6  -8  -9 13558.6 420.121   6
   6  -9 -12 6352.70 325.169   4
   6   9 -11 1083.13 198.229   5
   6   9 -11 1414.84 237.009  14
   6  -9 -11 621.030 207.385   4
   6   9 -11 1310.90 211.298   7
   6   9 -10 21913.9 817.841   5
   6  -9 -10 21697.0 1040.22  10
   6  -9 -10 22630.6 875.219   4
   6   9 -10 21563.7 929.967  14
   6   9 -10 22024.8 837.703   7
   6   9  -9 1088.71 235.156   5
   6  -9  -9 1331.85 289.175   3
   6  -9  -9 548.769 353.265  10
   6   9  -9 977.943 290.797  14
   6  -9  -9 1202.81 274.128   4
   6   9  -9 887.495 249.111   7
   6  -9  -8 15678.4 1015.93  10
   6  -9  -8 16085.4 840.762   4
   6   9  -8 14730.7 915.119  14
   6   9  -8 15351.2 821.822   7
   6  -9  -8 15892.2 980.191   3
   6  -9  -7 442.944 265.355   3
   6   9  -7 395.403 277.683  14
   6   9  -7 378.158 225.879   7
   6  -9  -6 26220.5 1279.77  10
   6   9  -6 24818.3 1224.19  14
   6   9  -6 24422.6 1058.18   7
   6  -9  -6 23350.2 1278.34   3
   6  -9  -5 7370.56 745.803   3
   6  -9  -5 5387.87 508.059   9
   6   9  -5 6514.16 648.438  14
   6   9  -5 6580.15 576.132   7
   6  -9  -4 24721.9 1320.64   3
   6  -9  -4 25365.5 1647.36   2
   6  -9  -4 23787.0 1097.71   9
   6   9  -4 25122.3 1199.95  14
   6  -9  -4 23847.1 1235.37  13
   6   9  -4 24230.5 1035.34   7
   6   9  -4 23278.4 949.979  12
   6  -9  -3 4580.43 708.916   2
   6   9  -3 3753.30 598.411   2
   6   9  -3 5027.82 577.339  14
   6   9  -3 4771.03 486.338   7
   6  -9  -3 5163.00 642.319  13
   6   9  -3 4269.93 438.319  12
   6  -9  -2 44533.2 1999.59   2
   6  -9  -2 43152.7 1632.79  13
   6   9  -2 44281.9 1343.82   7
   6   9  -2 44159.5 1358.94  12
   6   9  -2 41278.0 1957.20   2
   6   9  -1-20.0066 263.650   2
   6   9  -1 221.443 199.425  12
  -6   9   1 366.717 207.644  12
   6   9   0 2176.54 477.489   2
   6   9   0 2066.47 308.499  13
   6   9   0 2239.87 360.860  12
  -6   9   0 1930.97 396.394  12
   6   9   1 8922.44 649.375  13
   6   9   1 8416.69 663.511  12
  -6   9  -1 9081.60 741.064  12
  -6  -9  -2 22141.2 1065.82   8
   6   9   2 20639.7 998.396  13
   6   9   2 21385.6 1003.11  12
  -6   9  -2 20074.9 1070.61  12
  -6   9  -3 7233.77 566.363  11
  -6  -9  -3 7130.96 620.257   8
   6   9   3 7551.53 638.332  13
   6   9   3 7066.58 592.752  12
  -6   9  -3 7143.46 653.474  12
  -6   9  -4 16986.3 865.718  11
  -6  -9  -4 17236.2 941.662   8
   6   9   4 16513.6 909.097  13
  -6   9  -4 16751.2 954.806  12
  -6   9  -5 2008.16 320.956  11
  -6  -9  -5 2553.53 389.886   8
   6   9   5 2334.28 398.977  13
  -6   9  -5 1705.93 359.077  12
  -6   9  -6 30892.5 1056.09  11
   6   9   6 29934.0 1080.92  13
  -6   9  -6 30066.2 1102.31  12
  -6  -9  -6 30095.7 1082.89   8
  -6   9  -7 154.231 148.498  11
  -6  -9  -7 265.844 174.342   8
   6   9   7 292.177 195.140  13
  -6   9  -7 57.8486 150.017  12
  -6   9  -8 11711.8 485.464  11
  -6  -9  -8 11151.3 473.115   8
   6   9   8 11368.8 463.616  13
  -6  -9  -8 10499.3 470.488   6
   6 -10 -11 498.029 171.414   4
   6  10 -11 1718.81 210.048   7
   6 -10 -10 5470.36 403.237   4
   6  10 -10 4845.93 418.284  14
   6  10 -10 5113.78 402.776   7
   6 -10  -9 4088.26 536.238  10
   6 -10  -9 4205.67 403.938   4
   6  10  -9 4082.83 448.188  14
   6  10  -9 4083.99 418.901   7
   6 -10  -9 3915.71 451.645   3
   6 -10  -8 64.4389 200.532   3
   6 -10  -8-254.281 407.975  10
   6  10  -8 84.8673 236.922  14
   6 -10  -8 102.159 143.332   4
   6  10  -8 2.90130 185.614   7
   6 -10  -7 19886.1 1110.03  10
   6  10  -7 17583.2 992.875  14
   6  10  -7 17454.6 891.996   7
   6 -10  -7 19588.3 1147.94   3
   6 -10  -6 3727.67 556.856   3
   6  10  -6 4124.29 539.347  14
   6  10  -6 4064.20 468.769   7
   6 -10  -5 942.070 346.116   3
   6 -10  -5 1238.20 278.317   9
   6  10  -5 998.636 359.736  14
   6  10  -5 896.352 283.616   7
   6 -10  -4 6427.21 731.126   3
   6 -10  -4 5889.63 594.381   9
   6  10  -4 5642.05 626.473  14
   6  10  -4 5241.63 523.396   7
   6  10  -4 4911.01 460.020  12
   6 -10  -3 512.742 286.586   3
   6 -10  -3 252.293 187.795   9
   6  10  -3 259.075 277.452  14
   6  10  -3 457.202 240.214   7
   6  10  -3 286.425 171.809  12
   6 -10  -2 67612.1 2152.49   3
   6 -10  -2 65819.0 2003.10  13
   6  10  -2 68297.7 1687.39   7
   6  10  -2 67068.0 1695.97  12
   6 -10  -1 231.056 252.249   3
   6 -10  -1 686.921 257.968  13
   6  10  -1 341.236 214.328  12
  -6  10   1 31.1524 138.820  12
   6 -10   0 17665.1 1017.64   3
   6  10   0 17143.2 903.165  12
  -6  10   0 17005.5 977.964  12
   6  10   1 2097.32 334.500  13
   6  10   1 2252.93 391.962  12
  -6  10  -1 2375.37 417.896  12
  -6 -10  -2 59338.5 1706.13   8
   6  10   2 55559.4 1583.64  13
   6  10   2 55569.8 1601.40  12
  -6  10  -2 52885.5 1697.65  12
  -6 -10  -3 2031.18 369.923   8
   6  10   3 1964.09 350.284  13
   6  10   3 1584.98 339.017  12
  -6  10  -3 1650.49 372.434  12
  -6  10  -4 19201.4 884.354  11
  -6 -10  -4 19796.2 972.492   8
   6  10   4 18250.8 916.110  13
  -6  10  -4 18112.9 967.835  12
  -6  10  -5 1985.87 295.497  11
  -6 -10  -5 2634.50 385.944   8
   6  10   5 2621.51 390.161  13
  -6  10  -5 2402.44 379.387  12
  -6  10  -6 1475.21 241.860  11
  -6 -10  -6 1077.26 265.062   8
   6  10   6 1333.37 310.412  13
  -6  10  -6 1305.71 263.846  12
  -6  10  -7 7870.70 436.383  11
  -6 -10  -7 7870.18 458.618   8
   6  10   7 7782.94 454.541  13
  -6  10  -7 7614.13 438.969  12
  -6  10  -8 4233.85 242.914  11
  -6 -10  -8 4192.05 247.425   6
   6  11 -11 7648.72 340.389   7
   6 -11 -10 2825.57 289.756   4
   6  11 -10 3185.84 302.157   7
   6 -11  -9 4104.74 368.093   4
   6  11  -9 3155.99 358.877  14
   6  11  -9 3758.05 385.691   7
   6 -11  -9 3468.92 421.926   3
   6 -11  -8 15210.9 868.536  10
   6 -11  -8 14750.5 723.676   4
   6  11  -8 12833.4 755.171  14
   6  11  -8 15053.6 763.634   7
   6 -11  -8 14756.3 900.648   3
   6 -11  -7 2210.97 433.394   3
   6  11  -7 1344.20 353.455  14
   6  11  -7 1531.69 328.119   7
   6  11  -6 6484.15 639.039  14
   6  11  -6 6357.89 570.191   7
   6 -11  -6 6639.79 705.461   3
   6 -11  -5 21404.8 1025.75   9
   6  11  -5 22520.1 1128.74  14
   6  11  -5 21610.5 979.947   7
   6  11  -5 22587.6 899.732  12
   6 -11  -5 23212.4 1303.18   3
   6 -11  -4 4671.65 542.940   9
   6  11  -4 4664.31 586.157  14
   6  11  -4 4849.88 493.272   7
   6  11  -4 5202.60 476.129  12
   6 -11  -4 5763.23 702.921   3
   6 -11  -3 4367.13 576.881   3
   6 -11  -3 4289.75 548.419   9
   6  11  -3 4412.45 562.279  14
   6  11  -3 4037.50 460.182   7
   6  11  -3 4624.60 458.886  12
   6 -11  -2 4075.34 584.637   3
   6 -11  -2 3968.78 530.421   9
   6  11  -2 4181.98 558.633  14
   6  11  -2 3809.57 435.689   7
   6  11  -2 3675.01 449.868  12
   6 -11  -1 37765.4 1513.49   9
   6  11  -1 37460.3 1304.75  12
  -6  11   1 36509.9 1337.21  12
   6 -11  -1 39426.0 1568.00   3
   6  11   0 10.8420 204.780  12
  -6  11   0 205.231 203.819  12
   6  11   1 13564.0 744.184  13
   6  11   1 13971.4 828.817  12
  -6  11  -1 12544.6 824.275  12
  -6 -11  -2 841.570 281.195   8
   6  11   2 514.230 237.597  13
   6  11   2 651.760 271.898  12
  -6  11  -2 358.426 277.820  12
   6 -11   3 18373.0 922.550   9
  -6 -11  -3 18712.4 954.235   8
   6  11   3 17918.6 874.154  13
   6  11   3 18184.7 860.371  12
  -6  11  -3 17006.2 941.595  12
  -6  11  -4 7150.88 504.811  11
   6 -11   4 6974.12 538.246   9
  -6 -11  -4 7703.31 605.363   8
   6  11   4 7396.08 574.038  13
  -6  11  -4 7827.52 632.533  12
  -6  11  -5 1817.52 260.842  11
  -6 -11  -5 1857.99 313.810   8
   6  11   5 1870.51 305.574  13
  -6  11  -5 2223.25 337.017  12
  -6  11  -6 15962.4 630.004  11
  -6 -11  -6 16357.1 697.718   8
   6  11   6 15250.4 664.213  13
  -6  11  -6 14586.7 663.508  12
  -6 -11  -7 1361.93 176.393   6
  -6  11  -7 1687.86 185.091  11
  -6 -11  -7 1940.02 222.321   8
   6  11   7 2120.08 228.673  13
  -6  11  -7 1900.39 201.251  12
   6  12 -10 1088.46 184.440   7
   6  12  -9 22785.1 785.269   7
   6 -12  -9 20367.3 874.061   3
   6 -12  -8 933.760 298.001   3
   6  12  -8 885.877 242.444  14
   6  12  -8 934.120 244.247   7
   6  12  -7 38624.5 1265.87  14
   6  12  -7 42559.8 1258.86   7
   6 -12  -7 43432.4 1570.65   3
   6 -12  -6 838.005 354.830   3
   6 -12  -6 141.809 140.650   9
   6  12  -6 660.456 271.382  14
   6  12  -6 588.760 277.227   7
   6 -12  -5 24173.5 1068.91   9
   6  12  -5 25811.6 1150.81  14
   6  12  -5 25482.7 1036.01   7
   6  12  -5 26011.9 940.781  12
   6 -12  -5 25984.1 1353.35   3
   6 -12  -4 306.905 332.343   3
   6 -12  -4 673.124 300.783   9
   6  12  -4 265.598 228.009  14
   6  12  -4 488.866 228.939   7
   6  12  -4 247.762 160.207  12
   6 -12  -3 1857.24 416.632   3
   6 -12  -3 1693.87 394.073   9
   6  12  -3 1601.66 376.060  14
   6  12  -3 1855.92 313.190   7
   6  12  -3 1749.59 316.196  12
   6 -12  -2 463.455 301.923   3
   6 -12  -2 233.665 310.446   9
   6  12  -2 354.670 296.694  14
   6  12  -2 108.904 165.408  12
   6 -12  -1 3311.76 483.437   3
   6 -12  -1 2901.56 498.952   9
   6  12  -1 3261.58 429.915  12
  -6  12   1 3066.18 422.495  12
   6 -12   0 528.444 279.750   9
   6  12   0 396.739 213.924  12
  -6  12   0 262.169 161.166  12
   6 -12   1 301.956 257.104   9
   6  12   1-118.606 231.543  12
  -6  12  -1 140.199 182.295  12
   6 -12   2 2140.18 402.439   9
  -6 -12  -2 1951.96 341.478   8
   6  12   2 2254.40 318.415  13
   6  12   2 2107.74 373.436  12
  -6  12  -2 1857.47 380.021  12
   6 -12   3 16333.8 831.218   9
  -6 -12  -3 17867.8 885.511   8
   6  12   3 15447.5 762.988  13
   6  12   3 16201.6 774.301  12
  -6  12  -3 16627.6 884.889  12
   6 -12   4 3080.95 329.757   9
  -6 -12  -4 3569.62 417.906   8
   6  12   4 3750.72 395.232  13
  -6  12  -4 3920.26 437.758  12
  -6  12  -5 11182.5 503.156  11
  -6 -12  -5 11496.8 608.936   8
   6  12   5 10487.6 562.522  13
  -6  12  -5 10111.7 585.261  12
  -6 -12  -6 488.413 116.879   6
  -6  12  -6 433.235 117.939  11
  -6 -12  -6 695.814 183.205   8
   6  12   6 594.596 165.248  13
  -6  12  -6 443.786 146.343  12
  -6 -12  -7 36286.7 705.838   8
   6  12   7 41997.4 734.901  13
   6  13 -10 3304.42 223.896   7
   6 -13  -9 804.238 195.813   3
   6  13  -9 1168.76 196.790   7
   6  13  -8 10528.0 552.770   7
   6 -13  -8 10245.2 667.836   3
   6 -13  -7 293.772 245.909   3
   6  13  -7 360.966 140.673  14
   6  13  -7 477.882 217.828   7
   6 -13  -6 11405.2 633.147   9
   6  13  -6 12256.9 702.606  14
   6  13  -6 12769.4 690.466   7
   6 -13  -6 12977.7 902.475   3
   6 -13  -5 626.253 343.541   3
   6 -13  -5 457.126 215.348   9
   6  13  -5 118.620 182.083  14
   6  13  -5 686.351 241.974   7
   6  13  -5 565.351 181.425  12
   6 -13  -4 8330.68 667.316   9
   6  13  -4 8103.65 647.429  14
   6  13  -4 9228.72 605.984   7
   6  13  -4 8341.13 559.269  12
   6 -13  -4 9696.34 812.364   3
   6 -13  -3 17794.7 1000.51   9
   6  13  -3 18692.5 965.879  14
   6  13  -3 18865.3 842.836   7
   6  13  -3 17675.8 835.845  12
   6 -13  -3 20027.9 1140.02   3
   6 -13  -2-472.754 241.582   3
   6 -13  -2-112.247 279.296   9
   6  13  -2-19.5161 213.263  14
   6  13  -2 27.9693 165.164  12
   6 -13  -1 27429.3 1244.14   9
   6  13  -1 28051.4 1197.21  14
   6  13  -1 28063.6 1094.71  12
  -6  13   1 27175.1 1046.44  12
   6 -13  -1 29569.9 1228.27   3
   6 -13   0 22.4789 245.563   9
   6  13   0 61.0869 202.893  12
  -6  13   0 99.2331 223.277  12
   6 -13   1 16464.9 914.904   9
  -6 -13  -1 17685.7 853.055   8
   6  13   1 16885.6 848.730  12
  -6  13  -1 16782.2 873.175  12
   6 -13   2 3910.50 453.254   9
  -6 -13  -2 4074.49 448.368   8
   6  13   2 4263.76 361.949  13
   6  13   2 4027.65 435.527  12
  -6  13  -2 4326.80 478.444  12
   6 -13   3 6786.83 503.118   9
  -6 -13  -3 6992.29 529.353   8
   6  13   3 6972.15 465.238  13
  -6  13  -3 6593.55 536.923  12
   6 -13   4 2592.60 268.787   9
  -6 -13  -4 2512.11 315.910   8
   6  13   4 3096.27 313.131  13
  -6  13  -4 2913.86 342.979  12
  -6 -13  -5 9226.67 491.647   8
   6  13   5 9161.80 450.104  13
  -6  13  -5 8962.23 486.548  12
  -6 -13  -6 9095.31 396.212   8
   6  13   6 9482.43 373.208  13
  -6  13  -6 9104.18 383.890  12
   6 -14  -9-16.1366 83.2164   3
   6  14  -9 21.5665 90.4764   7
   6 -14  -8 1354.20 247.870   3
   6  14  -8 1233.61 198.081   7
   6 -14  -7-22.7247 192.257   3
   6  14  -7 67.4010 139.201   7
   6  14  -6 10247.1 560.951   7
   6 -14  -6 10077.4 751.337   3
   6 -14  -5 3190.63 484.764   3
   6 -14  -5 3182.20 362.519   9
   6  14  -5 3398.23 374.160  14
   6  14  -5 3831.39 378.596   7
   6  14  -5 3229.64 325.546  12
   6 -14  -4 12754.6 756.950   9
   6  14  -4 13537.2 739.532  14
   6  14  -4 14779.4 699.646   7
   6  14  -4 13714.6 669.617  12
   6 -14  -4 14284.8 912.389   3
   6 -14  -3 746.597 284.339   3
   6 -14  -3 778.293 267.544   9
   6  14  -3 567.262 253.277  14
   6  14  -3 1051.23 242.024  12
   6 -14  -2 19203.6 1019.34   9
   6  14  -2 20552.4 947.458  14
   6  14  -2 20168.4 881.676  12
   6 -14  -2 22622.5 1059.24   3
   6 -14  -1 328.661 185.929   3
   6 -14  -1 130.493 273.586   9
   6  14  -1 277.755 230.463  14
   6  14  -1 2.72771 190.742  12
  -6  14   1 378.758 158.066  12
   6 -14   0 15770.5 879.535   9
   6  14   0 15144.8 823.426  14
   6  14   0 16058.1 803.998  12
  -6  14   0 15476.3 754.804  12
   6 -14   1-24.5735 203.920   9
  -6 -14  -1 411.791 173.663   8
   6  14   1-88.5253 201.206  12
  -6  14  -1-43.2766 135.933  12
   6 -14   2 20149.1 846.488   9
  -6 -14  -2 20524.1 841.715   8
   6  14   2 21395.8 817.415  12
  -6  14  -2 19684.4 833.487  12
   6 -14   3 202.590 131.906   9
  -6 -14  -3-72.5739 138.132   8
  -6  14  -3 41.3339 151.003  12
  -6 -14  -4 10543.0 518.261   8
  -6  14  -4 11115.7 538.965  12
  -6 -14  -5 6176.56 339.704   8
  -6  14  -5 6135.31 334.388  12
   6  15  -8 13184.8 433.759   7
   6 -15  -8 11903.8 509.255   3
   6 -15  -7 31.2039 140.749   3
   6  15  -7 180.434 130.703   7
   6  15  -6 18895.4 651.341   7
   6 -15  -6 19057.1 869.623   3
   6 -15  -5 206.986 216.365   3
   6 -15  -5-122.291 126.135   9
   6  15  -5 150.103 131.310   7
   6  15  -5 32.1724 105.355  12
   6 -15  -4 3910.34 397.520   9
   6  15  -4 3363.64 330.578  14
   6  15  -4 3676.59 339.200  12
   6 -15  -4 3979.53 458.783   3
   6 -15  -3 8129.19 587.770   9
   6  15  -3 8281.42 534.433  14
   6  15  -3 7880.70 503.542  12
   6 -15  -3 8744.71 621.712   3
   6 -15  -2 5631.82 522.952   9
   6  15  -2 5588.79 459.351  14
   6  15  -2 5091.88 427.387  12
   6 -15  -2 4999.63 465.145   3
   6 -15  -1 3358.28 442.529   9
   6  15  -1 3841.48 402.289  14
   6  15  -1 3996.72 402.190  12
   6 -15   0 87.3202 212.768   9
   6  15   0 10.3947 149.871  14
  -6 -15   0-17.7839 104.605   8
   6  15   0 95.3456 164.351  12
  -6  15   0-0.49933 96.8749  12
   6 -15   1 1364.50 276.036   9
  -6 -15  -1 1438.85 245.319   8
   6  15   1 1438.14 267.303  14
   6  15   1 1245.58 240.748  12
  -6  15  -1 1459.60 240.459  12
   6 -15   2 8482.72 479.271   9
  -6 -15  -2 8717.08 479.701   8
   6  15   2 8703.63 525.427  14
   6  15   2 9099.21 474.150  12
  -6  15  -2 8372.96 479.700  12
   6 -15   3 7047.24 360.188   9
  -6 -15  -3 7474.17 416.487   8
  -6  15  -3 7171.70 413.115  12
  -6 -15  -4 2116.34 211.225   8
   6  15   4 2020.46 215.047  14
  -6  15  -4 1939.07 196.204  12
   6 -16  -7 15505.4 551.608   3
   6 -16  -6 1193.87 219.835   3
   6 -16  -5 10242.1 453.187   9
   6 -16  -5 11521.2 599.024   3
   6 -16  -4 4058.11 339.094   9
   6  16  -4 4354.15 309.626  12
   6 -16  -4 4242.55 389.463   3
   6 -16  -3 1734.40 264.900   3
   6 -16  -3 1680.76 257.917   9
   6  16  -3 1538.79 225.038  12
   6 -16  -2-138.717 124.730   3
   6 -16  -2-50.4283 163.639   9
   6  16  -2 133.176 131.070  12
   6 -16  -1 245.312 189.605   9
   6  16  -1 497.404 163.767  14
   6  16  -1 551.574 181.047  12
   6 -16   0 4034.95 362.029   9
   6  16   0 4314.49 345.166  14
  -6 -16   0 3977.44 301.059   8
   6  16   0 4132.99 342.081  12
  -6  16   0 4201.16 290.891  12
   6 -16   1 392.910 157.674   9
  -6 -16  -1 401.913 128.584   8
   6  16   1 521.482 148.621  14
   6  16   1 505.359 161.191  12
  -6  16  -1 294.157 109.016  12
   6 -16   2 2305.72 217.866   9
  -6 -16  -2 2251.28 219.165   8
   6  16   2 2494.54 233.202  14
  -6  16  -2 2307.90 212.071  12
  -6 -16  -3 2351.14 181.510   8
  -6  16  -3 3058.86 216.234  12
   6 -17  -4 93.0165 80.0808   3
   6 -17  -4 50.6515 78.5248   9
   6  17  -4-3.71679 51.3561  12
   6 -17  -3 9123.03 432.718   9
   6  17  -3 9466.88 393.457  12
   6 -17  -2 1175.67 196.734   9
   6  17  -2 1033.47 164.351  12
   6 -17  -1 14719.0 558.643   9
   6  17  -1 15779.3 535.417  12
   6 -17   0 935.811 155.515   9
   6  17   0 763.810 141.749  12
   6 -17   1 11697.7 394.120   9
   7   0 -13 272.173 152.883   5
   7   0 -12 27410.0 990.972   5
   7   0 -12 28940.7 1122.59  14
   7   0 -11-87.3002 203.261   5
   7   0 -11-200.014 307.336  14
   7   0 -10 20513.8 1037.25   5
   7   0 -10 19950.3 1093.10  10
   7   0 -10 20934.0 1151.87  14
   7   0  -9-581.885 276.157   5
   7   0  -9 139.971 250.975  10
   7   0  -9 1580.24 413.369   4
   7   0  -9-54.2098 282.812  14
   7   0  -9 2559.47 515.594   6
   7   0  -8 13062.7 843.744   5
   7   0  -8 11369.7 874.857  10
   7   0  -8 11930.6 876.745  14
   7   0  -7-214.267 150.190   2
   7   0  -7 212.122 207.051   5
   7   0  -7-344.628 238.861  10
   7   0  -7 344.559 200.773  14
   7   0  -6 2690.13 526.318   2
   7   0  -6 3167.68 430.142   5
   7   0  -6 2544.51 434.944  10
   7   0  -5 632.496 280.320   2
   7   0  -4 356.480 298.878   2
   7   0  -3-219.106 253.867   2
   7   0  -2 29594.2 1515.03   2
   7   0  -1 139.832 248.216   2
   7   0   0 62793.2 2168.37   2
   7   0   1-488.005 265.339   2
  -7   0  -2 33817.8 1148.86   8
  -7   0  -2 36547.4 1478.07   1
   7   0   2 36909.6 1284.92  13
  -7   0  -3 423.275 222.582   1
  -7   0  -3-237.426 217.273   8
   7   0   3 2.46415 193.034  13
   7   0   4 113577. 2242.10  13
  -7   0  -4 103338. 2345.15  12
  -7   0  -5 157.272 208.749  12
   7   0   5 89.6595 200.835  13
   7   0   6 1339.03 277.136  13
  -7   0  -6 671.980 251.221  12
  -7   0  -7-281.767 164.250  12
  -7   0  -8 1609.79 281.139  11
  -7   0  -9 93.1326 88.8851  11
   7  -1 -13 9697.48 461.743   5
   7   1 -13 10005.7 503.510   5
   7   1 -13 8976.27 539.833  14
   7  -1 -12 1022.01 242.175   5
   7   1 -12 1079.96 247.412   5
   7  -1 -12 479.104 251.118  10
   7  -1 -12 1194.82 322.423  14
   7   1 -12 1004.95 327.370  14
   7  -1 -11 13744.9 792.003   5
   7   1 -11 13832.0 801.291   5
   7  -1 -11 12537.7 837.359  10
   7   1 -11 11619.4 746.901  10
   7  -1 -11 21011.3 898.814   4
   7  -1 -11 13875.8 891.413  14
   7   1 -11 14530.7 924.840  14
   7   1 -11 24737.9 1111.15   6
   7  -1 -11 19273.0 971.699   6
   7  -1 -10 11683.1 766.376   5
   7   1 -10 11884.5 799.592   5
   7  -1 -10 12249.4 884.047  10
   7   1 -10 11428.1 833.039  10
   7  -1 -10 14249.5 772.106   4
   7  -1 -10 11249.0 858.516  14
   7   1 -10 11237.7 867.911  14
   7  -1 -10 14793.6 923.544   6
   7  -1  -9 7234.80 634.779   5
   7   1  -9 7274.17 658.486   5
   7  -1  -9 6557.47 690.151  10
   7   1  -9 6517.67 661.438  10
   7  -1  -9 5988.57 541.236   4
   7  -1  -9 7609.00 716.074  14
   7   1  -9 7215.87 707.211  14
   7  -1  -9 7534.48 709.633   6
   7  -1  -8 33351.6 1326.85   5
   7   1  -8 33901.3 1335.50   5
   7  -1  -8 33296.7 1505.40  10
   7   1  -8 31005.7 1426.14  10
   7  -1  -8 34526.8 1410.49  14
   7   1  -8 32784.3 1408.88  14
   7   1  -8 36267.1 1394.61   6
   7  -1  -8 33470.4 1321.32   6
   7  -1  -7 54.4605 170.743   2
   7   1  -7 96.4940 278.338   2
   7  -1  -7-123.338 210.462   5
   7   1  -7 67.0008 194.500   5
   7  -1  -7 365.198 252.441  10
   7   1  -7 429.340 297.721  10
   7  -1  -7 851.223 290.609  14
   7   1  -7 270.727 267.887  14
   7  -1  -6 37423.5 1333.14   5
   7   1  -6 37226.0 1342.59   5
   7  -1  -6 35542.4 1549.21  10
   7   1  -6 35230.4 1517.54  10
   7  -1  -6 33230.0 1793.59   2
   7   1  -6 34550.0 1769.09   2
   7  -1  -5 1241.53 374.718   2
   7   1  -5 1114.24 383.990   2
   7  -1  -4 48477.4 2031.13   2
   7   1  -4 50416.9 2019.52   2
   7  -1  -3 6024.12 720.713   2
   7   1  -3 5398.79 695.880   2
   7  -1  -2 806.272 279.288   2
   7   1  -2 660.079 278.770   2
   7  -1  -1 436.589 257.991   2
   7   1  -1 459.241 279.166   2
   7  -1   0 18895.8 1183.79   2
   7   1   0 19667.9 1229.32   2
   7  -1   1 27703.0 1427.80   2
   7   1   1 26760.1 1443.10   2
  -7   1  -2 14945.0 941.642   1
  -7  -1  -2 14332.4 764.217   8
   7  -1   2 16527.3 878.013  13
   7   1   2 16296.3 862.994  13
  -7  -1  -2 15575.7 968.620   1
   7   1   2 16183.9 1131.22   2
  -7   1  -3 29252.6 1414.15   1
  -7  -1  -3 28834.0 1111.95   8
   7  -1   3 30152.8 1175.90  13
   7   1   3 29408.0 1165.09  13
  -7  -1  -3 28934.5 1420.13   1
  -7   1  -3 25316.3 1157.15  12
  -7  -1  -4 12602.1 774.195   8
   7  -1   4 13418.1 783.373  13
   7   1   4 12897.8 798.449  13
  -7   1  -4 14512.6 892.032  12
   7  -1   5 24466.1 1013.23  13
   7   1   5 24010.1 1033.32  13
  -7   1  -5 23721.0 1117.42  12
  -7  -1  -5 22287.2 1083.51  12
   7   1   6 14040.5 738.154  13
  -7   1  -6 12766.6 782.630  12
  -7  -1  -6 13826.0 795.691  12
  -7   1  -7 1460.46 302.507  11
  -7   1  -7 1799.33 281.285  12
  -7  -1  -7 1403.17 262.085  12
  -7   1  -8 19810.8 800.790  11
  -7  -1  -8 19882.3 801.035  11
  -7  -1  -8 17450.4 592.612   6
  -7   1  -9 61.5374 95.9249  11
  -7  -1  -9 218.807 97.4049  11
   7   2 -13-4.29397 131.195   5
   7   2 -13 37.5202 175.536  14
   7   2 -12 2501.23 333.527   5
   7  -2 -12 2229.86 314.722   5
   7  -2 -12 1871.58 336.648  10
   7  -2 -12 2285.53 368.437  14
   7   2 -12 2499.48 404.942  14
   7  -2 -11 13279.2 763.478   5
   7   2 -11 14991.8 827.018   5
   7  -2 -11 12401.1 853.825  10
   7   2 -11 11282.6 706.891  10
   7  -2 -11 15731.0 763.252   4
   7  -2 -11 15117.6 896.267  14
   7   2 -11 14342.4 911.714  14
   7  -2 -11 18481.7 935.632   6
   7  -2 -10 4877.88 521.953   5
   7   2 -10 4822.52 536.167   5
   7  -2 -10 5074.04 593.462  10
   7   2 -10 5299.83 568.283  10
   7  -2 -10 4756.65 483.818   4
   7  -2 -10 5268.19 604.910  14
   7   2 -10 5501.22 652.376  14
   7  -2 -10 7483.71 695.161   6
   7  -2  -9 11320.7 772.743   5
   7   2  -9 11516.1 804.410   5
   7  -2  -9 10516.9 876.771  10
   7   2  -9 10082.8 796.487  10
   7  -2  -9 11340.8 841.999  14
   7   2  -9 12112.4 893.970  14
   7  -2  -9 12931.9 851.086   6
   7  -2  -8 69.1670 240.242   5
   7   2  -8 215.074 204.749   5
   7  -2  -8 74.6652 256.921  10
   7   2  -8 46.7947 210.026  10
   7  -2  -8-212.854 187.544  14
   7   2  -8 160.097 280.961  14
   7  -2  -7 41485.8 1440.19   5
   7   2  -7 41578.2 1453.39   5
   7  -2  -7 42800.1 1718.19  10
   7   2  -7 39589.6 1590.94  10
   7  -2  -7 40296.0 1432.38  14
   7  -2  -7 40908.7 2074.67   2
   7   2  -7 42406.9 1562.46  14
   7   2  -7 38051.0 1848.54   2
   7  -2  -7 38196.2 1430.41  13
   7  -2  -7 36909.8 1370.94   6
   7  -2  -6 2612.81 542.388   2
   7  -2  -6 2925.88 429.644   5
   7   2  -6 2857.37 421.993   5
   7   2  -6 3300.86 594.424   2
   7  -2  -6 3049.56 527.078  10
   7   2  -6 2531.68 465.362  10
   7   2  -6 2709.92 432.021  14
   7  -2  -6 2262.99 405.452  13
   7  -2  -5 54903.8 2245.80   2
   7   2  -5 52732.0 2103.36   2
   7  -2  -4 1582.99 405.731   2
   7   2  -4 2149.42 454.471   2
   7  -2  -3 38502.3 1765.10   2
   7   2  -3 35773.9 1684.06   2
   7  -2  -2 2192.82 486.954   2
   7   2  -2 2681.60 482.130   2
   7  -2  -1 29590.2 1519.27   2
   7   2  -1 30138.2 1544.76   2
   7  -2   0 365.119 212.035   2
   7   2   0 199.688 196.441   2
   7   2   1 13056.5 761.882  13
   7  -2   1 12364.7 946.550   2
   7   2   1 11838.4 984.468   2
  -7   2  -2 6098.30 629.870   1
   7   2   2 5678.11 685.634   2
  -7  -2  -2 6582.35 520.778   8
   7  -2   2 7506.08 604.951  13
   7   2   2 6696.29 583.435  13
  -7  -2  -2 5898.52 611.594   1
  -7   2  -2 5995.04 572.732  12
  -7   2  -3 474.477 263.769  12
  -7  -2  -3 541.208 233.366   8
   7  -2   3 234.504 195.782  13
   7   2   3 292.373 237.455  13
  -7   2  -3 864.093 283.896   1
  -7   2  -4 2224.95 399.385  12
  -7  -2  -4 2385.89 382.064   8
   7  -2   4 2530.37 376.293  13
   7   2   4 2337.35 405.546  13
  -7  -2  -5 12810.4 788.393   8
   7   2   5 13040.8 775.779  13
  -7   2  -5 13190.7 846.491  12
  -7  -2  -6 2379.53 373.221  12
   7   2   6 2215.69 337.887  13
  -7   2  -6 2066.44 365.288  12
  -7   2  -7 26058.4 1041.18  11
   7   2   7 24580.1 852.856  13
  -7   2  -7 24284.3 926.329  12
  -7  -2  -7 24527.8 907.609  12
  -7   2  -8 3970.75 385.353  11
  -7  -2  -8 4520.21 399.672  11
  -7  -2  -8 3744.35 305.956   6
  -7   2  -9 31124.9 741.056  11
  -7  -2  -9 29849.0 709.897  11
   7   3 -13 19038.3 671.402   5
   7  -3 -13 20664.2 682.113  10
   7   3 -13 18800.5 716.663  14
   7  -3 -12 3553.15 341.592   5
   7   3 -12 3176.44 374.575   5
   7  -3 -12 2733.99 399.637  10
   7   3 -12 3237.39 422.120  14
   7  -3 -11 27857.5 1023.05   5
   7   3 -11 28667.0 1131.95   5
   7  -3 -11 26387.9 1204.44  10
   7  -3 -11 27304.8 976.396   4
   7  -3 -11 25979.0 1110.95  14
   7   3 -11 26958.8 1207.20  14
   7  -3 -11 29700.0 1131.48   6
   7  -3 -10 625.484 272.680   5
   7   3 -10 539.862 287.463   5
   7  -3 -10 535.407 328.343  10
   7   3 -10 606.785 207.900  10
   7  -3 -10 249.262 257.209  14
   7   3 -10 870.176 396.161  14
   7  -3 -10-123.267 293.883   4
   7  -3  -9 32700.3 1259.07   5
   7   3  -9 32650.6 1303.35   5
   7  -3  -9 32612.8 1493.44  10
   7   3  -9 29942.6 1284.86  10
   7  -3  -9 32997.4 1346.69  14
   7   3  -9 32606.4 1432.35  14
   7  -3  -9 32564.1 1287.01   6
   7  -3  -8 38.7944 206.625   5
   7   3  -8 37.3166 203.894   5
   7  -3  -8 321.961 311.185  10
   7   3  -8 247.773 179.110  10
   7  -3  -8 470.695 270.252  14
   7   3  -8 204.835 341.048  14
   7  -3  -7 4990.53 528.557   5
   7   3  -7 5186.59 554.385   5
   7  -3  -7 4827.75 740.143   2
   7  -3  -7 5267.83 662.779  10
   7   3  -7 3828.19 525.430  10
   7   3  -7 5074.79 611.366  14
   7   3  -7 4353.93 416.060   7
   7  -3  -7 4176.83 533.378  13
   7  -3  -7 6552.55 654.361   6
   7  -3  -6 33604.7 1261.76   5
   7   3  -6 33972.7 1286.40   5
   7  -3  -6 37734.0 1606.03  10
   7   3  -6 34307.1 1469.21  10
   7   3  -6 35430.1 1392.59  14
   7  -3  -6 32226.5 1827.71   2
   7  -3  -6 32430.5 1352.05  13
   7   3  -6 30575.5 1076.35   7
   7   3  -6 29780.3 1593.79   2
   7  -3  -5 5362.03 710.518   2
   7   3  -5 4552.31 637.300   2
   7  -3  -4 13635.3 1115.28   2
   7   3  -4 14112.9 1094.51   2
   7  -3  -3 18119.1 1243.86   2
   7   3  -3 18529.2 1228.15   2
   7  -3  -2 5259.58 684.437   2
   7   3  -2 5448.90 693.410   2
   7  -3  -1 15698.5 1123.34   2
   7   3  -1 14454.9 1101.85   2
   7   3   0 5705.03 704.829   2
   7  -3   0 6101.20 718.375   2
   7  -3   1 24897.6 1084.86  13
   7   3   1 23196.8 1014.83  13
   7   3   1 22127.1 1359.40   2
  -7   3  -1 23587.2 1072.16  12
  -7   3  -2 14013.8 914.171   1
  -7  -3  -2 12391.6 714.353   8
   7  -3   2 14463.9 818.613  13
   7   3   2 14476.8 841.611  13
   7   3   2 13966.8 1094.40   2
  -7   3  -2 13582.0 846.261  12
  -7  -3  -3 51237.1 1484.73   8
   7  -3   3 52003.2 1529.89  13
   7   3   3 52546.8 1589.92  13
  -7   3  -3 51561.8 1650.82  12
  -7  -3  -4 1000.17 279.114   8
   7  -3   4 1559.43 335.418  13
   7   3   4 1631.49 369.185  13
  -7   3  -4 907.297 300.072  12
  -7  -3  -5 46011.6 1452.79   8
   7   3   5 47027.7 1459.02  13
  -7   3  -5 47154.6 1551.20  12
  -7   3  -6 5313.95 538.320  11
  -7  -3  -6 5845.37 533.776   8
   7   3   6 5300.87 483.007  13
  -7   3  -6 5400.86 519.649  12
  -7  -3  -6 5050.39 490.889  12
  -7   3  -7 10620.1 663.102  11
   7   3   7 10149.9 568.650  13
  -7   3  -7 10073.1 602.305  12
  -7  -3  -7 10735.5 593.291  12
  -7  -3  -8 865.657 175.072   6
  -7   3  -8 904.056 206.277  11
  -7   3  -9 243.772 100.106  11
  -7  -3  -9 166.040 74.7580  11
   7   4 -13 368.165 160.046   5
   7   4 -13 360.687 176.593  14
   7   4 -12 13207.6 668.943   5
   7  -4 -12 12198.2 712.692  10
   7   4 -12 13277.8 729.610  14
   7   4 -11 5425.84 512.728   5
   7  -4 -11 4564.74 570.419  10
   7  -4 -11 5543.28 469.947   4
   7  -4 -11 5333.39 517.000  14
   7   4 -11 5398.93 580.078  14
   7  -4 -10 19686.9 905.565   5
   7   4 -10 21091.8 1010.61   5
   7  -4 -10 20470.7 1148.88  10
   7  -4 -10 19829.5 885.891   4
   7  -4 -10 20531.1 1007.83  14
   7   4 -10 20611.3 1113.30  14
   7  -4 -10 22151.4 1010.08   6
   7  -4  -9 1588.93 354.938   5
   7   4  -9 1636.68 353.185   5
   7  -4  -9 1436.73 443.272  10
   7   4  -9 1967.18 345.831  10
   7  -4  -9 1834.24 383.708  14
   7   4  -9 1624.47 431.600  14
   7  -4  -9 3264.21 513.161   6
   7  -4  -8 32993.0 1249.43   5
   7   4  -8 33864.9 1304.38   5
   7  -4  -8 32729.1 1535.85  10
   7   4  -8 29886.5 1301.98  10
   7   4  -8 33369.3 1436.28  14
   7   4  -8 33406.5 1121.41   7
   7  -4  -8 33001.5 1272.37   6
   7  -4  -7 15381.5 872.223   5
   7   4  -7 15521.0 890.676   5
   7  -4  -7 15135.0 1053.75  10
   7   4  -7 13494.0 896.657  10
   7  -4  -7 14583.6 1307.01   2
   7   4  -7 14784.0 949.851  14
   7  -4  -7 12332.1 890.473  13
   7   4  -7 14294.1 760.929   7
   7  -4  -6-156.742 198.411   2
   7   4  -6 241.558 183.405   5
   7   4  -6 280.503 152.607   2
   7   4  -6 588.149 264.831  10
   7   4  -6 258.387 286.542  14
   7  -4  -6 287.391 228.411  13
   7   4  -6 144.348 152.381   7
   7  -4  -5 1420.14 386.839   2
   7   4  -5 1518.71 317.601   5
   7   4  -5 1376.92 380.160   2
   7  -4  -5 473.953 283.540  10
   7   4  -5 1127.11 350.537  14
   7  -4  -5 1138.81 342.113  13
   7   4  -5 1047.89 257.526   7
   7  -4  -4 740.330 303.246   2
   7   4  -4 213.525 241.658   2
   7  -4  -3 31466.6 1664.80   2
   7   4  -3 32028.9 1625.04   2
   7  -4  -2 34210.0 1684.16   2
   7   4  -2 35434.1 1712.37   2
   7  -4  -1 13218.9 1040.97   2
   7   4  -1 11781.9 997.611   2
   7  -4   0 58473.3 2078.36   2
   7   4   0 55628.8 1529.81  13
   7   4   0 52363.3 2132.62   2
  -7   4  -1-11.4545 195.988  12
   7   4   1 46.1201 74.8344   2
   7  -4   1-382.018 230.079  13
   7   4   1 168.779 172.670  13
  -7   4  -2 12884.2 924.446   1
  -7  -4  -2 14984.8 791.688   8
   7  -4   2 15528.4 853.562  13
   7   4   2 15775.6 875.026  13
   7   4   2 14650.1 1175.73   2
  -7   4  -2 14862.0 895.172  12
  -7  -4  -3 1127.08 307.370   8
   7  -4   3 845.501 215.200  13
   7   4   3 775.793 275.629  13
  -7   4  -3 970.367 307.514  12
  -7   4  -4 39362.6 1392.17  11
  -7  -4  -4 40437.7 1362.42   8
   7   4   4 42584.6 1437.58  13
  -7   4  -4 40343.5 1463.77  12
  -7   4  -5-53.8576 171.182  11
  -7  -4  -5 54.2972 229.613   8
   7   4   5 25.5193 246.715  13
  -7   4  -5-75.7248 229.448  12
  -7   4  -6 11481.7 733.926  11
  -7  -4  -6 11965.0 724.397   8
   7   4   6 12500.6 716.425  13
  -7   4  -6 12276.1 754.589  12
  -7  -4  -6 11667.9 709.717  12
  -7   4  -7 4400.23 430.269  11
   7   4   7 4382.46 385.574  13
  -7   4  -7 4465.58 407.995  12
  -7  -4  -7 4824.84 382.849  12
  -7   4  -8 2449.92 282.101  11
   7   4   8 2295.46 223.710  13
  -7  -4  -8 2212.29 246.834   6
  -7   4  -9 5559.06 281.986  11
   7   5 -13 2213.81 228.719   5
   7   5 -13 1586.55 213.079  14
   7   5 -12 1607.29 282.951   5
   7  -5 -12 1530.53 349.171  10
   7   5 -12 1821.08 322.769  14
   7   5 -11 4426.08 459.689   5
   7  -5 -11 4398.05 552.693  10
   7  -5 -11 4475.91 423.871   4
   7   5 -11 5112.07 549.391  14
   7   5 -10 30143.8 1170.04   5
   7  -5 -10 28183.4 1356.94  10
   7  -5 -10 28924.0 1034.13   4
   7  -5 -10 29910.9 1152.35  14
   7   5 -10 28896.8 1289.53  14
   7  -5 -10 33134.9 1145.30   6
   7   5  -9 14702.2 865.692   5
   7  -5  -9 14251.7 1011.58  10
   7   5  -9 14303.8 951.977  14
   7   5  -9 14078.2 712.995   7
   7  -5  -9 16933.1 866.247   6
   7  -5  -8 19054.6 1062.77   3
   7   5  -8 21383.2 1040.22   5
   7  -5  -8 20540.4 1220.94  10
   7   5  -8 20243.2 1131.16  14
   7   5  -8 19394.9 886.463   7
   7   5  -7 336.979 203.502   5
   7  -5  -7 79.5512 286.544  10
   7   5  -7-224.785 223.699  10
   7   5  -7 165.484 285.630  14
   7  -5  -7 452.777 335.163  13
   7   5  -7 399.123 207.688   7
   7   5  -6 77515.1 1902.28   5
   7  -5  -6 81087.5 2353.01  10
   7   5  -6 76032.5 2130.15  10
   7  -5  -6 76768.6 2913.32   2
   7   5  -6 78972.0 2093.78  14
   7  -5  -6 75858.6 2204.76  13
   7   5  -6 78251.5 1798.45   7
   7  -5  -5 2796.34 556.292   2
   7   5  -5 1570.71 331.002   5
   7  -5  -5 2418.21 436.929  10
   7   5  -5 2684.70 509.674   2
   7   5  -5 2578.48 412.310  14
   7  -5  -5 2400.63 427.863  13
   7   5  -5 2627.25 349.793   7
   7  -5  -4 31214.9 1735.69   2
   7   5  -4 34486.9 1329.76  14
   7  -5  -4 35032.5 1431.51  13
   7   5  -4 36602.7 1223.16   7
   7   5  -4 32005.9 1639.99   2
   7  -5  -3 2986.20 552.087   2
   7   5  -3 3687.27 601.109   2
   7   5  -3 3898.78 416.472   7
   7  -5  -3 3856.99 529.258  13
   7  -5  -2 23389.1 1417.79   2
   7   5  -2 22973.8 1414.07   2
   7  -5  -1 18332.4 1213.35   2
   7   5  -1 19945.3 1354.25   2
   7  -5   0 31528.3 1255.60  13
   7   5   0 29188.3 1119.72  13
   7   5   0 31895.7 1149.21  12
   7   5   0 28313.5 1619.63   2
  -7   5   0 29187.9 1178.31  12
   7   5   1 127.516 150.479   2
   7  -5   1 341.296 263.632  13
   7   5   1 556.114 239.714  13
  -7   5  -1 359.011 214.445  12
   7   5   2 338.457 181.170   2
  -7  -5  -2 1283.21 294.912   8
   7  -5   2 1348.10 333.919  13
   7   5   2 1654.71 357.173  13
  -7   5  -2 1448.93 348.172  12
  -7   5  -3 35.5009 170.650  11
  -7  -5  -3 403.321 211.792   8
   7   5   3 427.420 275.985  13
  -7   5  -3 244.244 239.220  12
  -7   5  -4 6917.85 598.438  11
  -7  -5  -4 6987.87 589.573   8
   7   5   4 6552.86 616.521  13
  -7   5  -4 6265.55 596.777  12
  -7   5  -5 2072.01 355.379  11
  -7  -5  -5 1998.65 370.782   8
   7   5   5 2050.17 385.696  13
  -7   5  -5 1963.92 383.470  12
  -7   5  -6 14506.5 794.994  11
  -7  -5  -6 14746.5 791.280   8
   7   5   6 14443.2 767.440  13
  -7   5  -6 15239.8 809.262  12
  -7  -5  -6 13053.2 714.335  12
  -7  -5  -7 820.824 188.532  12
  -7   5  -7 732.166 212.967  11
   7   5   7 858.769 217.977  13
  -7   5  -7 826.438 203.738  12
   7   5   8 25360.6 651.029  13
  -7  -5  -8 25852.9 754.176   6
   7   6 -13 426.189 115.746   5
   7   6 -12 18371.7 695.858   5
   7  -6 -12 19315.5 813.972  10
   7   6 -12 18268.1 753.185  14
   7   6 -11 333.531 185.432   5
   7  -6 -11 147.098 372.583  10
   7   6 -11 475.474 264.275  14
   7  -6 -11-61.0201 250.306   4
   7   6 -10 9679.28 672.268   5
   7  -6 -10 9498.07 833.289  10
   7  -6 -10 8571.50 575.083   4
   7   6 -10 9450.83 743.489  14
   7   6 -10 9473.67 537.232   7
   7   6  -9 7985.65 623.937   5
   7  -6  -9 8727.69 831.284  10
   7   6  -9 7722.17 716.001  14
   7   6  -9 7469.00 544.914   7
   7   6  -8 4389.86 492.875   5
   7  -6  -8 5123.57 666.217  10
   7  -6  -8 4118.11 547.384   3
   7   6  -8 5179.95 589.585  14
   7   6  -8 4318.77 450.628   7
   7  -6  -7 29639.8 1421.07   3
   7   6  -7 28646.1 1161.27   5
   7  -6  -7 30251.6 1454.53  10
   7   6  -7 29628.4 1343.54  14
   7   6  -7 30813.3 1144.83   7
   7   6  -6 1612.39 324.912   5
   7  -6  -6 1040.68 409.463  10
   7   6  -6 1055.45 324.573  10
   7   6  -6 1257.25 352.051  14
   7  -6  -6 1343.55 416.396  13
   7   6  -6 1258.31 273.862   7
   7   6  -5 35886.6 1250.84   5
   7  -6  -5 35941.9 1523.12  10
   7  -6  -5 36075.6 1975.28   2
   7   6  -5 37669.0 1447.50  14
   7  -6  -5 35987.8 1532.87  13
   7   6  -5 35708.1 1254.04   7
   7   6  -5 34545.7 1713.20   2
   7  -6  -4 1298.95 394.803   2
   7   6  -4 1802.00 451.242   2
   7   6  -4 2080.00 408.040  14
   7  -6  -4 1544.27 359.654  13
   7   6  -4 1923.62 320.004   7
   7  -6  -3 17049.6 1286.89   2
   7   6  -3 18089.4 1000.11  14
   7   6  -3 18968.6 895.790   7
   7  -6  -3 18465.6 1050.25  13
   7   6  -3 16696.7 1200.93   2
   7  -6  -2 7219.91 822.868   2
   7  -6  -2 8168.86 700.631  13
   7   6  -2 8120.05 595.232  12
   7   6  -2 7532.53 855.134   2
   7  -6  -1 21269.4 1329.35   2
   7  -6  -1 20607.8 1069.90  13
   7   6  -1 20484.0 914.983  13
   7   6  -1 22085.7 971.707  12
   7   6  -1 23343.5 1448.39   2
   7  -6   0 48006.1 1574.11  13
   7   6   0 48271.5 1446.19  13
   7   6   0 51735.3 1495.18  12
   7   6   0 49051.7 2174.36   2
  -7   6   0 46269.3 1493.78  12
   7   6   1 707.959 261.749   2
  -7  -6  -1 309.265 173.769   8
   7   6   1 647.884 251.779  13
   7   6   1-12.8248 160.655  12
  -7   6  -1 82.0390 184.308  12
  -7  -6  -2 55690.3 1549.85   8
   7   6   2 54454.1 1621.97  13
  -7   6  -2 55040.1 1700.49  12
  -7   6  -3 4277.55 461.046  11
  -7  -6  -3 3658.97 450.177   8
   7   6   3 3738.40 460.062  13
  -7   6  -3 3240.43 470.478  12
  -7   6  -4 5381.39 511.390  11
  -7  -6  -4 5297.23 531.350   8
   7   6   4 5587.63 576.947  13
  -7   6  -4 5293.16 577.425  12
  -7   6  -5 1696.75 317.216  11
  -7  -6  -5 1943.51 346.346   8
   7   6   5 2162.34 360.845  13
  -7   6  -5 1663.10 344.934  12
  -7   6  -6 11471.6 668.305  11
  -7  -6  -6 11265.3 673.434   8
   7   6   6 11565.3 676.793  13
  -7   6  -6 11574.1 699.334  12
  -7   6  -7 6260.34 442.696  11
  -7  -6  -7 6461.48 458.357   8
   7   6   7 6424.45 444.738  13
  -7   6  -7 6598.42 452.124  12
  -7  -6  -8 303.966 127.099   6
  -7   6  -8 368.345 116.162  11
   7   6   8 458.399 120.803  13
   7   7 -12 448.445 152.447   5
   7   7 -12 66.7665 156.790  14
   7   7 -11 30973.1 970.260   5
   7  -7 -11 29751.4 1157.20  10
   7   7 -11 29923.7 1063.06  14
   7   7 -10 143.696 160.775   5
   7   7 -10-114.304 239.860  14
   7   7 -10 261.052 156.212   7
   7   7  -9 4389.91 460.286   5
   7  -7  -9 3948.55 473.320   3
   7  -7  -9 4081.42 573.218  10
   7   7  -9 4434.95 542.874  14
   7   7  -9 4581.60 441.255   7
   7   7  -8 5359.35 516.661   5
   7  -7  -8 5030.03 635.656  10
   7   7  -8 5100.40 605.742  14
   7   7  -8 5043.51 483.644   7
   7  -7  -8 4738.63 582.487   3
   7  -7  -7 23212.5 1269.13   3
   7   7  -7 24941.2 1057.69   5
   7  -7  -7 24521.2 1308.98  10
   7   7  -7 24355.0 1212.68  14
   7   7  -7 24574.3 1038.91   7
   7   7  -6 8863.13 649.646   5
   7  -7  -6 10486.4 856.554  10
   7   7  -6 9591.47 768.448  14
   7  -7  -6 9529.24 850.662  13
   7   7  -6 8999.38 649.707   7
   7  -7  -5 1480.65 494.293   2
   7  -7  -5 665.964 309.663  10
   7   7  -5 659.196 332.351  14
   7  -7  -5 613.786 356.915  13
   7   7  -5 1124.08 274.759   7
   7  -7  -4 27392.0 1715.32   2
   7   7  -4 27371.8 1239.01  14
   7  -7  -4 26725.4 1328.37  13
   7   7  -4 27391.5 1093.70   7
   7   7  -4 24614.5 1461.36   2
   7  -7  -3 8898.56 939.015   2
   7   7  -3 9490.55 762.234  14
   7   7  -3 9040.67 649.897   7
   7  -7  -3 9674.04 810.661  13
   7   7  -3 8776.59 617.802  12
   7   7  -3 8072.72 851.490   2
   7  -7  -2 4192.37 647.220   2
   7   7  -2 4361.67 688.535   2
   7  -7  -2 4613.24 567.309  13
   7   7  -2 4662.18 473.352  12
   7  -7  -1 70536.1 1974.27  13
   7   7  -1 67506.9 1641.51  13
   7   7  -1 73360.0 1809.88  12
   7   7  -1 71823.3 2645.57   2
  -7   7   1 65776.7 1736.15  12
   7  -7   0 932.769 277.350  13
   7   7   0 689.876 206.321  13
   7   7   0 1006.65 259.715  12
  -7   7   0 386.192 196.534  12
  -7  -7  -1 56576.4 1553.71   8
   7  -7   1 54462.0 1648.69  13
   7   7   1 59165.4 1645.63  13
   7   7   1 60155.3 1653.35  12
  -7   7  -1 56804.5 1710.76  12
  -7  -7  -2 2531.12 361.836   8
   7   7   2 2238.97 388.174  13
  -7   7  -2 2079.66 395.373  12
  -7   7  -3 13327.9 752.059  11
  -7  -7  -3 13548.8 803.558   8
   7   7   3 12356.3 798.189  13
  -7   7  -3 12390.8 830.337  12
  -7   7  -4 132.755 164.469  11
  -7  -7  -4 67.7195 190.739   8
   7   7   4-287.604 250.197  13
  -7   7  -4-209.226 232.778  12
  -7   7  -5 29805.4 1081.27  11
  -7  -7  -5 31281.4 1140.14   8
   7   7   5 30202.3 1130.18  13
  -7   7  -5 30418.1 1179.20  12
  -7   7  -6 105.205 161.189  11
  -7  -7  -6 146.887 172.371   8
   7   7   6 217.552 223.824  13
  -7   7  -6 33.6027 147.556  12
  -7   7  -7 2437.52 277.054  11
  -7  -7  -7 2385.78 286.728   8
   7   7   7 2330.61 275.756  13
  -7   7  -7 2398.05 263.233  12
  -7   7  -8 4871.14 286.230  11
   7   7   8 4193.68 237.878  13
  -7  -7  -8 4326.01 272.841   6
   7   8 -12 692.100 136.794  14
   7   8 -11 3153.35 302.753   5
   7  -8 -11 3093.05 429.465  10
   7   8 -11 2726.87 342.251  14
   7   8 -10 18910.2 782.845   5
   7  -8 -10 18904.7 986.635  10
   7   8 -10 19459.6 912.566  14
   7   8 -10 18380.7 725.229   7
   7   8  -9 1682.79 317.618   5
   7  -8  -9 1749.44 335.979   3
   7  -8  -9 1243.13 428.347  10
   7   8  -9 1556.67 363.258  14
   7   8  -9 1762.01 313.955   7
   7   8  -8 2571.37 362.143   5
   7  -8  -8 1566.50 456.767  10
   7  -8  -8 1932.42 420.856   3
   7   8  -8 2453.98 467.648  14
   7   8  -8 2549.15 366.979   7
   7   8  -7 36124.7 1215.12   5
   7  -8  -7 40238.1 1604.09  10
   7   8  -7 38276.6 1495.59  14
   7   8  -7 37170.9 1268.42   7
   7  -8  -7 37591.2 1611.78   3
   7  -8  -6 2798.23 476.340  10
   7  -8  -6 2412.75 474.943   3
   7   8  -6 2445.04 420.837  14
   7   8  -6 2710.19 394.580   7
   7   8  -5 14965.6 940.778  14
   7  -8  -5 14199.6 1020.24  13
   7   8  -5 14732.2 822.921   7
   7   8  -4 1601.08 405.818  14
   7  -8  -4 1817.25 453.405  13
   7   8  -4 1778.69 328.913   7
   7  -8  -3 114464. 3384.71   2
   7   8  -3 119702. 2570.97  14
   7  -8  -3 115798. 2686.88  13
   7   8  -3 121464. 2300.98   7
   7   8  -3 113626. 2163.22  12
   7   8  -3 116302. 3270.05   2
   7   8  -2 3122.26 575.032   2
   7  -8  -2 3107.59 494.977  13
   7   8  -2 3106.43 396.607  12
   7  -8  -1 1515.77 348.262  13
   7   8  -1 1342.71 268.149  13
   7   8  -1 1200.46 292.715  12
  -7   8   1 915.809 269.092  12
   7  -8   0 15893.5 935.072  13
   7   8   0 14388.8 792.125  13
   7   8   0 15845.0 874.562  12
  -7   8   0 15284.9 898.705  12
  -7  -8  -1 149.768 180.638   8
   7   8   1 287.237 215.998  13
   7   8   1 329.991 203.136  12
  -7   8  -1 91.5756 188.332  12
  -7  -8  -2 17144.0 898.068   8
   7   8   2 17516.5 913.596  13
  -7   8  -2 17504.8 971.014  12
  -7  -8  -3 889.721 282.891   8
   7   8   3 832.914 300.381  13
  -7   8  -3 587.815 277.351  12
  -7   8  -4 11027.3 655.805  11
  -7  -8  -4 11219.0 704.600   8
   7   8   4 11127.4 723.607  13
  -7   8  -4 10409.9 734.441  12
  -7   8  -5 8182.24 550.457  11
  -7  -8  -5 7923.92 573.129   8
   7   8   5 8151.18 605.615  13
  -7   8  -5 8048.22 611.851  12
  -7   8  -6 30.1480 123.941  11
  -7  -8  -6 229.007 180.399   8
   7   8   6-109.785 197.127  13
  -7   8  -6 296.334 180.404  12
  -7   8  -7 9188.36 440.947  11
  -7  -8  -7 9068.15 468.526   8
   7   8   7 8549.56 443.731  13
  -7   8  -7 9026.88 451.656  12
   7  -9 -11 9088.99 588.876  10
   7   9 -11 4605.84 366.456  14
   7   9 -10 1605.15 218.292   5
   7  -9 -10 1473.50 382.088  10
   7   9 -10 906.868 272.796  14
   7   9 -10 929.664 211.506   7
   7   9  -9 1665.04 255.677   5
   7  -9  -9 1594.78 316.685   3
   7  -9  -9 1066.03 364.589  10
   7   9  -9 1655.09 349.652  14
   7   9  -9 1960.45 310.585   7
   7  -9  -8 34396.9 1393.17  10
   7   9  -8 33141.7 1315.42  14
   7   9  -8 33204.0 1139.52   7
   7  -9  -8 32978.9 1396.70   3
   7  -9  -7 7659.21 723.580  10
   7   9  -7 8368.48 722.984  14
   7   9  -7 7634.79 588.729   7
   7  -9  -7 6846.91 733.263   3
   7  -9  -6 37393.6 1457.75  10
   7   9  -6 34959.2 1408.81  14
   7   9  -6 34315.3 1230.66   7
   7  -9  -6 33230.3 1576.50   3
   7  -9  -5 2549.70 499.230   3
   7  -9  -5 2435.89 378.141   9
   7   9  -5 2643.59 439.352  14
   7   9  -5 2401.57 382.530   7
   7  -9  -4 2609.62 487.423   3
   7  -9  -4 2753.83 421.262   9
   7   9  -4 2272.54 436.188  14
   7  -9  -4 2345.78 511.811  13
   7   9  -4 2382.88 377.001   7
   7   9  -4 2239.84 328.040  12
   7   9  -3 11157.6 824.196  14
   7  -9  -3 10394.7 842.426  13
   7   9  -3 10979.4 721.784   7
   7   9  -3 10980.6 695.119  12
   7   9  -2 115496. 2559.29  14
   7  -9  -2 119319. 2674.12  13
   7   9  -2 122054. 2318.61  12
   7  -9  -1 236.586 273.407  13
   7   9  -1 525.445 245.564  12
   7   9   0 671.216 205.561  13
   7   9   0 413.294 253.091  12
  -7   9   0 492.232 213.346  12
  -7  -9  -1 6585.37 561.907   8
   7   9   1 5903.78 532.148  13
   7   9   1 5938.01 557.422  12
  -7   9  -1 6556.69 613.684  12
  -7  -9  -2 603.849 216.597   8
   7   9   2 206.611 201.918  13
  -7   9  -2 110.419 227.542  12
  -7  -9  -3 1127.97 287.734   8
   7   9   3 1230.04 304.311  13
  -7   9  -3 681.530 293.834  12
  -7   9  -4 4092.96 385.231  11
  -7  -9  -4 4450.49 460.469   8
   7   9   4 4204.64 455.961  13
  -7   9  -4 4057.09 483.725  12
  -7   9  -5 3764.50 353.929  11
  -7  -9  -5 3847.45 392.917   8
   7   9   5 3589.51 407.086  13
  -7   9  -5 3298.70 399.375  12
  -7   9  -6 12261.3 536.859  11
  -7  -9  -6 12775.1 603.182   8
   7   9   6 12189.3 588.068  13
  -7   9  -6 11975.4 595.725  12
  -7   9  -7 4969.80 281.515  11
   7   9   7 5389.57 324.287  13
  -7   9  -7 5102.61 301.265  12
  -7  -9  -7 4720.81 311.451   6
   7  10 -10 23637.7 833.270  14
   7  10 -10 24656.7 752.222   7
   7 -10  -9 3048.48 400.946   3
   7 -10  -9 3449.20 432.704  10
   7  10  -9 3643.97 408.198  14
   7  10  -9 3302.62 351.025   7
   7 -10  -8 9888.37 695.369  10
   7  10  -8 10080.8 720.098  14
   7  10  -8 10223.6 629.441   7
   7 -10  -8 9666.10 750.264   3
   7 -10  -7 531.979 332.743   3
   7  10  -7 357.079 289.153  14
   7  10  -7 534.519 252.885   7
   7 -10  -6 1457.64 397.211   3
   7  10  -6 1286.83 354.684  14
   7  10  -6 1622.27 334.454   7
   7 -10  -5 3361.18 578.616   3
   7 -10  -5 2479.96 393.419   9
   7  10  -5 3094.48 472.851  14
   7  10  -5 3174.64 425.148   7
   7 -10  -4 2269.51 503.769   3
   7 -10  -4 2131.53 391.699   9
   7  10  -4 2169.29 446.968  14
   7  10  -4 2626.54 400.324   7
   7  10  -4 2398.48 330.163  12
   7 -10  -3 10413.7 908.582   3
   7 -10  -3 10206.0 767.345   9
   7  10  -3 10976.0 823.680  14
   7 -10  -3 10191.7 850.545  13
   7  10  -3 10429.4 699.052   7
   7  10  -3 10318.0 680.449  12
   7 -10  -2 33630.6 1499.71   3
   7  10  -2 35571.1 1423.65  14
   7 -10  -2 34248.9 1417.25  13
   7  10  -2 33657.8 1222.84  12
   7 -10  -1-66.0228 216.584   3
   7 -10  -1 90.2596 218.149  13
   7  10  -1 201.671 188.070  12
  -7  10   1 27.1364 150.906  12
   7 -10   0 7405.78 661.959   3
   7  10   0 7593.43 549.741  13
   7  10   0 8368.97 636.292  12
  -7  10   0 8361.33 657.336  12
  -7 -10  -1 321.911 195.165   8
   7  10   1 46.9279 141.137  13
   7  10   1 212.173 234.379  12
  -7  10  -1 109.136 236.491  12
  -7 -10  -2 39053.3 1274.59   8
   7  10   2 37230.9 1220.29  13
  -7  10  -2 37476.5 1350.54  12
  -7 -10  -3-23.0938 225.129   8
   7  10   3 46.1947 202.801  13
  -7  10  -3-67.6594 218.942  12
   7 -10   4 26652.3 951.606   9
  -7 -10  -4 27415.4 998.283   8
   7  10   4 26702.3 974.814  13
  -7  10  -4 26623.9 1053.16  12
  -7  10  -5 4503.63 330.969  11
  -7 -10  -5 4396.21 396.048   8
   7  10   5 4608.81 406.909  13
  -7  10  -5 4479.09 416.765  12
  -7  10  -6 7178.31 347.189  11
  -7 -10  -6 7444.49 423.911   8
   7  10   6 7171.98 416.268  13
  -7  10  -6 7279.06 422.571  12
   7  10   7 279.194 92.0266  13
   7  11 -10 2376.81 236.203   7
   7  11  -9 7735.38 515.927  14
   7  11  -9 7666.04 460.916   7
   7 -11  -9 6912.32 529.140   3
   7 -11  -8 2581.32 400.417   3
   7 -11  -8 2246.51 361.554  10
   7  11  -8 2455.61 375.270  14
   7  11  -8 2486.72 334.388   7
   7  11  -7 8891.62 670.149  14
   7  11  -7 9531.15 613.057   7
   7 -11  -7 9040.41 755.872   3
   7  11  -6 17582.8 946.823  14
   7  11  -6 18529.1 870.679   7
   7 -11  -6 18554.2 1132.61   3
   7 -11  -5-355.007 318.429   3
   7 -11  -5 194.379 216.628   9
   7  11  -5-0.92152 248.611  14
   7  11  -5-38.9030 216.570   7
   7 -11  -4 16492.2 921.903   9
   7  11  -4 18095.3 1017.76  14
   7  11  -4 19515.8 912.308   7
   7  11  -4 17717.3 820.192  12
   7 -11  -4 18144.7 1159.16   3
   7 -11  -3 5031.22 566.004   9
   7  11  -3 5143.94 595.927  14
   7  11  -3 6061.56 520.949  12
   7 -11  -3 5943.95 662.767   3
   7 -11  -2 4844.58 571.473   9
   7  11  -2 5641.98 620.036  14
   7  11  -2 5651.31 514.741  12
   7 -11  -2 5840.71 647.467   3
   7 -11  -1 25180.5 1183.88   9
   7  11  -1 26164.9 1081.95  12
  -7  11   1 26372.3 1052.35  12
   7 -11  -1 27507.8 1251.79   3
  -7 -11   0-87.5544 145.670   8
   7  11   0 97.8273 183.042  12
  -7  11   0 247.402 212.209  12
  -7 -11  -1 23755.6 971.197   8
   7  11   1 22916.6 896.971  13
   7  11   1 23702.3 1004.37  12
  -7  11  -1 23717.1 1043.90  12
   7 -11   2 1318.37 322.855   9
  -7 -11  -2 1033.03 264.422   8
   7  11   2 1118.29 251.003  13
  -7  11  -2 971.744 279.643  12
   7 -11   3 16888.6 808.436   9
  -7 -11  -3 17050.1 786.071   8
   7  11   3 16006.5 740.060  13
  -7  11  -3 15629.6 804.541  12
   7 -11   4 249.027 161.364   9
  -7 -11  -4 50.5780 167.643   8
   7  11   4 141.194 177.854  13
  -7  11  -4 420.458 206.080  12
  -7 -11  -5 1290.41 223.633   8
   7  11   5 1171.44 215.564  13
  -7  11  -5 1128.65 225.379  12
  -7 -11  -6 8524.48 392.037   8
   7  11   6 8225.29 378.634  13
  -7  11  -6 8156.13 384.800  12
   7  12 -10 866.556 130.997   7
   7  12  -9 5252.68 356.161   7
   7 -12  -9 5093.16 407.021   3
   7 -12  -8 355.055 212.694   3
   7  12  -8 237.865 172.719  14
   7  12  -8 220.112 148.792   7
   7  12  -7 43393.0 1279.13  14
   7  12  -7 44987.4 1204.47   7
   7 -12  -7 46182.3 1532.94   3
   7 -12  -6 1634.98 410.428   3
   7  12  -6 715.968 279.101  14
   7  12  -6 1008.32 264.769   7
   7 -12  -5 13555.2 751.421   9
   7  12  -5 14769.2 846.278  14
   7  12  -5 15287.3 766.058   7
   7  12  -5 14721.9 664.362  12
   7 -12  -5 15229.1 1011.62   3
   7 -12  -4 1488.66 387.225   3
   7 -12  -4 1091.73 289.536   9
   7  12  -4 1639.86 370.103  14
   7  12  -4 1427.43 313.486   7
   7  12  -4 1141.12 247.009  12
   7 -12  -3 34749.7 1324.83   9
   7  12  -3 39319.3 1407.57  14
   7  12  -3 36650.2 1181.04  12
   7 -12  -3 37867.0 1527.56   3
   7 -12  -2 24.4183 184.886   3
   7 -12  -2-83.6266 226.209   9
   7  12  -2 214.055 253.553  14
   7  12  -2 72.8663 194.330  12
   7 -12  -1 7794.95 681.372   9
   7  12  -1 8989.88 701.310  14
   7  12  -1 9474.87 650.525  12
  -7  12   1 8833.99 583.251  12
   7 -12  -1 9190.09 705.906   3
   7 -12   0 726.092 312.927   9
  -7 -12   0 522.623 200.920   8
   7  12   0 1026.48 288.192  12
  -7  12   0 920.829 243.510  12
   7 -12   1 420.847 276.509   9
  -7 -12  -1 423.050 171.517   8
   7  12   1 141.350 215.091  12
  -7  12  -1 314.908 204.569  12
   7 -12   2 1644.44 326.221   9
  -7 -12  -2 1554.48 273.909   8
   7  12   2 1715.10 249.282  13
  -7  12  -2 1621.38 322.552  12
   7 -12   3 2269.76 303.913   9
  -7 -12  -3 2115.30 280.749   8
   7  12   3 2241.31 283.478  13
  -7  12  -3 2165.00 322.320  12
   7 -12   4 1066.46 176.891   9
  -7 -12  -4 1150.36 219.809   8
   7  12   4 1224.28 206.826  13
  -7  12  -4 945.150 230.591  12
  -7 -12  -5 15408.0 547.074   8
   7  12   5 15330.4 523.965  13
  -7  12  -5 15208.1 566.914  12
   7  13  -9 3534.98 255.441   7
   7 -13  -9 2639.51 245.553   3
   7  13  -8 5549.01 366.623   7
   7 -13  -8 4380.65 398.399   3
   7 -13  -7 2187.95 341.270   3
   7  13  -7 2087.58 297.789  14
   7  13  -7 2553.91 292.138   7
   7  13  -6 4353.52 421.445  14
   7  13  -6 4790.96 413.037   7
   7 -13  -6 4252.28 504.785   3
   7 -13  -5-191.930 259.308   3
   7 -13  -5 135.019 140.340   9
   7  13  -5 41.3275 200.329  14
   7  13  -5 19.4857 165.592   7
   7  13  -5 266.426 75.6819  12
   7 -13  -4 8095.89 593.582   9
   7  13  -4 8575.33 633.240  14
   7  13  -4 9036.76 531.256  12
   7 -13  -4 7775.83 679.270   3
   7 -13  -3 358.626 248.886   3
   7 -13  -3 435.562 240.018   9
   7  13  -3 287.374 241.968  14
   7  13  -3 387.538 190.152  12
   7 -13  -2 18560.5 943.043   9
   7  13  -2 21270.0 981.670  14
   7  13  -2 20490.5 867.177  12
   7 -13  -2 21137.3 1011.38   3
   7 -13  -1 16966.1 904.838   9
   7  13  -1 18669.0 924.245  14
   7  13  -1 18108.2 830.592  12
   7 -13  -1 18024.9 862.575   3
   7 -13   0 109.111 214.418   9
  -7 -13   0 16.9675 125.586   8
   7  13   0-137.214 273.167  14
   7  13   0 14.5703 153.250  12
  -7  13   0-2.39172 111.167  12
   7 -13   1 12681.9 720.703   9
  -7 -13  -1 11511.2 593.204   8
   7  13   1 12539.5 659.007  12
  -7  13  -1 11854.9 636.136  12
   7 -13   2-355.586 194.447   9
  -7 -13  -2-77.3808 133.488   8
  -7  13  -2 148.431 182.042  12
   7 -13   3 6321.38 410.089   9
  -7 -13  -3 6382.88 400.497   8
  -7  13  -3 6281.09 433.051  12
  -7 -13  -4 485.227 131.407   8
   7  13   4 753.202 135.015  13
  -7  13  -4 496.552 152.397  12
  -7 -13  -5 18287.8 471.234   8
   7  13   5 17242.5 517.677  14
   7 -14  -8 9104.81 460.669   3
   7 -14  -7 958.386 230.219   3
   7 -14  -6 18.1353 214.623   3
   7  14  -6 224.990 145.837  14
   7 -14  -5-99.4676 193.276   3
   7 -14  -5 125.918 111.800   9
   7  14  -5 56.6351 162.384  14
   7 -14  -4 664.113 252.050   3
   7 -14  -4 660.473 184.817   9
   7  14  -4 797.653 231.160  14
   7  14  -4 798.831 176.337  12
   7 -14  -3 2952.21 379.622   3
   7 -14  -3 2735.16 367.650   9
   7  14  -3 2906.85 361.397  14
   7  14  -3 2733.97 307.420  12
   7 -14  -2 6786.21 539.038   9
   7  14  -2 8522.08 581.367  14
   7  14  -2 7267.48 492.762  12
   7 -14  -2 7305.14 537.128   3
   7 -14  -1 8.97876 197.525   9
   7  14  -1-106.821 214.042  14
   7  14  -1-53.7592 170.321  12
   7 -14   0 12931.4 694.747   9
  -7 -14   0 12106.5 523.663   8
   7  14   0 14599.2 731.325  14
   7  14   0 15000.3 678.066  12
  -7  14   0 14642.6 605.492  12
   7 -14   1 1144.06 244.919   9
  -7 -14  -1 1233.52 189.314   8
   7  14   1 1296.42 265.576  14
  -7  14  -1 1135.16 203.748  12
   7 -14   2 24545.5 781.241   9
  -7 -14  -2 23445.6 695.350   8
   7  14   2 25234.2 850.210  14
  -7  14  -2 24494.4 756.747  12
   7 -14   3 94.0404 89.8534   9
   7  14   3-40.4141 134.283  14
  -7  14  -3 89.8159 110.596  12
   7  14   4 15091.4 490.939  14
  -7  14  -4 18514.1 497.277  12
   7 -15  -7 2041.07 230.892   3
   7 -15  -6 11632.3 575.811   3
   7 -15  -5-142.888 162.801   3
   7 -15  -4 18338.4 677.779   9
   7  15  -4 17304.8 639.056  14
   7  15  -4 18144.8 589.609  12
   7 -15  -4 17891.0 762.352   3
   7 -15  -3 533.946 185.331   3
   7 -15  -3 393.256 182.415   9
   7  15  -3 584.345 175.417  14
   7  15  -3 644.853 162.718  12
   7 -15  -2 12824.2 634.075   9
   7  15  -2 13571.7 614.283  14
   7  15  -2 13274.0 570.861  12
   7 -15  -2 12257.9 557.327   3
   7 -15  -1 1002.31 226.799   9
   7  15  -1 1191.57 232.439  14
   7  15  -1 920.518 196.592  12
   7 -15   0 2492.54 301.257   9
   7  15   0 3182.33 312.503  14
   7  15   0 2794.33 278.407  12
  -7  15   0 2564.81 214.585  12
   7 -15   1 2488.22 263.818   9
   7  15   1 2724.20 287.704  14
  -7  15  -1 2403.54 211.358  12
   7 -15   2-97.8484 82.3096   9
   7  15   2-166.956 121.857  14
  -7  15  -2 138.033 82.3524  12
   7 -16  -5 11473.0 462.672   3
   7 -16  -4 827.309 149.298   3
   7 -16  -4 998.036 148.043   9
   7 -16  -3 6014.91 358.031   9
   7  16  -3 5518.89 294.803  12
   7 -16  -2 4447.51 325.177   9
   7  16  -2 4340.19 284.314  12
   7 -16  -1 5717.88 358.379   9
   7  16  -1 5445.49 309.491  14
   7 -16   0 2581.00 236.865   9
   7  16   0 2145.44 198.717  14
   8   0 -12 14930.9 680.137   5
   8   0 -12 12672.9 627.728  10
   8   0 -12 13595.2 682.193  14
   8   0 -11 287.918 239.112   5
   8   0 -11-52.1427 197.923  10
   8   0 -11 121.220 250.041  14
   8   0 -10 28467.4 1174.02   5
   8   0 -10 27575.1 1240.32  10
   8   0 -10 28328.9 1201.58  14
   8   0  -9 214.986 273.172   5
   8   0  -9 107.290 274.174  10
   8   0  -9-10.6349 225.252  14
   8   0  -8 4269.81 543.308   5
   8   0  -8 3581.77 559.129  10
   8   0  -8 3707.45 513.144  14
   8   0  -7 275.840 296.755   5
   8   0  -7 46.6505 255.667  10
   8   0  -7-353.076 245.272  14
   8   0  -6 120602. 2495.12   5
   8   0  -6 120268. 2823.12  10
   8   0  -6 112262. 2330.44  14
   8   0  -6 116014. 3419.89   2
   8   0  -5 150.932 185.809   2
   8   0  -5-15.1482 222.237  10
   8   0  -5 230.165 183.249  13
   8   0  -4 6147.61 757.247   2
   8   0  -4 3391.26 428.035  13
   8   0  -3 973.302 317.395   2
   8   0  -3 168.491 187.079  13
   8   0  -2 10940.7 742.355  13
   8   0  -2 9570.83 955.598   2
   8   0  -1-50.9572 106.647   2
   8   0  -1 0.87074 178.236  13
   8   0   0-605.368 246.133   2
   8   0   0 332.052 234.497  13
   8   0   1-116.864 187.553  13
   8   0   2 110267. 2304.55  13
  -8   0  -3-26.7071 214.693  12
   8   0   3-95.5341 207.817  13
   8   0   4 38532.9 1289.95  13
  -8   0  -4 39706.6 1418.30  12
   8   0   5-175.757 184.825  13
  -8   0  -5-156.552 226.796  12
   8   0   6 5420.81 411.708  13
  -8   0  -6 5491.96 465.310  12
  -8   0  -7 103.825 151.466  11
  -8   0  -7 34.6318 86.0279  12
  -8   0  -8 16532.4 533.194  11
   8  -1 -12 112.613 219.674  10
   8  -1 -12 670.975 189.670  14
   8   1 -12 815.280 245.212  14
   8  -1 -11 27724.1 1036.06   5
   8   1 -11 29025.1 1088.97   5
   8  -1 -11 26339.9 1107.50  10
   8   1 -11 23928.5 988.895  10
   8  -1 -11 26795.7 1062.11  14
   8   1 -11 26453.0 1084.55  14
   8  -1 -10 798.822 310.477   5
   8   1 -10 784.337 333.891   5
   8  -1 -10 751.470 317.400  10
   8   1 -10 632.607 268.665  10
   8  -1 -10 529.555 305.030  14
   8   1 -10 566.498 300.058  14
   8  -1  -9 6939.73 652.071   5
   8   1  -9 7043.13 662.334   5
   8  -1  -9 6889.48 723.632  10
   8   1  -9 7137.28 697.418  10
   8  -1  -9 7508.81 666.755  14
   8   1  -9 7212.91 671.690  14
   8  -1  -8 637.890 287.080   5
   8   1  -8 172.867 260.034   5
   8  -1  -8 272.215 279.136  10
   8   1  -8 14.1887 231.998  10
   8  -1  -8 256.917 300.828  14
   8   1  -8-28.7005 283.256  14
   8  -1  -7 7943.66 697.073   5
   8   1  -7 7723.81 690.832   5
   8  -1  -7 8083.17 779.377  10
   8   1  -7 7035.88 730.923  10
   8  -1  -7 7778.27 654.896  14
   8   1  -7 8458.08 709.234  14
   8  -1  -7 6520.23 607.687  13
   8   1  -6 36689.2 1391.40   5
   8  -1  -6 35112.5 1551.19  10
   8   1  -6 35522.7 1535.44  10
   8   1  -6 33697.7 1320.37  14
   8  -1  -6 35390.1 1927.25   2
   8   1  -6 34660.2 1850.97   2
   8  -1  -6 32581.8 1320.55  13
   8  -1  -5 12922.9 942.311  10
   8   1  -5 12383.7 798.689  14
   8  -1  -5 12894.4 1145.21   2
   8  -1  -5 11794.9 818.432  13
   8   1  -5 12722.5 807.461  13
   8   1  -5 12576.5 1114.08   2
   8  -1  -4 44133.7 1515.81  13
   8  -1  -4 44850.6 2087.45   2
   8   1  -4 43410.9 1435.00  13
   8   1  -4 43258.9 2018.16   2
   8  -1  -3 1526.91 429.089   2
   8   1  -3 2288.95 453.540   2
   8  -1  -3 2692.19 416.059  13
   8   1  -3 1748.57 321.171  13
   8  -1  -2 23343.2 1078.72  13
   8   1  -2 22511.0 1031.95  13
   8  -1  -2 22800.0 1459.75   2
   8   1  -2 20575.2 1368.41   2
   8  -1  -1 1105.77 313.838   2
   8   1  -1 1108.52 401.210   2
   8  -1  -1 1000.36 303.889  13
   8   1  -1 1114.90 264.901  13
   8  -1   0 53014.0 1614.21  13
   8   1   0 51787.0 1573.90  13
   8  -1   0 50153.6 2073.56   2
   8   1   0 53275.1 2174.09   2
   8  -1   1 9214.62 701.980  13
   8   1   1 8726.24 683.731  13
   8   1   1 8808.90 923.078   2
  -8   1  -1 7941.01 660.562  12
  -8   1  -2 1864.48 366.296  12
   8  -1   2 1172.13 328.152  13
   8   1   2 1856.09 396.060  13
   8  -1   3 4666.85 504.197  13
   8   1   3 5337.43 550.807  13
  -8   1  -3 5750.43 583.481  12
  -8   1  -4 1257.46 332.914  12
  -8  -1  -4 1658.52 349.692  12
   8  -1   4 1212.25 297.535  13
   8   1   4 1295.13 341.636  13
   8  -1   5 27596.7 993.949  13
   8   1   5 28322.2 1043.29  13
  -8   1  -5 28484.9 1129.47  12
  -8  -1  -5 27078.2 1106.65  12
  -8   1  -6 4797.46 448.099  11
   8   1   6 4398.89 385.602  13
  -8   1  -6 4736.61 439.364  12
  -8  -1  -6 4897.96 437.180  12
  -8   1  -7 5213.81 402.596  11
  -8  -1  -7 5199.60 408.629  11
  -8   1  -7 5539.78 375.338  12
  -8  -1  -7 5586.34 359.931  12
  -8   1  -8 7584.56 358.757  11
  -8  -1  -8 7452.75 361.698  11
   8   2 -13 10417.9 468.873  14
   8   2 -12 1419.59 289.572   5
   8  -2 -12 581.617 244.415  10
   8   2 -12 1166.13 273.102  14
   8   2 -11 1692.37 345.285   5
   8  -2 -11 1348.86 370.961  10
   8   2 -11 1351.82 280.404  10
   8  -2 -11 1740.86 318.021  14
   8   2 -11 1880.71 382.932  14
   8  -2 -10 1995.21 393.065   5
   8   2 -10 1576.22 380.216   5
   8  -2 -10 1383.51 379.160  10
   8   2 -10 1514.85 320.873  10
   8  -2 -10 1599.10 345.039  14
   8   2 -10 1394.24 390.508  14
   8  -2  -9 805.870 331.275   5
   8   2  -9 97.7158 268.026   5
   8  -2  -9-4.75180 292.438  10
   8   2  -9 75.5503 212.183  10
   8  -2  -9-116.086 242.840  14
   8   2  -9-18.6993 288.511  14
   8  -2  -8 782.251 351.063   5
   8   2  -8 151.168 243.880   5
   8  -2  -8 466.052 330.539  10
   8   2  -8 200.798 275.170  10
   8  -2  -8-160.230 249.609  14
   8   2  -8-123.140 277.778  14
   8   2  -7 2845.71 447.281   5
   8  -2  -7 2211.73 505.765  10
   8   2  -7 2491.15 471.681  10
   8   2  -7 2810.47 466.047  14
   8  -2  -7 2550.66 442.316  13
   8   2  -6 25913.0 1173.20   5
   8  -2  -6 26296.4 1359.72  10
   8   2  -6 25252.3 1303.02  10
   8   2  -6 26082.7 1181.53  14
   8  -2  -6 23590.8 1157.70  13
   8   2  -6 25228.1 1575.24   2
   8  -2  -5 73189.1 2181.79  10
   8   2  -5 68552.0 1830.57  14
   8  -2  -5 69076.2 2649.11   2
   8  -2  -5 69199.3 1969.86  13
   8   2  -5 72240.7 2619.23   2
   8  -2  -4 235.043 302.564   2
   8   2  -4-533.823 234.839   2
   8  -2  -4-151.049 252.885  10
   8   2  -4-1160.89 308.751  14
   8  -2  -4-118.227 216.293  13
   8   2  -4 578.899 201.556  13
   8  -2  -3 67090.3 2527.29   2
   8  -2  -3 70806.9 1920.61  13
   8   2  -3 67528.9 1742.43  13
   8   2  -3 67381.2 2499.81   2
   8  -2  -2 157.388 227.001   2
   8   2  -2 113.852 130.070   2
   8  -2  -2 142.535 218.389  13
   8   2  -2 71.5901 182.950  13
   8  -2  -1 39044.7 1406.95  13
   8  -2  -1 38493.9 1853.20   2
   8   2  -1 41957.5 1397.72  13
   8   2  -1 38771.8 1885.89   2
  -8   2   1 38441.8 1315.55  12
   8  -2   0 3300.03 537.969   2
   8   2   0 3951.49 619.466   2
   8  -2   0 4554.88 535.170  13
   8   2   0 3799.22 456.233  13
  -8   2   0 4161.05 480.700  12
   8  -2   1 37718.2 1372.59  13
   8   2   1 36385.3 1331.78  13
   8   2   1 33931.4 1769.76   2
  -8   2  -1 35670.3 1345.80  12
  -8  -2  -2 25011.9 987.254   8
   8  -2   2 27115.7 1155.61  13
   8   2   2 25950.8 1142.69  13
  -8   2  -2 25980.7 1169.91  12
  -8   2  -3 2065.51 398.390  12
  -8  -2  -3 1614.68 311.756   8
   8  -2   3 1881.20 379.057  13
   8   2   3 2045.89 356.701  13
   8  -2   4 11313.3 707.115  13
   8   2   4 11350.9 746.297  13
  -8   2  -4 11752.0 784.080  12
  -8  -2  -4 10456.6 746.656  12
  -8  -2  -5 2226.47 367.923  12
  -8   2  -5 2209.07 362.297  11
   8   2   5 2224.51 364.720  13
  -8   2  -5 1733.05 357.736  12
  -8   2  -6 2291.32 328.797  11
   8   2   6 2045.59 280.314  13
  -8   2  -6 2282.39 313.987  12
  -8  -2  -6 2756.37 342.986  12
  -8   2  -7 3888.84 346.150  11
  -8  -2  -7 3459.03 335.870  11
   8   2   7 3277.81 257.009  13
  -8   2  -7 3955.58 320.397  12
  -8  -2  -7 4065.84 297.648  12
  -8  -2  -7 2957.85 247.890   6
  -8   2  -8 4305.54 264.563  11
  -8  -2  -8 4613.05 280.603  11
   8   3 -13 7494.67 383.002  14
   8   3 -12 1875.35 299.253   5
   8   3 -12 1396.52 269.835  14
   8   3 -11 10077.1 664.755   5
   8  -3 -11 9789.06 716.365  10
   8  -3 -11 10162.8 610.688  14
   8   3 -11 10545.5 695.189  14
   8   3 -10 2067.11 401.283   5
   8  -3 -10 1935.67 443.610  10
   8   3 -10 1561.51 313.560  10
   8  -3 -10 2054.65 340.440  14
   8   3 -10 2033.14 409.115  14
   8   3  -9 18760.2 985.646   5
   8  -3  -9 20515.8 1170.60  10
   8   3  -9 17144.1 976.018  10
   8  -3  -9 19668.6 946.426  14
   8   3  -9 17917.0 1026.75  14
   8   3  -8 4617.70 537.980   5
   8  -3  -8 5068.87 679.551  10
   8   3  -8 4648.83 570.887  10
   8   3  -8 5101.58 579.953  14
   8   3  -7 70086.2 1898.83   5
   8  -3  -7 68478.8 2191.61  10
   8   3  -7 65487.6 2030.77  10
   8   3  -7 68526.7 1952.57  14
   8  -3  -7 65735.7 1973.72  13
   8   3  -6 5426.22 564.212   5
   8  -3  -6 4381.47 601.253  10
   8   3  -6 4264.17 562.184  10
   8   3  -6 4055.41 528.977  14
   8  -3  -6 3346.21 519.226  13
   8  -3  -5 9816.96 838.053  10
   8   3  -5 9567.17 731.580  14
   8  -3  -5 8998.21 974.805   2
   8  -3  -5 9073.34 767.338  13
   8   3  -5 9482.09 947.433   2
   8  -3  -4 315.341 176.107   2
   8  -3  -4 158.752 263.293  10
   8   3  -4-291.649 216.336  14
   8  -3  -4 64.7035 237.813  13
   8   3  -4 339.942 194.546  13
   8  -3  -3 792.717 279.738   2
   8   3  -3 165.561 212.957   2
   8  -3  -3 253.302 165.859  10
   8   3  -3 722.546 302.994  14
   8  -3  -3-148.755 185.481  13
   8   3  -3 44.6477 144.795  13
   8  -3  -2 26393.7 1586.25   2
   8  -3  -2 24908.2 1165.40  13
   8   3  -2 24460.2 1054.26  13
   8   3  -2 23859.7 1506.74   2
  -8   3   1 3873.24 466.543  12
   8  -3  -1 2667.47 535.568   2
   8   3  -1 3882.09 640.208   2
   8   3  -1 4074.32 465.771  13
   8  -3  -1 4199.84 530.586  13
   8  -3   0 9033.65 711.030  13
   8   3   0 9068.14 667.049  13
   8   3   0 8940.12 982.998   2
  -8   3   0 8413.97 659.271  12
   8  -3   1 41128.2 1440.11  13
   8   3   1 41922.9 1428.84  13
  -8   3  -1 39530.3 1416.95  12
  -8   3  -2 388.790 254.014  12
  -8  -3  -2 307.894 184.660   8
   8  -3   2 155.052 209.100  13
   8   3   2-156.029 246.575  13
  -8  -3  -3 23832.7 990.172   8
   8  -3   3 23981.1 1044.27  13
   8   3   3 24114.9 1083.49  13
  -8   3  -3 24346.1 1128.39  12
  -8   3  -4 8703.43 618.069  11
  -8  -3  -4 8751.70 619.313   8
   8  -3   4 9101.90 606.998  13
   8   3   4 7803.21 621.458  13
  -8   3  -4 8552.12 671.468  12
  -8   3  -5 24115.2 991.150  11
   8   3   5 23926.0 966.688  13
  -8   3  -5 24704.3 1041.95  12
  -8  -3  -5 25917.7 1055.06  12
  -8   3  -6 5340.35 444.946  11
   8   3   6 4838.31 410.743  13
  -8   3  -6 5540.34 456.523  12
  -8  -3  -6 4910.69 421.701  12
  -8   3  -7 7318.15 438.054  11
   8   3   7 7479.52 381.668  13
  -8   3  -7 8169.24 438.050  12
  -8  -3  -7 6715.55 365.688   6
  -8   3  -8 2271.43 177.775  11
  -8  -3  -8 2550.07 196.250  11
   8   4 -13 522.779 119.253  14
   8  -4 -12 6036.05 474.733  10
   8   4 -12 6941.28 478.169  14
   8   4 -11 1895.55 338.490   5
   8  -4 -11 1286.04 366.741  10
   8   4 -11 1727.54 352.459  14
   8   4 -10 29988.7 1156.49   5
   8  -4 -10 31866.8 1354.20  10
   8   4 -10 31143.9 1249.53  14
   8   4  -9 6597.91 616.995   5
   8  -4  -9 7621.50 756.533  10
   8   4  -9 6945.85 613.243  10
   8   4  -9 7470.37 697.119  14
   8  -4  -8 15532.3 956.858   3
   8   4  -8 17222.4 952.789   5
   8  -4  -8 17939.5 1145.70  10
   8   4  -8 15575.8 957.060  10
   8   4  -8 18015.6 1036.21  14
   8   4  -8 17579.6 795.910   7
   8   4  -7 3278.26 471.124   5
   8  -4  -7 3838.87 589.079  10
   8   4  -7 3370.46 507.142  10
   8   4  -7 3673.22 533.770  14
   8  -4  -7 2873.32 517.973  13
   8   4  -7 3339.69 396.231   7
   8   4  -6 18610.3 986.065   5
   8  -4  -6 18388.5 1131.54  10
   8   4  -6 19083.2 1108.23  10
   8   4  -6 17981.5 1021.28  14
   8   4  -6 19240.0 900.378   7
   8  -4  -6 18080.3 1069.73  13
   8   4  -5 2512.81 599.156   2
   8  -4  -5 2839.95 460.088  10
   8   4  -5 2852.10 463.119  14
   8  -4  -5 2829.79 486.321  13
   8  -4  -4 6859.59 825.809   2
   8  -4  -4 6946.61 712.372  10
   8   4  -4 7577.27 847.641   2
   8   4  -4 7292.88 638.047  14
   8  -4  -4 7063.64 696.350  13
   8  -4  -3 33450.5 1410.90  10
   8   4  -3 34063.0 1291.76  14
   8  -4  -3 35950.5 1866.13   2
   8  -4  -3 35479.6 1426.35  13
   8   4  -3 34283.8 1206.77  13
   8   4  -3 36611.6 1870.73   2
   8  -4  -2 1373.12 466.706   2
   8  -4  -2 1779.73 412.417  10
   8   4  -2 2296.95 521.749   2
   8   4  -2 1821.55 370.300  14
   8  -4  -2 1366.71 347.961  13
   8   4  -2 1718.97 314.256  13
   8   4  -1 25649.0 1110.11  14
   8  -4  -1 25467.1 1511.61   2
   8  -4  -1 25919.8 1192.23  13
   8   4  -1 25726.5 1093.81  13
   8   4  -1 24457.3 1544.50   2
  -8   4   1 26202.4 1093.85  12
   8  -4   0 17522.4 983.302  13
   8   4   0 17007.7 898.766  13
  -8   4   0 17127.7 923.324  12
   8  -4   1 24309.4 1122.56  13
   8   4   1 24625.9 1100.57  13
  -8   4  -1 23686.4 1103.86  12
  -8  -4  -2 30907.8 1103.97   8
   8  -4   2 31067.1 1228.49  13
   8   4   2 31510.5 1245.10  13
  -8   4  -2 28544.4 1215.70  12
  -8   4  -3 23163.9 987.350  11
  -8  -4  -3 22143.7 949.076   8
   8  -4   3 23094.8 1009.61  13
   8   4   3 22774.8 1058.47  13
  -8   4  -3 22701.0 1086.76  12
  -8   4  -4 10818.1 681.340  11
  -8  -4  -4 11476.1 692.188   8
   8   4   4 11713.3 745.264  13
  -8   4  -4 12264.1 789.208  12
  -8  -4  -5 324.583 225.281  12
  -8   4  -5 94.3943 177.726  11
   8   4   5 332.455 228.192  13
  -8   4  -5 245.979 220.848  12
  -8   4  -6 29100.3 951.830  11
   8   4   6 29134.9 925.725  13
  -8   4  -6 31162.3 1014.15  12
  -8  -4  -6 28618.6 936.002  12
  -8   4  -7 59.9984 115.996  11
   8   4   7-59.9095 107.814  13
   8   5 -12 6041.59 396.600   5
   8  -5 -12 5174.35 421.674  10
   8   5 -12 4721.28 382.446  14
   8   5 -11 117.792 204.561   5
   8   5 -11 51.1898 218.221  14
   8   5 -10 85.5333 249.667   5
   8   5 -10 473.208 296.822  14
   8   5  -9 5113.74 538.182   5
   8  -5  -9 5585.70 640.012  10
   8   5  -9 5076.92 586.377  14
   8   5  -9 5215.05 424.198   7
   8   5  -8 2557.22 431.959   5
   8  -5  -8 2165.53 481.923  10
   8   5  -8 2476.29 392.913  10
   8  -5  -8 1975.41 384.327   3
   8   5  -8 2869.60 494.527  14
   8   5  -8 2438.35 338.573   7
   8   5  -7 1652.31 376.160   5
   8  -5  -7 1126.28 403.677  10
   8   5  -7 1278.02 341.516  10
   8   5  -7 1476.52 390.669  14
   8  -5  -7 1745.91 426.750  13
   8   5  -7 1465.89 308.600   7
   8  -5  -6 55692.9 1898.81  10
   8   5  -6 54879.1 1823.15  10
   8   5  -6 54632.3 1738.56  14
   8  -5  -6 52345.0 1843.94  13
   8   5  -6 56089.0 1539.09   7
   8  -5  -5 15276.6 1007.27  10
   8   5  -5 16997.0 972.860  14
   8   5  -5 17076.7 868.408   7
   8  -5  -5 15771.7 1033.79  13
   8  -5  -4 37603.0 1526.67  10
   8   5  -4 38864.6 1444.58  14
   8  -5  -4 37162.7 1515.25  13
   8  -5  -3 21525.4 1138.49  10
   8   5  -3 21368.2 1068.52  14
   8  -5  -3 23190.3 1541.74   2
   8  -5  -3 22339.5 1169.16  13
   8   5  -3 20640.2 933.989  13
   8   5  -3 22680.4 1487.83   2
   8   5  -2 36184.6 1363.01  14
   8  -5  -2 35490.6 1840.67   2
   8  -5  -2 35777.4 1441.74  13
   8   5  -2 36845.9 1258.64  13
   8   5  -2 38407.0 1941.86   2
   8  -5  -1 234.518 306.799  13
   8   5  -1-126.603 176.189  13
  -8   5   1-272.625 213.634  12
   8  -5   0 32238.9 1322.65  13
   8   5   0 32226.0 1229.58  13
  -8   5   0 31920.4 1242.86  12
   8  -5   1 2249.80 409.290  13
   8   5   1 2423.57 408.822  13
  -8   5  -1 2148.65 386.245  12
  -8  -5  -2 11803.6 696.438   8
   8  -5   2 11189.4 745.431  13
   8   5   2 11280.3 757.339  13
  -8   5  -2 12043.0 790.574  12
  -8   5  -3 1144.15 253.465  11
  -8  -5  -3 1007.48 220.750   8
   8   5   3 931.022 302.923  13
  -8   5  -3 1214.22 325.909  12
  -8   5  -4 3652.04 399.483  11
  -8  -5  -4 3775.26 406.722   8
   8   5   4 3743.79 459.379  13
  -8   5  -4 3874.07 462.780  12
  -8   5  -5 1115.50 241.800  11
  -8  -5  -5 1630.77 292.505   8
   8   5   5 1624.12 328.519  13
  -8   5  -5 1501.86 306.008  12
  -8   5  -6 7263.09 457.626  11
   8   5   6 6789.61 455.669  13
  -8   5  -6 7238.82 483.074  12
  -8  -5  -6 7237.92 461.406  12
  -8   5  -7 53.8783 90.4157  11
   8   5   7 224.856 104.997  13
  -8   5  -7 91.0631 87.3053  12
   8  -6 -12 5981.56 417.014  10
   8   6 -12 4912.31 356.301  14
   8   6 -11 4979.01 405.033   5
   8  -6 -11 3925.99 460.365  10
   8   6 -11 4821.73 445.662  14
   8   6 -10 8256.54 584.548   5
   8  -6 -10 7148.45 679.059  10
   8   6 -10 8861.63 657.760  14
   8   6  -9 1843.61 353.719   5
   8  -6  -9 2404.65 457.002  10
   8  -6  -9 1448.71 289.236   3
   8   6  -9 1647.38 412.600  14
   8   6  -9 2131.91 302.441   7
   8   6  -8 23241.5 1024.72   5
   8  -6  -8 23615.1 1227.29  10
   8   6  -8 21250.4 1100.77  14
   8   6  -8 21563.6 899.618   7
   8  -6  -8 21082.2 1121.31   3
   8   6  -7 29910.9 1166.65   5
   8  -6  -7 26844.6 1342.85   3
   8  -6  -7 28109.7 1355.33  10
   8   6  -7 26365.6 1183.48  10
   8   6  -7 28297.6 1275.90  14
   8   6  -7 28332.4 1078.24   7
   8  -6  -6 11329.7 876.008  10
   8   6  -6 10935.9 819.757  10
   8   6  -6 11750.8 851.605  14
   8  -6  -6 11589.7 917.101  13
   8   6  -6 12141.9 745.263   7
   8  -6  -5 2568.03 422.617  10
   8   6  -5 1813.01 406.054  14
   8  -6  -5 2972.17 501.823  13
   8   6  -5 2464.77 374.400   7
   8  -6  -4 210.451 276.434  10
   8   6  -4 297.536 268.707  14
   8  -6  -4 196.072 252.729  13
   8   6  -3 34538.7 1378.09  14
   8  -6  -3 32322.2 1419.63  13
   8   6  -2 658.601 296.268  14
   8  -6  -2 683.119 313.948  13
   8   6  -2 1119.59 257.607  13
   8  -6  -1 17103.6 1013.97  13
   8   6  -1 17565.1 884.240  13
  -8   6   1 17748.4 897.740  12
   8  -6   0 7811.80 687.949  13
   8   6   0 8376.26 638.539  13
  -8   6   0 9026.45 684.305  12
   8  -6   1 3569.40 488.351  13
   8   6   1 3626.04 479.575  13
  -8   6  -1 2903.58 421.035  12
  -8  -6  -2 14731.4 760.516   8
   8  -6   2 14091.7 811.259  13
   8   6   2 14660.0 844.735  13
  -8   6  -2 14246.0 863.511  12
  -8  -6  -3 19987.6 884.108   8
   8   6   3 18917.6 934.029  13
  -8   6  -3 18000.2 949.048  12
  -8   6  -4 16112.3 737.750  11
  -8  -6  -4 16755.0 797.866   8
   8   6   4 16475.2 845.360  13
  -8   6  -4 16309.8 871.458  12
  -8   6  -5 1323.65 225.153  11
  -8  -6  -5 1578.33 271.968   8
   8   6   5 1476.68 306.785  13
  -8   6  -5 1472.19 289.136  12
  -8   6  -6 7329.83 421.139  11
   8   6   6 7000.90 448.581  13
  -8   6  -6 6769.22 452.563  12
  -8  -6  -6 7365.61 430.707  12
  -8   6  -7 2366.38 191.745  11
   8   6   7 2275.48 204.010  13
  -8   6  -7 2640.46 212.240  12
  -8  -6  -7 2049.28 203.894   6
   8  -7 -12 3583.57 327.058  10
   8   7 -12 137.437 107.004  14
   8  -7 -11 40056.2 1150.59  10
   8   7 -11 39953.0 1102.82  14
   8   7 -10 2642.87 333.010   5
   8  -7 -10 1784.09 386.881  10
   8   7 -10 2241.17 361.171  14
   8   7  -9 17408.3 810.231   5
   8  -7  -9 17901.0 1017.37  10
   8   7  -9 19218.0 979.071  14
   8   7  -9 17956.3 754.268   7
   8  -7  -9 16566.7 860.339   3
   8   7  -8 658.580 233.300   5
   8  -7  -8 141.835 268.638  10
   8  -7  -8-68.6004 203.299   3
   8   7  -8-35.1571 287.008  14
   8   7  -8 120.071 181.985   7
   8  -7  -7 16775.3 1070.62   3
   8  -7  -7 16736.9 1019.79  10
   8   7  -7 18497.6 1031.23  14
   8   7  -7 16523.9 833.795   7
   8  -7  -6 3641.29 529.350  10
   8   7  -6 3046.48 435.561  10
   8   7  -6 3463.24 509.408  14
   8  -7  -6 3258.34 559.862  13
   8   7  -6 3540.32 443.457   7
   8  -7  -5 319.368 285.603  10
   8   7  -5 370.387 309.203  14
   8  -7  -5 44.3682 294.922  13
   8   7  -5 579.421 243.836   7
   8   7  -4 232.189 291.630  14
   8  -7  -4 500.327 364.014  13
   8   7  -3 18958.9 1030.97  14
   8  -7  -3 17484.7 1071.90  13
   8   7  -3 17373.3 841.496  12
   8   7  -2 309.728 284.602  14
   8  -7  -2 271.981 286.969  13
   8   7  -2 179.325 174.246  13
   8   7  -2 540.256 226.556  12
   8  -7  -1 5495.07 618.218  13
   8   7  -1 4756.15 470.990  13
  -8   7   1 5248.80 514.211  12
   8  -7   0-17.9756 239.920  13
   8   7   0 76.8979 195.817  13
  -8   7   0 221.307 173.253  12
   8  -7   1 37693.3 1341.45  13
   8   7   1 37410.5 1294.76  13
  -8   7  -1 34928.5 1305.10  12
  -8  -7  -2 274.857 214.441   8
   8   7   2 344.407 231.482  13
  -8   7  -2 253.923 240.577  12
  -8  -7  -3 26241.9 983.985   8
   8   7   3 25187.2 1044.08  13
  -8   7  -3 24761.7 1073.20  12
  -8   7  -4 1897.27 242.141  11
  -8  -7  -4 2262.76 313.544   8
   8   7   4 2652.14 371.919  13
  -8   7  -4 1556.10 331.908  12
  -8   7  -5 28579.9 838.468  11
  -8  -7  -5 26739.5 892.804   8
   8   7   5 26569.5 920.339  13
  -8   7  -5 27913.9 975.352  12
  -8  -7  -6 1024.17 157.905  12
  -8   7  -6 1128.70 165.924  11
   8   7   6 890.362 203.413  13
  -8   7  -6 1266.24 206.283  12
  -8  -7  -7 12937.1 431.159   6
   8  -8 -11 918.687 244.990  10
   8   8 -11 544.624 177.128  14
   8  -8 -10 18251.2 840.406  10
   8   8 -10 17466.1 791.583  14
   8  -8  -9 5218.91 560.277  10
   8   8  -9 6676.73 583.159  14
   8   8  -9 6242.50 448.491   7
   8  -8  -9 5131.87 486.896   3
   8  -8  -8 11419.6 806.703  10
   8   8  -8 12426.3 816.125  14
   8   8  -8 11761.8 662.210   7
   8  -8  -8 10852.2 794.151   3
   8  -8  -7 2396.26 437.782  10
   8  -8  -7 1724.01 399.153   3
   8   8  -7 1754.96 404.585  14
   8   8  -7 1722.07 321.615   7
   8  -8  -6 312.200 234.019  10
   8  -8  -6-23.0374 212.536   3
   8   8  -6 287.134 298.689  14
   8   8  -6 116.703 187.592   7
   8  -8  -5 13947.7 780.796   9
   8   8  -5 13545.9 893.272  14
   8  -8  -5 13290.4 967.442  13
   8   8  -5 13792.6 802.960   7
   8   8  -4 78.4744 268.014  14
   8  -8  -4 37.1890 269.752  13
   8   8  -3 44423.1 1575.45  14
   8   8  -3 43458.3 1314.54  12
   8   8  -2-188.025 261.666  14
   8  -8  -2-93.8378 297.956  13
   8   8  -2 194.431 168.842  12
   8  -8  -1 19007.9 1046.39  13
   8   8  -1 19844.4 888.902  13
   8   8  -1 19234.4 921.785  12
  -8   8   1 20733.4 953.494  12
   8  -8   0 126.699 210.338  13
   8   8   0-113.806 150.527  13
  -8   8   0-233.090 207.283  12
   8   8   1 40098.8 1297.27  13
  -8   8  -1 39967.6 1374.54  12
  -8  -8  -2 2336.33 326.328   8
   8   8   2 2272.63 376.790  13
  -8   8  -2 2056.95 361.009  12
  -8  -8  -3 2168.03 323.818   8
   8   8   3 2565.70 375.547  13
  -8   8  -3 1950.92 354.574  12
  -8  -8  -4 20177.8 796.597   8
   8   8   4 20543.8 845.830  13
  -8   8  -4 20927.7 902.414  12
  -8   8  -5 818.286 151.437  11
   8  -8   5 741.291 148.783   9
  -8  -8  -5 907.315 190.377   8
   8   8   5 804.865 227.173  13
  -8   8  -5 831.352 203.677  12
   8   8   6 7277.74 391.114  13
  -8   8  -6 7287.91 394.882  12
   8  -9 -11 6053.49 375.083  10
   8   9 -11 976.885 166.284  14
   8  -9 -10 1039.41 274.065  10
   8   9 -10 838.690 223.128  14
   8  -9  -9 1801.75 286.625   3
   8  -9  -9 989.838 311.651  10
   8   9  -9 1684.41 312.581  14
   8   9  -9 1816.84 268.627   7
   8  -9  -8 9796.49 694.378  10
   8   9  -8 10940.0 726.340  14
   8   9  -8 10831.7 622.277   7
   8  -9  -8 10065.8 726.955   3
   8  -9  -7 6912.14 620.269  10
   8   9  -7 7954.93 672.079  14
   8   9  -7 7738.35 570.389   7
   8  -9  -7 7617.75 712.228   3
   8  -9  -6 11288.5 891.238   3
   8   9  -6 12068.5 833.642  14
   8   9  -6 11628.9 713.959   7
   8  -9  -5 13.1882 297.669   3
   8  -9  -5 204.319 163.357   9
   8   9  -5 65.4115 287.433  14
   8   9  -5 108.667 212.173   7
   8  -9  -4 35436.6 1551.60   3
   8  -9  -4 35455.7 1291.18   9
   8   9  -4 37978.1 1451.12  14
   8  -9  -4 35616.3 1483.48  13
   8   9  -4 35930.6 1110.75  12
   8   9  -3 995.092 370.843  14
   8  -9  -3 331.206 326.662  13
   8   9  -3 291.556 210.511  12
   8   9  -2 22096.5 1115.67  14
   8  -9  -2 20796.3 1092.62  13
   8   9  -2 21108.8 944.785  12
   8   9  -1 4966.51 580.618  14
   8  -9  -1 4714.45 534.586  13
   8   9  -1 4451.10 464.551  12
  -8   9   1 4999.17 473.811  12
   8  -9   0 12770.4 790.872  13
   8   9   0 12117.2 689.643  13
  -8   9   0 12277.8 749.423  12
   8   9   1 1129.09 258.388  13
  -8   9  -1 1252.64 303.239  12
  -8  -9  -2 18810.7 801.237   8
   8   9   2 19774.2 871.574  13
  -8   9  -2 19819.1 927.815  12
  -8  -9  -3 406.705 187.793   8
   8   9   3-253.383 198.199  13
  -8   9  -3 327.501 242.106  12
  -8  -9  -4 2.00256 129.122   8
   8   9   4-212.142 182.888  13
  -8   9  -4-163.848 178.248  12
  -8  -9  -5 6786.87 394.467   8
   8   9   5 6287.44 401.744  13
  -8   9  -5 6321.71 419.042  12
   8   9   6-33.0828 90.4955  13
  -8   9  -6-211.779 93.5897  12
   8 -10 -10 24390.6 691.565  10
   8  10 -10 20772.1 689.568  14
   8 -10  -9 940.885 214.005   3
   8 -10  -9 1322.59 260.957  10
   8  10  -9 1215.91 253.557  14
   8  10  -9 1258.70 222.562   7
   8 -10  -8 20121.0 820.889  10
   8  10  -8 22776.1 948.915  14
   8  10  -8 21908.3 812.710   7
   8 -10  -8 20401.8 960.039   3
   8 -10  -7 965.575 302.476   3
   8  10  -7 1001.87 323.030  14
   8  10  -7 1059.35 265.936   7
   8  10  -6 14306.3 863.430  14
   8  10  -6 14665.8 760.791   7
   8 -10  -6 13433.6 923.460   3
   8 -10  -5 1821.02 437.109   3
   8 -10  -5 2076.75 317.256   9
   8  10  -5 2377.19 442.969  14
   8 -10  -4 1266.14 375.154   3
   8 -10  -4 1311.51 308.593   9
   8  10  -4 1330.49 377.888  14
   8  10  -4 1213.71 234.728  12
   8 -10  -3-204.828 265.387   3
   8 -10  -3-6.07735 203.700   9
   8  10  -3 159.729 298.296  14
   8  10  -3-93.4554 142.624  12
   8 -10  -2 5897.17 633.055   3
   8  10  -2 6295.27 631.892  14
   8 -10  -2 6089.44 594.688  13
   8  10  -2 5704.95 501.721  12
   8 -10  -1 6570.65 623.743   3
   8  10  -1 6851.00 637.053  14
   8 -10  -1 6413.71 566.704  13
   8  10  -1 6826.23 550.328  12
  -8  10   1 7001.30 522.356  12
   8 -10   0 2169.83 377.051   3
   8  10   0 2835.42 332.414  13
  -8  10   0 2598.12 348.364  12
  -8 -10  -1 2618.34 306.764   8
   8  10   1 2889.81 345.328  13
  -8  10  -1 3099.29 392.173  12
  -8 -10  -2 9404.88 535.239   8
   8  10   2 9315.49 565.383  13
  -8  10  -2 10471.8 651.742  12
   8 -10   3-52.9279 149.920   9
  -8 -10  -3-1.48344 114.344   8
   8  10   3-261.453 191.285  13
  -8  10  -3 77.5138 176.613  12
   8 -10   4 26344.7 766.145   9
  -8 -10  -4 27311.4 787.233   8
   8  10   4 25811.0 796.664  13
  -8  10  -4 26587.7 864.933  12
  -8 -10  -5 241.249 97.6795  12
  -8 -10  -5 111.432 93.0477   8
   8  10   5 10.0948 102.174  13
  -8  10  -5-37.2042 100.230  12
   8  11  -9 8973.78 480.437  14
   8 -11  -9 8525.39 474.770   3
   8 -11  -8-190.490 149.768   3
   8  11  -8-218.561 190.018  14
   8  11  -8-87.6284 132.330   7
   8  11  -7 9235.89 620.940  14
   8  11  -7 8336.22 530.453   7
   8 -11  -7 8209.88 647.140   3
   8  11  -6 5235.72 534.531  14
   8 -11  -6 5792.78 600.939   3
   8 -11  -5 4635.52 422.780   9
   8  11  -5 5736.26 563.272  14
   8 -11  -5 5631.53 616.192   3
   8 -11  -4 13921.0 773.388   9
   8  11  -4 15874.2 897.093  14
   8  11  -4 14118.2 662.076  12
   8 -11  -4 14837.0 953.903   3
   8 -11  -3 3801.84 504.649   3
   8 -11  -3 3760.06 448.057   9
   8  11  -3 3286.05 494.913  14
   8  11  -3 4170.71 397.693  12
   8 -11  -2 3970.86 474.421   9
   8  11  -2 4133.68 533.717  14
   8  11  -2 3865.98 406.591  12
   8 -11  -2 4023.43 494.468   3
   8 -11  -1 5806.52 555.437   9
   8  11  -1 5588.39 585.541  14
   8  11  -1 5549.28 478.686  12
   8 -11  -1 5027.48 513.252   3
   8 -11   0 8934.43 663.316   9
   8  11   0 8904.80 674.626  14
  -8  11   0 8794.62 567.158  12
   8 -11   1 18343.4 874.515   9
   8  11   1 17295.8 694.350  13
  -8  11  -1 18865.3 815.820  12
   8 -11   2 2175.98 335.313   9
  -8 -11  -2 1763.81 241.451   8
   8  11   2 1936.59 257.019  13
  -8  11  -2 2090.21 303.224  12
   8 -11   3 12244.5 575.991   9
  -8 -11  -3 11493.5 509.847   8
   8  11   3 11676.1 529.889  13
  -8  11  -3 12172.5 597.422  12
   8 -11   4 1731.83 173.226   9
  -8 -11  -4 2091.61 209.961   8
   8  11   4 2055.44 232.218  13
  -8  11  -4 2139.96 241.389  12
   8  11   5 5100.05 256.146  13
  -8  11  -5 4880.38 267.809  12
   8 -12  -9 1001.01 158.045   3
   8 -12  -8 1116.42 225.801   3
   8  12  -8 1445.94 218.490  14
   8  12  -7 6729.66 474.308  14
   8 -12  -7 6620.05 519.591   3
   8 -12  -6 0.81013 226.494   3
   8  12  -6 22.2734 195.530  14
   8 -12  -5 20386.7 784.858   9
   8  12  -5 22420.3 941.232  14
   8 -12  -5 21528.8 1032.43   3
   8 -12  -4 78.3626 211.228   3
   8 -12  -4 71.5355 176.164   9
   8  12  -4-135.107 245.930  14
   8  12  -4 14.7314 122.966  12
   8 -12  -3 28718.3 1073.15   9
   8  12  -3 31872.4 1171.38  14
   8  12  -3 28854.1 935.147  12
   8 -12  -3 31520.4 1241.64   3
   8 -12  -2 626.742 259.983   3
   8 -12  -2-61.6481 216.817   9
   8  12  -2 618.680 290.335  14
   8  12  -2 460.157 195.444  12
   8 -12  -1 11696.7 709.230   9
   8  12  -1 12099.6 736.177  14
   8  12  -1 11315.8 617.450  12
   8 -12  -1 10897.5 649.900   3
   8 -12   0 927.903 284.958   9
   8  12   0 409.938 256.955  14
  -8  12   0 557.570 165.497  12
   8 -12   1 12473.7 669.486   9
   8  12   1 13182.6 705.295  14
  -8  12  -1 12722.7 599.475  12
   8 -12   2 51.7219 149.081   9
  -8 -12  -2-44.2258 82.4878   8
   8  12   2-64.5796 205.993  14
  -8  12  -2-291.763 138.740  12
   8 -12   3 7136.28 383.439   9
  -8 -12  -3 6505.59 331.760   8
   8  12   3 6748.61 424.010  14
   8  12   3 7197.92 347.905  13
  -8  12  -3 7408.69 407.379  12
   8  12   4 178.325 110.161  14
  -8  12  -4 230.801 101.762  12
   8 -13  -8 22.9346 112.172   3
   8  13  -7 6997.03 404.459  14
   8 -13  -7 8163.36 501.697   3
   8  13  -6 4723.54 383.030  14
   8 -13  -6 4771.66 445.385   3
   8 -13  -5 2976.28 277.422   9
   8  13  -5 3068.79 347.403  14
   8 -13  -5 3235.32 385.622   3
   8 -13  -4 9782.53 551.800   9
   8  13  -4 11333.6 641.402  14
   8  13  -4 10313.0 475.756  12
   8 -13  -4 10829.0 682.132   3
   8 -13  -3-348.337 197.510   3
   8 -13  -3 98.9752 163.864   9
   8  13  -3 46.5710 198.174  14
   8  13  -3 238.549 143.438  12
   8 -13  -2 13108.9 689.926   9
   8  13  -2 13169.3 699.151  14
   8  13  -2 12108.4 577.928  12
   8 -13  -2 13368.4 684.172   3
   8 -13  -1 854.177 239.266   9
   8  13  -1 270.449 207.322  14
   8 -13   0 4515.35 412.100   9
   8  13   0 5102.65 448.969  14
  -8  13   0 4486.68 318.185  12
   8 -13   1 5690.15 414.268   9
   8  13   1 6011.02 446.835  14
  -8  13  -1 5603.11 347.081  12
   8 -13   2 1332.98 204.716   9
   8  13   2 1279.75 221.090  14
  -8  13  -2 1456.88 187.102  12
   8  13   3 2888.56 247.938  14
  -8  13  -3 3164.40 225.246  12
   8 -14  -7 1656.54 207.352   3
   8  14  -6 4748.00 301.549  14
   8 -14  -6 4966.79 378.852   3
   8 -14  -5 206.469 135.537   3
   8  14  -5 86.8266 125.265  14
   8 -14  -4 128.303 138.195   3
   8 -14  -4 219.856 129.362   9
   8  14  -4 60.9102 129.953  14
   8 -14  -3 3229.45 305.877   9
   8  14  -3 3469.74 339.537  14
   8 -14  -3 3169.45 320.172   3
   8 -14  -2-104.525 76.1590   3
   8 -14  -2-45.5232 139.181   9
   8  14  -2 157.990 161.668  14
   8 -14  -1-114.331 147.131   9
   8  14  -1-86.4211 180.501  14
   8 -14   0 3613.51 318.132   9
   8  14   0 4146.84 346.973  14
   8 -14   1 534.325 139.511   9
   8  14   1 564.874 160.789  14
   8  14   2 9632.00 397.885  14
   8 -15  -5 115.404 90.0936   3
   8 -15  -4 10448.5 376.489   9
   8  15  -4 10524.3 401.816  14
   8 -15  -4 11050.5 445.992   3
   8 -15  -3 70.0270 96.5450   9
   8  15  -3 122.672 96.3753  14
   8 -15  -2 12766.5 493.403   9
   8  15  -2 11625.4 458.566  14
   8 -15  -1 585.738 139.073   9
   8  15  -1 422.523 125.444  14
   8 -15   0 14948.7 476.510   9
   8  15   0 12311.3 438.385  14
   9   0 -12 25197.8 709.743  10
   9   0 -12 27822.3 748.748  14
   9   0 -11 87.8378 187.625  10
   9   0 -11 13.2655 153.005  14
   9   0 -10 4176.96 476.663  10
   9   0 -10 3259.55 407.324  14
   9   0  -9-18.9516 223.469  10
   9   0  -9-64.5024 230.701  14
   9   0  -8 76271.6 2143.83  10
   9   0  -8 73692.6 1822.89  14
   9   0  -7-299.213 308.730  10
   9   0  -7 382.948 225.927  14
   9   0  -7-393.648 187.967  13
   9   0  -6 26050.8 1336.87  10
   9   0  -6 25373.5 1135.05  13
   9   0  -5 3.51933 258.786  10
   9   0  -5-380.683 255.992  13
   9   0  -4 15962.7 941.668  13
   9   0  -3 398.737 238.183  13
   9   0  -2 148.772 198.359  13
   9   0  -1 0.92869 242.185  13
  -9   0   0 1413.68 326.049  12
   9   0   0 1937.79 421.140  13
  -9   0  -1 238.889 208.057  12
   9   0   1 5.32610 240.582  13
  -9   0  -2 381.376 263.909  12
   9   0   2 400.790 263.893  13
  -9   0  -3 17.4165 232.981  12
   9   0   3 82.1700 233.204  13
   9   0   4 22008.8 895.151  13
  -9   0  -4 22344.4 960.199  12
  -9   0  -5 41.7612 130.283  11
   9   0   5 147.737 139.816  13
  -9   0  -5 53.3631 176.171  12
  -9   0  -6 22824.0 718.736  11
  -9   0  -6 23571.4 719.014  12
   9  -1 -12 11556.8 519.860  10
   9   1 -12 12661.7 531.492  14
   9  -1 -11 6953.18 531.742  10
   9   1 -11 6732.17 486.214  10
   9  -1 -11 6900.91 458.700  14
   9   1 -11 7078.46 502.017  14
   9  -1 -10 1414.02 334.588  10
   9   1 -10 2077.22 364.201  10
   9  -1 -10 1709.64 296.850  14
   9   1 -10 2166.69 339.716  14
   9  -1  -9 11712.0 834.898  10
   9   1  -9 10401.1 783.206  10
   9  -1  -9 12033.7 718.168  14
   9   1  -9 11557.7 741.677  14
   9  -1  -8 1364.60 391.205  10
   9   1  -8 1407.24 366.245  10
   9   1  -8 1750.21 365.114  14
   9  -1  -7 28807.3 1381.43  10
   9   1  -7 27449.3 1338.83  10
   9   1  -7 27735.4 1157.63  14
   9  -1  -7 27144.7 1175.47  13
   9  -1  -6 12446.0 936.130  10
   9   1  -6 11374.0 894.400  10
   9   1  -6 11623.3 753.239  14
   9  -1  -6 10203.2 766.158  13
   9   1  -6 11036.9 741.205  13
   9  -1  -5 1698.82 438.996  10
   9   1  -5 1657.67 423.441  10
   9  -1  -5 1516.41 362.272  13
   9   1  -5 1339.87 335.409  13
   9  -1  -4 35607.4 1512.36  10
   9  -1  -4 33677.7 1350.33  13
   9   1  -4 33308.6 1301.10  13
   9  -1  -3 12675.8 850.199  13
   9   1  -3 12054.2 799.476  13
   9  -1  -2 1794.39 384.389  13
   9   1  -2 1695.98 355.196  13
  -9   1   1 84.3647 176.132  12
   9  -1  -1 262.309 251.883  13
   9   1  -1 412.301 266.445  13
   9  -1   0 32115.3 1296.53  13
   9   1   0 32035.5 1281.49  13
  -9   1   0 32471.8 1243.70  12
  -9   1  -1 2335.38 402.435  12
   9  -1   1 2738.05 432.476  13
   9   1   1 2565.44 436.703  13
   9  -1   2 7771.84 648.896  13
   9   1   2 7668.83 644.082  13
  -9   1  -2 6702.74 608.348  12
  -9  -1  -2 7470.50 631.890  12
  -9  -1  -3 27.4351 230.510  12
   9  -1   3 109.198 196.860  13
   9   1   3 37.4122 220.761  13
  -9   1  -3-81.9493 228.784  12
   9  -1   4 31975.6 1051.00  13
   9   1   4 32981.2 1098.07  13
  -9   1  -4 33782.9 1174.09  12
  -9  -1  -4 34287.3 1185.65  12
  -9   1  -5 13926.7 649.870  11
   9  -1   5 13977.6 593.517  13
   9   1   5 14370.3 639.238  13
  -9   1  -5 15208.9 712.924  12
  -9  -1  -5 15372.6 714.083  12
  -9   1  -6 2512.34 252.061  11
  -9  -1  -6 2453.55 262.109  11
  -9   1  -6 2750.90 270.900  12
  -9  -1  -6 2475.93 241.924  12
   9  -2 -12 20.1593 166.743  10
   9   2 -12 652.082 181.392  14
   9  -2 -11 12899.9 717.654  10
   9   2 -11 10926.2 577.275  10
   9  -2 -11 11864.4 549.389  14
   9   2 -11 12794.4 649.461  14
   9  -2 -10 1699.93 368.849  10
   9   2 -10 1694.28 304.469  10
   9  -2 -10 1890.22 277.464  14
   9   2 -10 1687.66 332.126  14
   9  -2  -9 3388.09 527.092  10
   9   2  -9 3004.70 449.676  10
   9   2  -9 3559.48 448.820  14
   9  -2  -8 2352.58 477.489  10
   9   2  -8 2345.53 446.661  10
   9   2  -8 2738.32 432.211  14
   9  -2  -7 6939.50 707.830  10
   9   2  -7 7426.72 735.798  10
   9   2  -7 7363.90 643.441  14
   9  -2  -7 7335.39 639.562  13
   9  -2  -6 1897.35 462.569  10
   9   2  -6 1646.14 409.105  10
   9   2  -6 1850.34 362.321  14
   9  -2  -6 1574.13 356.263  13
   9  -2  -5 384.360 314.812  10
   9   2  -5 353.648 287.077  10
   9   2  -5 51.5631 205.081  14
   9  -2  -5 274.004 273.079  13
   9   2  -5-334.042 216.425  13
   9  -2  -4 1641.11 421.931  10
   9  -2  -4 1651.91 401.756  13
   9   2  -4 1233.23 324.250  13
   9  -2  -3 52829.3 1805.73  10
   9  -2  -3 53712.5 1728.85  13
   9   2  -3 51007.5 1576.80  13
   9   2  -2 4331.70 500.739  13
   9  -2  -2 4390.13 540.591  13
   9  -2  -1 42518.8 1525.76  13
   9   2  -1 44734.8 1495.24  13
  -9   2   1 43146.8 1383.48  12
  -9   2   0 1730.93 356.201  12
   9  -2   0 1760.44 395.911  13
   9   2   0 2820.63 440.225  13
   9  -2   1 29772.0 1220.75  13
   9   2   1 30533.3 1232.72  13
  -9   2  -1 30322.6 1206.01  12
   9  -2   2 2551.96 405.150  13
   9   2   2 2821.10 434.793  13
  -9   2  -2 2571.79 402.053  12
  -9   2  -3 11264.8 649.747  11
   9  -2   3 10857.9 675.370  13
   9   2   3 11817.1 734.856  13
  -9   2  -3 11530.1 740.914  12
  -9  -2  -3 11489.2 750.968  12
  -9  -2  -4 226.587 229.412  12
  -9   2  -4 448.352 174.057  11
   9  -2   4 528.539 191.560  13
   9   2   4 547.272 253.056  13
  -9   2  -4 334.610 232.249  12
  -9   2  -5 6263.53 429.688  11
   9   2   5 6812.67 461.785  13
  -9   2  -5 6680.54 477.934  12
  -9  -2  -5 6560.79 475.776  12
  -9   2  -6 897.459 155.856  11
  -9  -2  -6 735.397 159.589  11
   9   2   6 917.660 151.537  13
  -9   2  -6 1011.27 173.201  12
  -9  -2  -6 869.238 158.595  12
   9  -3 -12 669.090 197.615  10
   9   3 -12 937.707 178.664  14
   9  -3 -11 24358.4 949.562  10
   9   3 -11 23813.4 871.485  14
   9  -3 -10 1383.85 334.677  10
   9   3 -10 1673.52 300.311  10
   9   3 -10 986.197 296.612  14
   9  -3  -9 13363.8 891.096  10
   9   3  -9 12362.0 773.325  10
   9   3  -9 13348.6 805.358  14
   9  -3  -8 4519.37 585.426  10
   9   3  -8 3921.05 520.670  10
   9   3  -8 4168.21 507.575  14
   9  -3  -7 59989.4 1955.73  10
   9   3  -7 59033.3 1883.02  10
   9   3  -7 59121.1 1707.19  14
   9  -3  -7 60686.8 1810.00  13
   9  -3  -6 9643.20 839.012  10
   9   3  -6 8568.52 773.332  10
   9   3  -6 10763.6 771.564  14
   9  -3  -6 9703.48 788.811  13
   9  -3  -5 13587.3 963.521  10
   9   3  -5 11939.1 785.059  14
   9  -3  -5 11716.7 857.354  13
   9  -3  -4 13339.4 934.082  10
   9   3  -4 13167.1 800.992  14
   9  -3  -4 13167.9 898.456  13
   9   3  -4 11993.6 757.583  13
   9  -3  -3 1995.10 434.144  10
   9   3  -3 2279.24 363.990  14
   9  -3  -3 2217.37 444.132  13
   9   3  -3 2014.47 372.248  13
   9  -3  -2 7472.36 682.050  10
   9  -3  -2 7935.94 711.785  13
   9   3  -2 8183.17 657.714  13
   9  -3  -1 11824.9 832.159  13
   9   3  -1 11918.8 787.966  13
  -9   3   1 11665.1 743.870  12
   9  -3   0 524.139 312.348  13
   9   3   0 125.370 225.872  13
  -9   3   0 317.986 237.382  12
   9  -3   1 3077.99 464.678  13
   9   3   1 2740.27 435.695  13
  -9   3  -1 2778.40 417.525  12
   9  -3   2 12813.3 780.206  13
   9   3   2 13732.9 828.945  13
  -9   3  -2 13242.8 798.275  12
  -9   3  -3 9726.17 569.838  11
   9  -3   3 10493.6 649.036  13
   9   3   3 10252.9 687.883  13
  -9   3  -3 9615.76 669.782  12
  -9   3  -4 4530.22 388.109  11
   9   3   4 4767.66 450.278  13
   9  -3   4 3776.81 354.908  13
  -9   3  -4 4648.40 445.707  12
  -9  -3  -4 4699.07 466.231  12
  -9   3  -5 13633.7 584.277  11
   9   3   5 13006.3 611.320  13
  -9   3  -5 13595.7 656.104  12
  -9  -3  -5 13122.9 638.900  12
  -9  -3  -6 841.148 109.715   6
  -9   3  -6 1226.30 156.871  11
  -9  -3  -6 1161.44 180.245  11
   9   3   6 1220.84 164.809  13
  -9   3  -6 1236.40 183.638  12
  -9  -3  -6 1450.42 188.918  12
   9  -4 -12 4846.16 339.026  10
   9   4 -12 5287.56 336.852  14
   9  -4 -11 2133.05 355.583  10
   9   4 -11 2919.82 339.240  14
   9  -4 -10 9632.44 691.467  10
   9   4 -10 9657.04 632.379  14
   9  -4  -9 337.719 303.527  10
   9   4  -9 561.093 222.269  10
   9   4  -9 377.775 263.676  14
   9  -4  -8 19609.2 991.139   3
   9  -4  -8 24957.4 1224.33  10
   9   4  -8 21456.5 1053.44  10
   9   4  -8 23471.6 1086.80  14
   9  -4  -7 5685.99 652.047  10
   9   4  -7 5108.71 590.035  10
   9   4  -7 5850.59 589.969  14
   9  -4  -7 5452.80 601.856  13
   9  -4  -6 18534.4 1094.92  10
   9   4  -6 18083.9 1057.63  10
   9   4  -6 18477.9 980.552  14
   9  -4  -6 17407.3 1029.80  13
   9  -4  -5 1212.88 352.553  10
   9   4  -5 1039.38 330.605  14
   9  -4  -5 953.694 362.516  13
   9  -4  -4 28337.0 1310.12  10
   9   4  -4 28059.1 1179.30  14
   9  -4  -4 29327.1 1332.29  13
   9   4  -4 28828.3 1114.69  13
   9  -4  -3 1214.19 334.846  10
   9   4  -3 1044.78 305.163  14
   9  -4  -3 1277.69 372.990  13
   9   4  -3 1218.88 295.303  13
   9  -4  -2 5217.29 593.433  10
   9   4  -2 6109.77 566.662  14
   9  -4  -2 5301.02 603.941  13
   9   4  -2 5159.92 535.885  13
   9   4  -1 10901.7 713.733  14
   9  -4  -1 10469.4 789.477  13
   9   4  -1 11185.4 755.429  13
  -9   4   1 10992.0 694.159  12
   9  -4   0 34.7770 235.778  13
   9   4   0 665.256 273.499  13
  -9   4   0 450.564 222.047  12
   9  -4   1 5726.50 580.063  13
   9   4   1 5867.12 554.567  13
  -9   4  -1 5349.69 531.426  12
   9  -4   2 4407.43 485.069  13
   9   4   2 5456.28 545.251  13
  -9   4  -2 4948.26 493.325  12
   9  -4   3 12849.3 688.916  13
   9   4   3 13611.3 775.151  13
  -9   4  -3 13338.6 756.380  12
  -9   4  -4 22073.5 766.047  11
   9   4   4 21714.2 878.842  13
  -9   4  -4 21962.1 899.376  12
  -9  -4  -4 22028.6 914.398  12
  -9  -4  -5 18.2880 127.714  12
  -9   4  -5-46.5449 107.644  11
   9   4   5-83.8687 144.470  13
  -9   4  -5-6.27947 131.736  12
  -9   4  -6 9129.43 347.819  11
   9   4   6 9599.02 397.081  13
  -9   4  -6 11049.6 454.725  12
  -9  -4  -6 10490.3 410.056  12
   9  -5 -12 5945.93 336.425  10
   9   5 -12 5747.06 323.572  14
   9   5 -11 23.1201 164.164  14
   9  -5 -10 14295.5 815.757  10
   9   5 -10 15802.0 771.243  14
   9  -5  -9 843.611 335.490  10
   9   5  -9 522.589 177.720  10
   9  -5  -9 855.353 197.414   3
   9   5  -9 1056.24 316.732  14
   9  -5  -8 381.124 311.755  10
   9   5  -8 547.610 217.152  10
   9  -5  -8 413.459 230.646   3
   9   5  -8 477.607 288.421  14
   9  -5  -7 879.387 356.480  10
   9   5  -7 742.658 311.039  10
   9   5  -7 1074.45 348.047  14
   9  -5  -7 873.076 345.615  13
   9  -5  -6 13756.0 926.977  10
   9   5  -6 13655.4 905.413  10
   9   5  -6 12762.4 850.126  14
   9  -5  -6 13390.7 921.131  13
   9  -5  -5 24681.7 1199.98  10
   9   5  -5 24053.1 1116.33  14
   9  -5  -5 22882.6 1186.91  13
   9  -5  -4 8185.84 691.009  10
   9   5  -4 7693.71 660.607  14
   9  -5  -4 8595.55 769.848  13
   9  -5  -3 1402.04 345.653  10
   9   5  -3 2258.62 395.147  14
   9  -5  -3 1760.60 401.024  13
   9   5  -3 2352.81 323.485  13
   9   5  -2 39117.9 1368.73  14
   9  -5  -2 37899.7 1469.78  13
   9   5  -2 39044.0 1313.07  13
   9  -5  -1 234.779 278.552  13
   9   5  -1 386.575 259.450  13
  -9   5   1 419.507 230.840  12
   9   5   0 37915.3 1273.60  14
   9  -5   0 35664.1 1362.38  13
   9   5   0 37181.1 1301.98  13
  -9   5   0 36796.6 1268.25  12
   9  -5   1 4711.12 512.543  13
   9   5   1 4897.25 521.310  13
  -9   5  -1 5298.10 519.034  12
   9  -5   2 22678.9 966.350  13
   9   5   2 23173.1 1005.15  13
  -9   5  -2 22555.8 998.292  12
   9   5   3 1231.94 339.219  13
  -9   5  -3 684.693 256.100  12
   9   5   4 12867.8 666.010  13
  -9   5  -4 13998.0 709.235  12
  -9  -5  -4 13310.2 694.571  12
  -9  -5  -5 287.181 140.545  12
  -9   5  -5 84.5271 78.5979  11
   9   5   5 7.97508 138.819  13
  -9   5  -5-173.290 130.964  12
   9   5   6 344.946 100.090  13
  -9   5  -6 212.889 81.3681  12
   9  -6 -11 8238.26 497.827  10
   9   6 -11 8903.04 488.111  14
   9  -6 -10 14497.6 767.626  10
   9   6 -10 14576.4 712.350  14
   9  -6  -9-74.6638 261.065  10
   9  -6  -9-0.65158 118.405   3
   9   6  -9 345.305 262.590  14
   9  -6  -8 20556.2 1040.51  10
   9   6  -8 20087.7 982.591  14
   9  -6  -8 19533.8 984.156   3
   9  -6  -7 345.473 273.566  10
   9   6  -7 257.162 209.131  10
   9  -6  -7-395.855 196.708   3
   9   6  -7 87.5853 275.310  14
   9  -6  -6 2907.94 460.115  10
   9   6  -6 2378.99 414.880  10
   9   6  -6 2660.95 454.341  14
   9  -6  -6 2661.02 492.945  13
   9  -6  -5-82.4003 203.935  10
   9   6  -5 1.80828 278.981  14
   9  -6  -5 1.07015 262.998  13
   9  -6  -4 34632.2 1326.85  10
   9   6  -4 33679.6 1316.70  14
   9  -6  -4 32405.7 1414.86  13
   9   6  -3 35354.6 1332.67  14
   9  -6  -3 33762.1 1419.79  13
   9   6  -3 33404.1 1142.83  13
   9   6  -2 151.586 238.781  14
   9  -6  -2 29.2724 235.662  13
   9   6  -2 107.660 208.478  13
   9   6  -1 11963.6 774.353  14
   9  -6  -1 12864.4 875.426  13
   9   6  -1 12186.7 745.337  13
  -9   6   1 12385.0 720.464  12
   9   6   0 499.751 248.141  14
   9  -6   0 647.311 277.783  13
   9   6   0 213.509 192.232  13
  -9   6   0 235.441 217.594  12
   9   6   1 18144.2 883.306  14
   9  -6   1 19159.5 928.157  13
   9   6   1 18449.6 900.902  13
  -9   6  -1 18917.5 902.357  12
   9   6   2-165.530 161.953  14
   9  -6   2-365.625 200.349  13
   9   6   2-55.1985 205.897  13
  -9   6  -2 78.4496 202.102  12
  -9  -6  -3 17183.9 683.456   8
   9   6   3 17138.8 802.189  13
  -9   6  -3 17358.3 819.550  12
   9   6   4 11414.6 597.958  13
  -9   6  -4 12182.5 630.930  12
  -9  -6  -4 11265.1 614.137  12
  -9  -6  -5 154.346 132.980  12
   9   6   5 115.861 156.139  13
  -9   6  -5 174.276 125.777  12
   9  -7 -11 10323.0 474.002  10
   9   7 -11 10191.2 469.550  14
   9  -7 -10 362.046 233.848  10
   9   7 -10 1160.51 254.793  14
   9  -7  -9 36505.3 1211.52  10
   9   7  -9 37291.5 1177.26  14
   9  -7  -8 768.843 252.280  10
   9  -7  -8 711.528 248.686   3
   9   7  -8 1032.44 307.751  14
   9  -7  -7 20653.4 1083.62   3
   9  -7  -7 22456.9 1051.46  10
   9   7  -7 22787.9 1050.85  14
   9  -7  -6 269.187 244.000  10
   9   7  -6 315.832 228.866  10
   9   7  -6 292.052 289.471  14
   9  -7  -6 209.558 305.945  13
   9  -7  -5 10156.0 725.419  10
   9   7  -5 9344.22 739.749  10
   9   7  -5 10029.2 741.030  14
   9  -7  -5 9210.64 790.461  13
   9   7  -4 3893.92 517.211  14
   9  -7  -4 3994.51 548.177  13
   9   7  -3 14282.9 876.229  14
   9  -7  -3 14084.5 927.119  13
   9   7  -2 1662.98 374.676  14
   9  -7  -2 1706.43 400.527  13
   9   7  -2 1433.84 289.873  13
   9   7  -1 1654.46 338.529  14
   9  -7  -1 2354.77 429.041  13
   9   7  -1 2132.09 342.261  13
  -9   7   1 2064.22 326.277  12
   9   7   0-45.2173 221.129  14
   9  -7   0 441.712 314.034  13
   9   7   0 164.542 221.429  13
  -9   7   0 230.407 190.285  12
   9   7   1 637.475 237.686  14
   9  -7   1 903.720 278.999  13
   9   7   1 890.290 287.385  13
  -9   7  -1 775.365 251.459  12
   9   7   2-70.2068 161.280  14
   9   7   2 114.780 209.371  13
  -9   7  -2-195.956 214.159  12
  -9  -7  -3 36414.5 934.488   8
   9   7   3 37384.6 1005.22  14
   9   7   3 37574.2 1106.07  13
  -9   7  -3 36948.9 1117.10  12
  -9  -7  -4 2106.10 275.612  12
   9   7   4 2388.30 306.005  13
  -9   7  -4 2378.69 299.245  12
   9   7   5 12501.6 495.971  13
  -9   7  -5 12888.5 511.408  12
  -9  -7  -5 12044.9 471.894  12
   9   8 -11 6067.47 311.218  14
   9  -8 -10 4448.33 367.719  10
   9   8 -10 5374.09 391.827  14
   9  -8  -9 602.286 175.012   3
   9   8  -9 851.962 256.663  14
   9  -8  -8 4894.01 488.520  10
   9   8  -8 5231.85 500.374  14
   9  -8  -8 5210.02 498.762   3
   9  -8  -7 432.408 219.758  10
   9  -8  -7 1214.03 316.953   3
   9   8  -7 626.323 326.540  14
   9  -8  -6 15156.2 941.671   3
   9  -8  -6 14981.9 799.011  10
   9   8  -6 16643.6 914.248  14
   9  -8  -5 10178.6 817.187   3
   9   8  -5 8490.60 649.190  10
   9  -8  -5 9049.33 571.770   9
   9   8  -5 9489.00 716.710  14
   9  -8  -5 9077.05 766.454  13
   9   8  -4 1916.03 415.374  14
   9  -8  -4 1241.51 391.227  13
   9   8  -3 2364.47 435.547  14
   9  -8  -3 2083.39 430.630  13
   9   8  -2 560.846 276.800  14
   9  -8  -2 470.103 270.580  13
   9   8  -1 18755.7 961.177  14
   9  -8  -1 20608.3 1005.63  13
   9   8  -1 20510.4 854.837  13
  -9   8   1 21140.0 857.968  12
   9   8   0 251.696 234.564  14
   9  -8   0 237.134 233.409  13
   9   8   0 423.678 201.137  13
  -9   8   0 163.155 171.507  12
   9   8   1 44729.5 1310.61  14
   9   8   1 44838.6 1249.65  13
  -9   8  -1 45016.2 1273.55  12
   9   8   2 2334.24 315.403  14
   9   8   2 2765.38 351.273  13
  -9   8  -2 2256.18 315.263  12
  -9  -8  -3 10714.1 474.046   8
   9   8   3 10764.8 532.829  14
   9   8   3 10767.4 564.812  13
  -9   8  -3 11178.7 591.943  12
   9  -8   4 4356.90 308.482   9
   9   8   4 4772.53 347.764  13
  -9   8  -4 4602.36 352.490  12
  -9  -8  -4 4244.87 334.953  12
   9   8   5 98.4145 90.1685  13
  -9   8  -5 108.831 83.0535  12
   9  -9 -10 1892.66 209.749  10
   9   9 -10 1245.21 194.229  14
   9  -9  -9 510.735 149.077   3
   9  -9  -9-2.10239 180.494  10
   9   9  -9 521.070 202.510  14
   9  -9  -8 1267.98 263.217   3
   9   9  -8 1119.66 277.420  14
   9  -9  -7 989.959 286.341   3
   9   9  -7 890.103 290.922  14
   9  -9  -6 357.067 247.649   3
   9   9  -6 2.30711 244.006  14
   9  -9  -5 5409.61 613.842   3
   9   9  -5 4563.42 429.901  10
   9  -9  -5 5134.39 427.197   9
   9   9  -5 5565.29 560.056  14
   9  -9  -4 16262.0 982.049   3
   9  -9  -4 14787.0 770.810   9
   9   9  -4 16196.3 892.009  14
   9  -9  -4 15941.9 940.579  13
   9  -9  -3 2670.01 452.995   3
   9   9  -3 2617.99 440.885  14
   9  -9  -3 2574.93 431.924  13
   9   9  -2 40387.6 1358.43  14
   9  -9  -2 42019.1 1398.26  13
   9  -9  -1-79.6781 202.334   3
   9   9  -1 60.4364 227.922  14
   9  -9  -1 112.517 188.483  13
   9   9  -1-7.73157 112.900  13
   9  -9   0 22388.0 947.027   3
   9   9   0 24620.8 1004.60  14
   9  -9   0 23366.5 914.394  13
   9   9   0 24804.3 877.338  13
  -9   9   0 24486.0 893.596  12
   9   9   1 478.681 232.636  14
   9   9   1 536.379 190.389  13
  -9   9  -1 447.262 164.842  12
   9   9   2 20943.0 802.013  14
   9   9   2 19660.5 734.587  13
  -9   9  -2 21148.9 798.660  12
   9  -9   3 1833.58 243.765   9
   9   9   3 1707.70 242.550  14
   9   9   3 1778.70 245.040  13
  -9   9  -3 1806.25 247.006  12
   9  -9   4 235.710 78.9480   9
   9   9   4 432.527 133.712  13
  -9   9  -4 290.075 126.060  12
   9 -10  -9 1455.74 185.637   3
   9  10  -9 1825.10 238.379  14
   9  10  -8 15064.7 676.398  14
   9 -10  -8 14314.0 676.758   3
   9 -10  -7 675.964 242.534   3
   9  10  -7 1221.45 280.760  14
   9  10  -6 15129.4 786.440  14
   9 -10  -6 14517.1 835.915   3
   9 -10  -5 7268.28 461.600   9
   9  10  -5 7374.78 587.100  14
   9 -10  -5 6175.52 588.456   3
   9 -10  -4 27910.7 990.284   9
   9  10  -4 29819.0 1143.43  14
   9 -10  -4 28861.0 1231.32   3
   9 -10  -3 433.469 245.765   3
   9 -10  -3 640.156 224.889   9
   9  10  -3 615.852 300.281  14
   9 -10  -2 4185.99 468.640   3
   9 -10  -2 4475.32 450.154   9
   9  10  -2 4119.71 472.240  14
   9 -10  -1 2946.71 381.420   3
   9 -10  -1 3274.35 392.743   9
   9  10  -1 2987.60 411.795  14
   9  10   0 480.336 247.696  14
  -9  10   0 853.971 191.871  12
   9 -10   1 1931.61 301.074   9
   9  10   1 1608.98 293.002  14
   9  10   1 1851.79 240.373  13
  -9  10  -1 2004.28 271.808  12
   9 -10   2 4557.70 374.299   9
   9  10   2 4553.82 368.395  14
   9  10   2 4718.13 337.717  13
  -9  10  -2 4479.14 350.080  12
   9 -10   3 1531.58 191.483   9
   9  10   3 1115.91 170.274  14
   9  10   3 1612.77 194.112  13
  -9  10  -3 1608.26 210.173  12
  -9  10  -4 13295.8 424.495  12
   9  11  -9 10074.9 388.165  14
   9 -11  -8 804.397 179.793   3
   9  11  -8 621.390 171.214  14
   9  11  -7 4724.08 409.083  14
   9 -11  -7 5013.48 432.520   3
   9 -11  -6 440.358 226.821   3
   9  11  -6 567.168 235.051  14
   9  11  -5 15313.4 752.417  14
   9 -11  -5 15145.9 817.839   3
   9 -11  -4 3125.45 413.071   3
   9 -11  -4 3468.92 351.189   9
   9  11  -4 3452.33 413.785  14
   9 -11  -3 20960.5 846.586   9
   9  11  -3 22596.2 931.175  14
   9 -11  -3 21468.3 968.713   3
   9 -11  -2 6309.38 497.687   9
   9  11  -2 6270.93 533.001  14
   9 -11  -2 5918.95 502.163   3
   9 -11  -1 3057.28 358.018   9
   9  11  -1 3424.93 397.194  14
   9 -11  -1 3203.62 336.850   3
   9 -11   0 6559.00 483.746   9
   9  11   0 7069.88 500.275  14
  -9  11   0 6190.57 369.348  12
   9 -11   1 291.413 180.526   9
   9  11   1 243.949 178.346  14
  -9  11  -1-1.13183 101.990  12
   9 -11   2 6251.88 379.379   9
   9  11   2 5979.53 380.460  14
  -9  11  -2 6005.75 341.203  12
   9  11   3 2268.55 201.015  14
  -9  11  -3 3449.25 226.116  12
   9 -12  -8 194.287 81.5588   3
   9 -12  -7 195.645 125.308   3
   9  12  -7-63.6922 142.920  14
   9 -12  -6 178.967 160.704   3
   9  12  -6 178.377 153.286  14
   9  12  -5 4499.97 396.853  14
   9 -12  -5 4503.63 422.126   3
   9 -12  -4-253.118 168.979   3
   9 -12  -4-127.648 125.126   9
   9  12  -4 106.753 191.837  14
   9 -12  -3 22691.9 795.690   9
   9  12  -3 24706.2 887.665  14
   9 -12  -3 23206.0 881.947   3
   9 -12  -2 2093.38 278.609   3
   9 -12  -2 2442.44 302.056   9
   9  12  -2 2138.01 316.476  14
   9 -12  -1 15967.4 678.223   9
   9  12  -1 16527.9 703.765  14
   9 -12   0 3136.87 320.414   9
   9  12   0 3068.94 315.682  14
   9 -12   1 11891.8 508.369   9
   9  12   1 11845.2 514.497  14
  -9  12  -1 10617.5 372.910  12
   9 -12   2 525.840 104.136   9
   9  12   2 318.719 114.164  14
   9 -13  -7 4045.88 265.992   3
   9  13  -6 3739.02 274.018  14
   9 -13  -6 4154.47 315.082   3
   9  13  -5 8606.71 433.998  14
   9 -13  -5 8630.08 472.908   3
   9 -13  -4-18.0207 114.075   3
   9 -13  -4 115.779 97.3347   9
   9  13  -4 153.434 148.868  14
   9 -13  -3 6351.97 374.327   9
   9  13  -3 7451.25 438.941  14
   9 -13  -3 6525.49 401.563   3
   9 -13  -2 22981.0 713.109   9
   9  13  -2 23023.4 742.409  14
   9 -13  -1 94.7892 118.143   9
   9  13  -1 254.451 161.227  14
   9 -13   0 5753.39 337.867   9
   9  13   0 4938.58 325.670  14
   9 -13   1 645.671 110.947   9
   9  13   1 454.959 113.299  14
   9  14  -4 9548.70 373.820  14
   9  14  -3 2331.20 210.979  14
   9 -14  -2-8.84943 73.6678   9
   9  14  -2 109.505 95.6633  14
   9 -14  -1 1824.29 164.324   9
   9  14  -1 1561.70 157.698  14
  10   0 -10 56.9116 187.415  10
  10   0 -10-224.939 136.278  14
  10   0  -9-1.57359 217.794  10
  10   0  -8 23295.0 1099.24  10
  10   0  -7-32.8544 260.828  10
  10   0  -7-311.902 175.279  13
  10   0  -6 20632.4 1110.36  10
  10   0  -6 19171.2 945.935  13
  10   0  -5 52.5117 277.298  10
  10   0  -5-136.883 233.693  13
  10   0  -4 54722.6 1819.21  10
  10   0  -4 53542.8 1636.55  13
  10   0  -3-134.235 238.879  13
  10   0  -2 38617.8 1397.75  13
 -10   0   1-41.6843 175.907  12
  10   0  -1 217.643 267.173  13
 -10   0   0 1651.54 318.070  12
  10   0   0 1553.43 356.442  13
 -10   0  -1 250.464 217.266  12
  10   0   1 90.8793 248.107  13
  10   0   2 16230.2 805.734  13
 -10   0  -2 15492.5 789.819  12
 -10   0  -3 209.244 87.5035  11
  10   0   3 266.984 181.599  13
 -10   0  -3 272.878 193.171  12
 -10   0  -4 15541.7 548.096  11
  10   0   4 16144.1 609.763  13
 -10   0  -4 17204.2 682.315  12
 -10   0  -5 107.190 84.2927  12
  10  -1 -11-170.755 195.809  10
  10   1 -11 20.2752 163.661  10
  10  -1 -10 3836.46 410.568  10
  10   1 -10 3238.88 361.004  10
  10   1 -10 3723.05 329.409  14
  10  -1  -9 3359.25 443.641  10
  10   1  -9 3071.65 407.831  10
  10   1  -9 3366.46 339.015  14
  10  -1  -8 11579.1 798.315  10
  10   1  -8 10954.4 763.894  10
  10   1  -8 10033.4 597.913  14
  10  -1  -7 14782.4 937.382  10
  10   1  -7 15870.4 945.135  10
  10  -1  -7 13920.5 789.928  13
  10  -1  -6 951.871 312.435  10
  10   1  -6 905.601 358.324  10
  10  -1  -6 760.801 268.981  13
  10   1  -6 1096.03 259.633  13
  10  -1  -5 13765.5 934.212  10
  10   1  -5 13341.8 933.670  10
  10  -1  -5 13188.0 821.017  13
  10   1  -5 12839.5 783.210  13
  10  -1  -4 1016.43 333.159  10
  10   1  -4 991.001 342.372  10
  10  -1  -4 866.943 323.844  13
  10   1  -4 660.936 273.431  13
  10  -1  -3 9933.27 788.676  10
  10  -1  -3 9544.58 736.128  13
  10   1  -3 9062.55 704.843  13
  10  -1  -2 10673.7 769.910  13
  10   1  -2 10478.0 751.071  13
 -10  -1   2 9844.25 619.182  12
  10  -1  -1 4744.15 562.001  13
  10   1  -1 4752.29 536.703  13
 -10   1   1 5296.90 487.577  12
 -10  -1   1 5163.99 490.526  12
  10  -1   0 22351.3 1050.28  13
  10   1   0 23245.4 1056.93  13
 -10   1   0 22226.6 943.937  12
 -10  -1   0 22727.8 988.932  12
 -10  -1  -1 911.993 280.971  12
  10  -1   1 1062.50 328.013  13
  10   1   1 997.137 299.761  13
 -10   1  -1 775.669 271.245  12
  10  -1   2 6975.96 547.545  13
  10   1   2 7699.70 588.457  13
 -10   1  -2 7888.99 566.802  12
 -10  -1  -2 6763.07 537.297  12
  10  -1   3-152.680 179.648  13
  10   1   3 133.588 199.198  13
 -10   1  -3 51.4393 176.378  12
 -10  -1  -3-77.5831 191.337  12
 -10   1  -4 22132.0 610.467  11
 -10  -1  -4 22773.7 677.987  11
  10  -1   4 23766.9 712.305  13
  10   1   4 25056.0 767.979  13
 -10   1  -4 26496.1 831.834  12
 -10  -1  -4 25970.0 826.989  12
 -10   1  -5 5587.09 316.956  12
 -10  -1  -5 5497.09 310.657  12
  10  -2 -11 7026.19 437.254  10
  10   2 -11 6308.30 352.859  14
  10  -2 -10-40.3953 193.901  10
  10   2 -10 16.4798 152.870  10
  10   2 -10-81.9455 141.564  14
  10  -2  -9 7457.07 612.803  10
  10   2  -9 6789.30 553.068  10
  10   2  -9 6448.35 475.895  14
  10  -2  -8-41.2633 276.260  10
  10   2  -8 174.528 224.595  10
  10   2  -8 7.17845 139.022  14
  10  -2  -7 11524.6 828.371  10
  10   2  -7 10852.5 786.822  10
  10   2  -7 11544.3 688.840  14
  10  -2  -7 9822.02 677.490  13
  10  -2  -6 797.233 351.801  10
  10   2  -6 1609.16 395.886  10
  10   2  -6 1292.38 279.313  14
  10  -2  -6 1037.26 290.265  13
  10  -2  -5 142.432 255.569  10
  10   2  -5 291.419 303.365  10
  10  -2  -5 189.845 254.119  13
  10   2  -5 298.009 205.023  13
  10  -2  -4 1078.21 330.992  10
  10  -2  -4 655.228 334.470  13
  10   2  -4 445.566 266.217  13
  10  -2  -3 3298.69 485.754  10
  10  -2  -3 2754.04 443.050  13
  10   2  -3 2770.23 410.254  13
  10  -2  -2 9158.75 728.559  10
  10  -2  -2 8878.64 733.528  13
  10   2  -2 8650.65 678.147  13
 -10  -2   2 8490.91 584.570  12
  10  -2  -1 22750.9 1056.72  10
  10  -2  -1 21865.5 1064.88  13
  10   2  -1 22825.5 1050.43  13
 -10   2   1 21881.5 920.553  12
 -10  -2   1 19657.9 898.726  12
 -10  -2   0 1812.32 321.385  12
  10  -2   0 2153.87 413.970  13
  10   2   0 1812.19 381.930  13
 -10   2   0 1849.76 317.519  12
  10  -2   1 50921.6 1472.46  13
  10   2   1 51554.6 1479.19  13
 -10   2  -1 50732.4 1397.98  12
 -10  -2  -1 50119.3 1421.68  12
 -10  -2  -2 159.471 207.379  12
  10  -2   2 107.453 190.269  13
  10   2   2-73.2110 228.001  13
 -10   2  -2 137.080 178.495  12
  10  -2   3 15990.7 690.950  13
  10   2   3 17704.8 755.626  13
 -10   2  -3 17541.1 752.684  12
 -10  -2  -3 18219.3 782.429  12
 -10  -2  -4 5872.62 355.111  11
  10  -2   4 5045.91 309.472  13
  10   2   4 6392.09 410.345  13
 -10   2  -4 7280.92 443.964  12
 -10  -2  -4 7105.10 446.932  12
 -10   2  -5 9037.04 387.069  12
 -10  -2  -5 9311.80 385.599  12
  10  -3 -11 1054.11 217.052  10
  10   3 -11 1449.93 184.477  14
  10  -3 -10-86.3181 200.209  10
  10   3 -10 136.186 126.520  10
  10   3 -10 256.716 151.326  14
  10  -3  -9 6064.30 541.700  10
  10   3  -9 5703.67 480.009  10
  10   3  -9 6249.10 465.591  14
  10  -3  -8 1786.90 381.230  10
  10   3  -8 1996.48 349.507  10
  10  -3  -8 1330.84 276.431   3
  10   3  -8 1680.27 318.172  14
  10  -3  -7 27860.4 1215.66  10
  10   3  -7 26542.9 1171.18  10
  10   3  -7 25573.9 1014.95  14
  10  -3  -7 25718.8 1090.13  13
  10  -3  -6 4878.98 584.970  10
  10   3  -6 5446.05 578.941  10
  10   3  -6 4838.14 477.679  14
  10  -3  -6 4204.45 513.915  13
  10  -3  -5 14811.1 926.700  10
  10   3  -5 16537.1 996.772  10
  10   3  -5 16722.5 826.627  14
  10  -3  -5 14493.9 894.911  13
  10   3  -5 15525.3 790.574  13
  10  -3  -4 5181.80 590.594  10
  10  -3  -4 5444.34 601.037  13
  10   3  -4 5235.87 500.608  13
  10  -3  -3 27371.9 1203.02  10
  10  -3  -3 26844.1 1214.48  13
  10   3  -3 26491.9 1097.67  13
  10  -3  -2 8622.10 658.126  10
  10  -3  -2 8053.06 696.161  13
  10   3  -2 8095.48 643.399  13
  10  -3  -1 22738.1 1083.94  13
  10   3  -1 23008.3 1029.50  13
 -10   3   1 23222.2 925.861  12
  10  -3   0 1235.24 345.904  13
  10   3   0 1258.22 321.124  13
 -10   3   0 1025.96 251.952  12
 -10  -3  -1 1098.97 283.532  12
  10  -3   1 587.149 248.308  13
  10   3   1 855.964 319.087  13
 -10   3  -1 426.952 213.465  12
 -10  -3  -2 134.962 196.563  12
  10  -3   2 308.763 191.204  13
  10   3   2 7.85474 249.191  13
 -10   3  -2-125.339 179.341  12
 -10  -3  -3 361.959 188.952  12
  10  -3   3 212.132 158.282  13
  10   3   3 228.878 190.481  13
 -10   3  -3 551.713 189.035  12
  10   3   4 5215.68 372.907  13
 -10   3  -4 5648.59 389.510  12
 -10  -3  -4 6129.57 399.959  12
 -10   3  -5 11926.7 425.715  12
 -10  -3  -5 10834.9 391.592  12
  10  -4 -11 229.446 155.946  10
  10   4 -11 867.383 154.927  14
  10  -4 -10 3990.84 406.862  10
  10   4 -10 3961.38 345.685  14
  10  -4  -9 2957.46 404.537  10
  10   4  -9 2888.30 329.164  10
  10   4  -9 2921.72 341.177  14
  10  -4  -8 9816.01 632.774   3
  10  -4  -8 11936.8 755.240  10
  10   4  -8 11057.5 688.184  10
  10   4  -8 11416.6 661.361  14
  10  -4  -7 4574.47 547.436  10
  10   4  -7 3682.69 468.277  10
  10   4  -7 4459.77 471.412  14
  10  -4  -7 4249.48 482.317  13
  10  -4  -6 15847.8 924.117  10
  10   4  -6 16253.0 951.547  10
  10   4  -6 16279.4 832.671  14
  10  -4  -6 17465.9 959.893  13
  10  -4  -5 1131.90 331.095  10
  10   4  -5 1194.09 355.024  10
  10   4  -5 962.723 265.012  14
  10  -4  -5 905.376 332.266  13
  10  -4  -4 43795.4 1494.27  10
  10   4  -4 45717.1 1352.68  14
  10  -4  -4 44343.7 1549.56  13
  10   4  -4 42873.5 1309.75  13
  10  -4  -3 275.320 237.211  10
  10   4  -3 105.690 173.554  14
  10  -4  -3 31.3171 321.952  13
  10   4  -3 180.770 221.239  13
  10  -4  -2 7977.73 688.353  13
  10   4  -2 8562.11 629.774  13
  10  -4  -1 13939.4 863.789  13
  10   4  -1 14908.1 808.652  13
 -10   4   1 14806.0 719.309  12
  10  -4   0 6591.00 593.614  13
  10   4   0 7327.62 593.439  13
 -10   4   0 7940.91 552.996  12
  10  -4   1 8303.58 598.180  13
  10   4   1 8950.12 625.752  13
 -10   4  -1 8891.13 576.614  12
 -10  -4  -2 674.394 226.609  12
  10  -4   2 625.310 210.772  13
  10   4   2 455.341 256.564  13
 -10   4  -2 842.564 242.937  12
 -10  -4  -3 2085.68 289.405  12
  10  -4   3 1242.10 205.861  13
  10   4   3 1503.46 279.277  13
 -10   4  -3 1701.09 253.742  12
  10   4   4 1037.49 182.400  13
 -10   4  -4 1120.36 186.408  12
 -10  -4  -4 1357.56 202.886  12
  10  -5 -11 1369.15 195.651  10
  10   5 -11 1538.49 175.629  14
  10  -5 -10 16250.5 687.549  10
  10   5 -10 15511.1 619.639  14
  10  -5  -9 389.678 208.571  10
  10   5  -9-155.872 183.362  14
  10  -5  -8 13085.6 713.434   3
  10  -5  -8 16868.7 842.704  10
  10   5  -8 14007.7 728.700  10
  10   5  -8 15872.7 759.512  14
  10  -5  -7-127.961 242.704  10
  10   5  -7-528.101 254.970  10
  10  -5  -7-201.605 178.929   3
  10   5  -7-274.640 218.618  14
  10  -5  -6 64.0207 205.855  10
  10   5  -6 210.580 236.744  10
  10   5  -6-38.7397 243.811  14
  10  -5  -6-11.4153 243.113  13
  10  -5  -5 129.082 231.188  10
  10   5  -5 88.2249 262.817  10
  10   5  -5 213.630 226.664  14
  10  -5  -5 253.303 242.347  13
  10  -5  -4 97.7355 185.894  10
  10   5  -4 238.486 199.846  14
  10  -5  -4 325.701 305.877  13
  10   5  -3 1862.34 315.310  14
  10  -5  -3 2163.89 459.200  13
  10   5  -3 1841.80 311.234  13
  10   5  -2 9501.56 610.990  14
  10  -5  -2 9517.47 733.203  13
  10   5  -2 8930.39 617.968  13
  10  -5  -1 2795.06 447.999  13
  10   5  -1 2997.02 388.821  13
 -10   5   1 3006.67 337.735  12
  10  -5   0 37037.3 1248.57  13
  10   5   0 38060.2 1213.01  13
 -10   5   0 39726.3 1155.63  12
  10  -5   1 1773.84 309.060  13
  10   5   1 2172.02 346.069  13
 -10   5  -1 2138.16 307.205  12
  10  -5   2 17728.8 702.990  13
  10   5   2 18773.1 788.546  13
 -10   5  -2 18289.7 750.361  12
 -10  -5  -2 17636.3 785.719  12
 -10  -5  -3 22.7414 161.181  12
  10   5   3 47.6588 166.277  13
 -10   5  -3 26.7322 141.803  12
  10   5   4 17801.9 590.298  13
 -10   5  -4 17942.2 589.402  12
 -10  -5  -4 18710.8 612.261  12
  10  -6 -10 1026.15 215.027  10
  10   6 -10 1597.85 232.792  14
  10  -6  -9 4342.80 415.655  10
  10   6  -9 4408.64 387.884  14
  10  -6  -8 259.212 184.712  10
  10   6  -8 167.430 115.603  10
  10  -6  -8 305.599 157.029   3
  10   6  -8 235.585 235.413  14
  10  -6  -7 6202.37 559.738   3
  10  -6  -7 6680.89 549.645  10
  10   6  -7 5936.32 495.606  10
  10   6  -7 6191.72 514.093  14
  10  -6  -6 26411.4 1058.65  10
  10   6  -6 26229.6 1077.53  10
  10   6  -6 27822.5 1056.91  14
  10  -6  -6 27066.8 1142.17  13
  10  -6  -5 4120.54 447.949  10
  10   6  -5 3513.69 467.041  10
  10   6  -5 4122.98 457.257  14
  10  -6  -5 3842.57 509.461  13
  10   6  -4 14761.9 787.560  14
  10  -6  -4 13196.9 858.219  13
  10   6  -3 5954.74 524.370  14
  10  -6  -3 6059.34 609.062  13
  10   6  -3 4950.76 423.632  13
  10   6  -2 8906.98 599.667  14
  10  -6  -2 11009.0 769.909  13
  10   6  -2 10808.5 629.056  13
  10   6  -1 1590.88 285.757  14
  10  -6  -1 1539.55 337.739  13
  10   6  -1 1830.33 305.057  13
  10   6   0 6591.88 463.742  14
  10  -6   0 6956.81 547.970  13
  10   6   0 7064.00 524.898  13
 -10   6   0 7081.22 489.144  12
  10  -6   1 18159.6 759.553  13
  10   6   1 19919.2 813.096  13
 -10   6  -1 19224.8 764.283  12
  10   6   2 4121.11 380.635  13
 -10   6  -2 4066.75 357.840  12
  10   6   3 6792.57 417.654  13
 -10   6  -3 6129.31 388.641  12
 -10  -6  -3 6793.29 428.522  12
  10   6   4 638.681 141.265  13
 -10   6  -4 742.307 131.714  12
 -10  -6  -4 733.343 143.150  12
  10  -7 -10-136.277 140.636  10
  10   7 -10 299.129 130.751  14
  10  -7  -9 6573.32 428.784  10
  10   7  -9 6910.89 438.773  14
  10  -7  -8 161.025 245.902  10
  10  -7  -8 507.976 191.505   3
  10   7  -8 557.983 216.710  14
  10  -7  -7 48420.9 1266.52  10
  10   7  -7 47886.9 1295.28  14
  10  -7  -7 47428.8 1403.30   3
  10  -7  -6 816.186 248.588  10
  10   7  -6 66.1428 166.136  10
  10  -7  -6 414.436 233.081   3
  10   7  -6 424.766 236.843  14
  10   7  -5 25515.7 1051.17  10
  10   7  -5 26294.5 1031.42  14
  10  -7  -5 25866.1 1134.00  13
  10   7  -4 253.841 234.298  14
  10  -7  -4 191.282 273.957  13
  10   7  -3 13187.0 728.426  14
  10  -7  -3 11796.9 777.755  13
  10   7  -2 390.580 227.374  14
  10  -7  -2 71.7721 209.914  13
  10   7  -2 349.121 161.039  13
  10   7  -1 6685.18 507.228  14
  10  -7  -1 6935.31 555.826  13
  10   7  -1 7604.10 502.195  13
  10   7   0-166.616 144.863  14
  10  -7   0 185.101 177.276  13
  10   7   0 126.654 162.809  13
 -10   7   0-13.4550 103.537  12
  10   7   1-116.753 105.869  14
  10   7   1 186.674 177.459  13
 -10   7  -1 257.201 147.272  12
  10   7   2 477.199 176.311  13
 -10   7  -2 451.544 151.738  12
 -10  -7  -3-18.3450 112.924  12
  10   7   3 46.1854 114.057  13
 -10   7  -3-40.7309 93.9553  12
  10  -8  -9 6573.80 333.427  10
  10   8  -9 8208.93 440.909  14
  10   8  -8 6006.42 431.109  14
  10  -8  -8 5273.49 402.929   3
  10  -8  -7 3281.29 325.453  10
  10   8  -7 3563.65 381.829  14
  10  -8  -7 4055.82 417.496   3
  10  -8  -6 11174.6 710.629   3
  10   8  -6 9511.21 550.373  10
  10   8  -6 11743.3 669.986  14
  10   8  -5 1910.32 303.508  10
  10  -8  -5 1801.57 350.532   3
  10   8  -5 2039.53 345.167  14
  10  -8  -4 4671.39 526.801   3
  10   8  -4 4982.81 469.599  10
  10  -8  -4 4569.92 389.442   9
  10   8  -4 5213.16 479.969  14
  10  -8  -4 4447.40 494.388  13
  10   8  -3 1770.53 330.031  14
  10  -8  -3 1665.82 345.428  13
  10   8  -2 330.552 209.275  14
  10  -8  -2 227.078 178.362  13
  10   8  -1 15900.8 719.231  14
  10  -8  -1 15409.2 740.132  13
  10   8  -1 15310.3 633.590  13
  10  -8   0 2328.53 272.779   3
  10   8   0 2781.48 312.743  14
  10   8   0 3116.56 303.300  13
  10  -8   0 2471.85 289.092  13
 -10   8   0 2902.36 269.305  12
  10   8   1 13263.1 539.995  14
  10   8   1 14472.7 591.734  13
 -10   8  -1 14662.1 572.909  12
  10   8   2 1293.24 213.265  13
 -10   8  -2 1338.29 190.549  12
  10  -8   3 4216.32 253.202   9
  10   8   3 4669.65 275.567  13
 -10   8  -3 4636.34 270.267  12
 -10  -8  -3 5129.92 306.952  12
  10   9  -9 939.422 156.589  14
  10   9  -8 10749.7 504.074  14
  10  -9  -8 9684.81 479.708   3
  10   9  -7 7887.90 487.802  14
  10  -9  -7 7357.86 500.124   3
  10  -9  -6 146.402 172.259   3
  10   9  -6 269.649 191.078  14
  10  -9  -5 1616.67 308.608   3
  10   9  -5 1411.73 278.211  14
  10   9  -4 900.383 212.615  10
  10  -9  -4 856.075 258.258   3
  10  -9  -4 854.810 202.594   9
  10   9  -4 1047.19 286.067  14
  10  -9  -3 2585.31 386.734   3
  10  -9  -3 2861.87 330.276   9
  10   9  -3 2948.87 370.553  14
  10  -9  -2 4601.28 439.876   3
  10  -9  -2 5040.61 423.052   9
  10   9  -2 4696.47 416.393  14
  10  -9  -1 2259.42 283.773   3
  10   9  -1 2359.15 312.219  14
  10   9   0 23229.0 760.920  14
 -10   9   0 23515.5 638.111  12
  10  -9   1 384.238 147.666   9
  10   9   1 416.657 136.958  14
  10   9   1 279.782 111.189  13
 -10   9  -1 562.566 135.062  12
  10  -9   2 13175.7 488.748   9
  10   9   2 12582.2 430.214  13
 -10   9  -2 12968.8 427.779  12
  10  10  -8 4801.27 302.901  14
  10 -10  -8 2973.07 234.974   3
  10 -10  -7 1752.67 236.048   3
  10  10  -7 1698.61 241.498  14
  10  10  -6 28369.5 862.650  14
  10 -10  -6 28407.5 940.253   3
  10 -10  -5-180.063 152.146   3
  10  10  -5-112.589 193.459  14
  10 -10  -4 7833.22 421.888   9
  10  10  -4 8551.14 524.355  14
  10 -10  -4 8289.27 555.987   3
  10 -10  -3 896.315 216.509   3
  10  10  -3 862.447 172.204  10
  10 -10  -3 941.741 191.175   9
  10  10  -3 1342.88 253.686  14
  10 -10  -2 17995.6 696.731   9
  10  10  -2 18302.1 715.613  14
  10 -10  -2 17060.1 709.699   3
  10 -10  -1 546.417 146.407   3
  10 -10  -1 529.020 190.329   9
  10  10  -1 525.721 189.839  14
  10 -10   0 6932.81 418.913   9
  10  10   0 6312.87 379.906  14
  10 -10   1 328.403 133.949   9
  10  10   1 145.347 101.638  14
 -10 -10  -2 698.890 113.627  12
  10  11  -7 4415.17 278.196  14
  10 -11  -7 3381.78 261.852   3
  10 -11  -6 196.040 130.080   3
  10  11  -6-89.0100 131.759  14
  10  11  -5 10580.5 501.791  14
  10 -11  -5 10210.5 534.239   3
  10 -11  -4-97.6655 131.418   3
  10  11  -4-0.43301 145.627  14
  10 -11  -3 17192.3 587.170   9
  10  11  -3 17945.9 657.954  14
  10 -11  -3 17364.5 659.969   3
  10 -11  -2 8856.06 443.064   9
  10  11  -2 8069.49 437.107  14
  10 -11  -1 1252.02 190.548   9
  10  11  -1 1111.64 194.796  14
  10 -11   0 7564.28 371.189   9
  10  11   0 6339.64 327.249  14
  10 -12  -5 656.303 136.854   3
  10  12  -5 568.979 136.480  14
  10  12  -4 5779.61 333.435  14
  10 -12  -4 5157.41 308.972   3
  10 -12  -3 7681.78 320.748   9
  10  12  -3 8638.58 400.414  14
  10 -12  -2 3858.14 243.594   9
  10  12  -2 3983.86 270.696  14
  10 -12  -1 2955.96 208.771   9
  10  12  -1 2580.67 197.450  14
  11   0 -10 291.564 126.961  10
  11   0  -9 23.5331 160.387  10
  11   0  -8 4894.96 452.801  10
  11   0  -7-0.74871 207.335  10
  11   0  -6 2347.97 399.969  10
  11   0  -6 2451.38 331.181  13
  11   0  -5 207.857 289.149  10
  11   0  -5 301.469 214.678  13
  11   0  -4 47188.3 1504.01  10
  11   0  -4 47499.2 1390.72  13
  11   0  -3-333.442 256.976  10
  11   0  -3 184.350 244.166  13
  11   0  -2 48275.6 1447.17  10
  11   0  -2 47890.6 1403.82  13
  11   0  -1-54.1477 168.381  10
  11   0  -1-24.4632 195.955  13
 -11   0   1-162.319 115.383  12
  11   0   0 18629.0 784.626  10
  11   0   0 19754.5 863.133  13
 -11   0   0 19129.7 739.995  12
  11   0   1-175.070 173.436  13
 -11   0  -1-259.335 164.693  12
  11   0   2 2064.46 265.171  13
 -11   0  -2 2218.68 250.980  12
  11   0   3-75.4140 81.1051  13
 -11   0  -3 233.428 99.2337  12
  11  -1 -10 9628.24 458.537  10
  11   1 -10 8631.84 414.679  10
  11  -1  -9 235.182 173.954  10
  11   1  -9-44.5300 133.436  10
  11  -1  -8 27500.5 996.515  10
  11   1  -8 27397.2 983.952  10
  11  -1  -7 1787.70 334.692  10
  11   1  -7 1586.05 330.722  10
  11  -1  -7 1696.24 255.783  13
  11  -1  -6 869.765 295.155  10
  11   1  -6 437.644 271.089  10
  11  -1  -6 612.841 216.165  13
  11   1  -6 845.561 187.864  13
  11  -1  -5 22094.5 1028.26  10
  11   1  -5 22769.8 1049.59  10
  11  -1  -5 21764.1 941.116  13
  11   1  -5 21080.4 884.189  13
  11  -1  -4 2812.40 404.788  10
  11   1  -4 3042.71 447.270  10
  11  -1  -4 3462.40 437.120  13
  11   1  -4 3133.51 398.303  13
  11  -1  -3 5036.04 511.399  10
  11   1  -3 5033.92 538.719  10
  11  -1  -3 5147.35 518.710  13
  11   1  -3 4501.91 469.836  13
  11  -1  -2 356.623 225.850  10
  11   1  -2 501.135 272.083  10
  11  -1  -2 604.329 268.131  13
  11   1  -2 451.190 251.697  13
  11  -1  -1 4369.31 428.949  10
  11  -1  -1 4322.68 477.306  13
  11   1  -1 4848.50 478.932  13
 -11   1   1 4504.93 374.487  12
 -11  -1   1 4721.92 387.084  12
  11  -1   0 6871.34 460.683  10
  11  -1   0 6958.19 526.405  13
  11   1   0 7996.17 570.513  13
 -11   1   0 7490.88 462.300  12
 -11  -1   0 7226.28 461.542  12
  11  -1   1 3666.82 373.905  13
  11   1   1 3585.23 383.130  13
 -11   1  -1 3470.06 323.143  12
 -11  -1  -1 3732.97 340.696  12
  11  -1   2 6703.82 424.985  13
  11   1   2 6816.59 435.358  13
 -11   1  -2 7600.07 420.122  12
 -11  -1  -2 7222.87 418.883  12
  11   1   3 3171.68 245.905  13
 -11   1  -3 3231.76 248.394  12
 -11  -1  -3 3581.82 255.197  12
  11  -2 -10-583.652 182.722  10
  11   2 -10 106.504 84.2551  10
  11  -2  -9 18111.1 731.440  10
  11   2  -9 18106.0 697.310  10
  11  -2  -8 539.721 235.645  10
  11   2  -8 250.394 202.945  10
  11  -2  -7 4657.43 474.846  10
  11   2  -7 4386.23 456.177  10
  11  -2  -6 1351.65 323.858  10
  11   2  -6 1479.76 359.106  10
  11  -2  -6 1735.17 322.054  13
  11  -2  -5 17907.6 899.237  10
  11   2  -5 17717.7 925.528  10
  11  -2  -5 18412.2 881.105  13
  11   2  -5 16331.7 746.088  13
  11  -2  -4 777.823 262.956  10
  11   2  -4 532.110 314.203  10
  11  -2  -4 1116.27 312.395  13
  11   2  -4 1115.83 276.057  13
  11  -2  -3 1832.54 345.391  10
  11   2  -3 1793.32 367.704  10
  11  -2  -3 1387.76 338.532  13
  11   2  -3 1407.74 293.771  13
  11  -2  -2-58.0189 191.537  10
  11  -2  -2 238.752 226.343  13
  11   2  -2 27.4106 176.279  13
 -11  -2   1 995.776 208.451  12
  11  -2  -1 1112.50 219.407  10
  11  -2  -1 566.857 271.820  13
  11   2  -1 1122.17 296.822  13
 -11   2   1 1068.60 193.459  12
  11  -2   0 2998.58 377.259  13
  11   2   0 3010.86 364.286  13
 -11   2   0 3325.52 301.760  12
 -11  -2   0 3201.43 332.600  12
  11  -2   1 10470.8 565.938  13
  11   2   1 11002.7 592.741  13
 -11   2  -1 11349.1 525.793  12
 -11  -2  -1 10729.2 543.250  12
  11  -2   2 1653.65 211.477  13
  11   2   2 1703.91 253.198  13
 -11   2  -2 1710.46 217.793  12
 -11  -2  -2 1642.28 213.924  12
  11   2   3 10038.2 409.102  13
 -11   2  -3 10330.4 407.944  12
 -11  -2  -3 10912.5 429.100  12
  11  -3 -10 200.554 143.935  10
  11  -3  -9 1248.67 234.983  10
  11   3  -9 1604.63 229.229  10
  11  -3  -8 3033.21 357.371  10
  11   3  -8 2787.60 331.595  10
  11   3  -8 2735.60 271.366  14
  11  -3  -7 21922.5 910.204  10
  11   3  -7 21549.2 908.137  10
  11  -3  -6 1136.18 294.156  10
  11   3  -6 1295.99 321.801  10
  11  -3  -6 1136.24 286.646  13
  11  -3  -5 8130.78 607.757  10
  11   3  -5 7711.64 634.615  10
  11  -3  -5 7540.08 583.085  13
  11   3  -5 7362.41 466.391  13
  11  -3  -4 1948.02 327.720  10
  11   3  -4 1880.80 371.613  10
  11  -3  -4 1573.83 361.296  13
  11   3  -4 1823.63 289.770  13
  11  -3  -3 19019.0 843.574  10
  11   3  -3 20848.2 998.376  10
  11  -3  -3 19949.2 946.121  13
  11   3  -3 18846.9 822.257  13
  11  -3  -2-17.2413 128.023  10
  11  -3  -2 211.081 229.819  13
  11   3  -2 360.081 193.924  13
  11  -3  -1 16081.4 797.398  13
  11   3  -1 15965.0 761.502  13
 -11  -3   1 16500.5 684.346  12
 -11  -3   0 2208.91 281.647  12
  11  -3   0 1905.30 315.878  13
  11   3   0 1757.28 285.432  13
 -11   3   0 2091.09 258.484  12
  11  -3   1 5722.24 423.673  13
  11   3   1 6150.26 443.581  13
 -11   3  -1 6266.09 384.853  12
 -11  -3  -1 6146.32 410.439  12
  11  -3   2 5616.45 335.871  13
  11   3   2 5540.25 377.171  13
 -11   3  -2 6373.10 362.828  12
 -11  -3  -2 6899.24 397.426  12
  11   3   3 10647.6 407.482  13
 -11   3  -3 10734.4 388.684  12
 -11  -3  -3 11668.0 424.651  12
  11  -4 -10-120.018 135.757  10
  11  -4  -9 2929.03 288.964  10
  11   4  -9 2373.34 208.517  14
  11  -4  -8 6691.07 460.339  10
  11   4  -8 5764.24 420.666  10
  11   4  -8 5563.15 356.423  14
  11  -4  -7 10478.5 605.531   3
  11  -4  -7 11810.0 641.473  10
  11   4  -7 11323.0 637.292  10
  11   4  -7 10557.6 508.234  14
  11  -4  -6 2396.22 342.161  10
  11   4  -6 2534.36 373.136  10
  11   4  -6 1655.26 238.349  14
  11  -4  -6 2613.57 369.344  13
  11  -4  -5-237.725 184.083  10
  11   4  -5 166.229 222.292  10
  11  -4  -5-126.152 209.418  13
  11  -4  -4 26375.9 955.614  10
  11   4  -4 27896.6 1111.17  10
  11  -4  -4 26675.6 1058.88  13
  11   4  -4 24023.4 839.559  13
  11  -4  -3 37.3403 97.8515  10
  11  -4  -3 75.9985 229.345  13
  11   4  -3-66.0522 112.044  13
  11  -4  -2 8032.85 598.499  13
  11   4  -2 7716.10 517.998  13
 -11  -4   2 8503.66 466.475  12
 -11  -4   1 158.426 118.167  12
  11  -4  -1 174.064 214.026  13
  11   4  -1 86.5133 149.559  13
  11  -4   0 18794.6 767.273  13
  11   4   0 19619.8 769.824  13
 -11   4   0 19889.0 656.964  12
 -11  -4   0 20316.2 740.750  12
  11  -4   1 5409.48 382.172  13
  11   4   1 6106.09 424.530  13
 -11   4  -1 5944.73 357.399  12
 -11  -4  -1 6257.62 399.697  12
  11   4   2 8510.66 428.752  13
 -11   4  -2 9232.61 406.626  12
 -11  -4  -2 9660.55 443.833  12
 -11  -4  -3 3741.88 229.310  12
  11  -5  -9 1630.12 233.927  10
  11   5  -9 1865.63 180.591  14
  11  -5  -8 12103.3 566.753  10
  11   5  -8 11199.8 507.945  10
  11   5  -8 10989.6 482.465  14
  11  -5  -7 257.537 168.220  10
  11   5  -7 14.2825 144.693  10
  11  -5  -7 244.324 147.143   3
  11   5  -7 230.995 144.507  14
  11  -5  -6 6517.52 469.611  10
  11   5  -6 6866.74 513.441  10
  11   5  -6 6539.11 430.619  14
  11  -5  -5 2273.35 297.958  10
  11   5  -5 2356.69 366.366  10
  11   5  -5 1825.26 252.215  14
  11  -5  -5 2153.08 341.515  13
  11   5  -4 133.295 198.076  10
  11  -5  -4 496.107 258.057  13
  11  -5  -3 5526.31 505.687  13
  11   5  -3 5301.62 401.877  13
 -11  -5   2-27.6359 56.3183  12
  11  -5  -2-22.8633 215.638  13
  11   5  -2 244.098 137.266  13
 -11  -5   1 339.550 140.784  12
  11  -5  -1 65.7291 172.553  13
  11   5  -1 5.60924 145.220  13
  11  -5   0 2231.16 285.340  13
  11   5   0 2224.40 276.565  13
 -11   5   0 2343.20 223.140  12
 -11  -5   0 2769.50 281.469  12
 -11  -5  -1 143.919 132.732  12
  11  -5   1 106.465 120.286  13
  11   5   1 28.4153 126.097  13
 -11   5  -1 53.0330 81.5635  12
  11   5   2 14050.4 502.708  13
 -11   5  -2 13921.1 444.997  12
 -11  -5  -2 14849.9 512.685  12
  11  -6  -8 2319.68 256.288  10
  11  -6  -8 2055.19 219.471   3
  11   6  -8 2093.28 221.451  14
  11  -6  -7 3059.42 287.203  10
  11   6  -7 3429.39 315.828  10
  11   6  -7 3724.41 306.736  14
  11  -6  -7 3622.15 339.874   3
  11  -6  -6 2100.81 244.262  10
  11   6  -6 2272.57 297.061  10
  11  -6  -6 2067.94 314.436   3
  11   6  -6 2187.85 274.417  14
  11   6  -5 1153.50 251.585  10
  11   6  -5 1045.07 198.199  14
  11  -6  -5 1262.22 303.108  13
  11   6  -4 11915.8 680.348  10
  11   6  -4 11529.4 546.751  14
  11  -6  -4 11380.5 664.891  13
  11   6  -3 8.89212 163.439  10
  11   6  -3 241.650 107.879  14
  11  -6  -3 16.5672 206.580  13
  11  -6  -2 7416.66 523.484  13
  11   6  -2 7855.60 441.965  13
 -11  -6   2 7451.00 405.984  12
 -11  -6   1 112.129 102.696  12
  11   6  -1 174.364 132.019  13
  11  -6   0 8143.52 439.263  13
  11   6   0 8679.27 448.089  13
 -11  -6   0 9574.60 470.627  12
  11   6   1 3401.86 274.945  13
 -11   6  -1 3262.40 219.543  12
 -11  -6  -1 3924.70 292.379  12
  11   6   2 1886.23 178.034  13
 -11  -6  -2 1677.81 171.266  12
  11  -7  -8 476.277 101.962   3
  11   7  -8 1282.14 177.094  14
  11   7  -7 7219.08 392.867  14
  11  -7  -7 6214.67 407.931   3
  11   7  -6 1795.83 233.077  10
  11  -7  -6 1971.07 292.735   3
  11   7  -6 1477.19 228.241  14
  11  -7  -5 23421.0 905.534   3
  11   7  -5 22237.1 811.602  10
  11   7  -5 22539.0 739.994  14
  11   7  -4 110.779 154.615  10
  11  -7  -4 137.620 180.554   3
  11   7  -4 389.059 146.552  14
  11  -7  -4 203.971 198.398  13
  11  -7  -3 13658.2 695.947   3
  11   7  -3 14244.1 689.670  10
  11  -7  -3 14327.8 578.858   9
  11   7  -3 12545.0 536.925  14
  11  -7  -3 13398.6 672.001  13
 -11  -7   2-92.7892 57.8029  12
  11  -7  -2 174.973 147.638   3
  11   7  -2 190.870 98.3432  14
  11  -7  -2 38.8954 144.579  13
  11  -7  -1 16231.5 627.228   3
  11  -7  -1 17110.1 646.279  13
 -11  -7   1 17329.4 584.306  12
 -11  -7   0 97.5506 104.430  12
  11  -7   0-75.0243 55.2834  13
  11   7   0 244.361 106.440  13
  11   7   1 9175.11 365.253  13
 -11  -7  -1 10207.9 403.487  12
  11  -8  -7 1837.86 215.089   3
  11   8  -7 2300.78 219.891  14
  11   8  -6 3214.40 274.558  14
  11  -8  -6 3070.73 307.546   3
  11   8  -5 4304.41 311.450  10
  11   8  -5 4799.76 333.900  14
  11  -8  -5 4842.62 404.278   3
  11  -8  -4 5356.60 436.804   3
  11   8  -4 5615.37 389.021  10
  11   8  -4 5123.04 348.383  14
  11   8  -3 139.892 132.694  10
  11  -8  -3 134.666 127.739   3
  11  -8  -3 73.4849 95.9527   9
  11   8  -3 329.601 123.669  14
  11  -8  -2 3736.84 319.218   3
  11   8  -2 4672.50 365.559  10
  11  -8  -2 4390.04 313.622   9
  11   8  -2 3689.62 264.704  14
  11  -8  -1 4691.51 323.571   9
 -11  -8   1 4348.82 268.895  12
 -11  -8   0 659.979 113.220  12
  11  -8   0 726.329 143.149   9
  11   9  -6 4545.69 277.356  14
  11  -9  -6 4407.32 318.485   3
  11  -9  -5 159.424 124.748   3
  11   9  -5 202.085 108.312  14
  11   9  -4 2185.65 221.784  14
  11  -9  -4 2160.43 260.337   3
  11  -9  -3 43.6973 108.640   3
  11   9  -3 245.876 93.1511  10
  11   9  -3 204.319 102.625  14
  11  -9  -2 463.853 108.380   3
  11   9  -2 623.095 136.985  10
  11  -9  -2 657.639 129.577   9
  11   9  -1 2791.68 229.827  10
  11  -9  -1 3361.11 238.309   9
  11 -10  -5 202.488 79.4702   3
  11 -10  -4 6488.77 330.274   3
  12   0  -8 111.543 108.347  10
  12   0  -7 82.5560 125.737  10
  12   0  -6 546.211 193.181  10
  12   0  -5-26.8675 161.171  10
  12   0  -5-265.953 145.460  13
  12   0  -4 9397.93 538.461  10
  12   0  -4 9914.89 520.560  13
  12   0  -3-130.924 178.118  10
  12   0  -3-142.053 145.332  13
  12   0  -2 25776.8 785.766  10
  12   0  -2 29214.3 875.034  13
  12   0  -1 35.2571 56.9735  10
  12   0  -1-137.922 136.549  13
  12   0   0 19841.8 626.589  13
  12  -1  -8 24896.9 693.644  10
  12   1  -8 24689.3 692.211  10
  12  -1  -7 857.567 201.151  10
  12   1  -7 676.128 180.439  10
  12  -1  -6 529.717 166.654  10
  12   1  -6 535.814 210.955  10
  12  -1  -6 608.471 153.871  13
  12  -1  -5 1094.80 221.452  10
  12   1  -5 1423.00 266.219  10
  12  -1  -5 1013.14 213.427  13
  12   1  -5 1209.76 189.645  13
  12  -1  -4 11758.3 585.322  10
  12   1  -4 10542.9 582.305  10
  12  -1  -4 11503.3 574.923  13
  12   1  -4 10382.7 522.196  13
  12  -1  -3 5971.30 407.248  10
  12   1  -3 6392.55 448.328  10
  12  -1  -3 7107.03 469.861  13
  12   1  -3 6243.33 422.209  13
  12   1  -2 2817.06 296.037  10
  12  -1  -2 2438.77 245.593  10
  12  -1  -2 3068.83 325.371  13
  12   1  -2 2901.18 298.212  13
  12   1  -1 10006.9 457.750  10
  12  -1  -1 10098.2 512.842  13
  12   1  -1 10751.9 509.353  13
  12  -1   0 1569.03 200.511  13
  12   1   0 1333.52 197.008  13
  12  -2  -8 198.285 110.867  10
  12   2  -8 371.494 119.616  10
  12  -2  -7 13691.8 555.912  10
  12   2  -7 13966.2 577.281  10
  12  -2  -6 2980.75 304.284  10
  12   2  -6 2934.52 322.237  10
  12  -2  -5 12409.4 575.269  10
  12   2  -5 12564.9 627.715  10
  12  -2  -5 12540.4 576.299  13
  12  -2  -4 204.488 127.457  10
  12   2  -4 53.7344 161.569  10
  12  -2  -4 444.492 189.886  13
  12   2  -4 152.854 116.855  13
  12  -2  -3 11411.7 492.499  10
  12   2  -3 12729.5 619.748  10
  12  -2  -3 12780.6 608.202  13
  12   2  -3 12105.0 542.227  13
  12   2  -2 2489.78 295.731  10
  12   2  -2 2315.70 266.656  13
  12  -2  -2 2335.30 292.357  13
  12   2  -1 238.349 122.824  10
  12  -2  -1-52.7925 133.556  13
  12   2  -1 151.082 114.197  13
  12  -2   0 296.007 115.636  13
  12   2   0 174.258 119.713  13
  12  -3  -7 4622.20 309.348  10
  12   3  -7 4212.03 321.838  10
  12  -3  -6 653.669 149.591  10
  12   3  -6 341.620 154.675  10
  12  -3  -5 3219.65 290.169  10
  12   3  -5 3001.85 325.336  10
  12  -3  -5 3438.34 325.473  13
  12  -3  -4 5009.75 327.037  10
  12   3  -4 5844.57 445.782  10
  12  -3  -4 5874.43 421.124  13
  12   3  -3 10931.3 571.513  10
  12  -3  -3 11094.5 559.291  13
  12   3  -3 10134.6 457.897  13
  12   3  -2 852.937 210.979  10
  12  -3  -2 721.121 188.689  13
  12   3  -2 605.806 158.402  13
  12   3  -1 13196.8 539.652  10
  12  -3  -1 12960.3 533.036  13
  12   3  -1 12987.0 509.668  13
  12  -3   0 101.138 93.4886  13
  12   3   0 402.217 111.590  13
  12   4  -7 3431.26 263.572  10
  12  -4  -6 1798.10 175.510  10
  12  -4  -6 1676.41 222.151   3
  12   4  -5 4453.40 357.779  10
  12  -4  -5 4606.31 350.510  13
  12   4  -4 9204.25 508.166  10
  12  -4  -4 9136.70 494.473  13
  12   4  -3 832.989 195.264  10
  12  -4  -3 743.942 199.056  13
  12   4  -2 5021.69 367.024  10
  12  -4  -2 5274.37 366.174  13
  12   4  -2 4253.91 278.762  13
  12   4  -1 341.893 139.567  10
  12  -4  -1 424.236 143.298  13
  12   4  -1 189.912 101.141  13
  12  -5  -6 14101.4 537.467   3
  12   5  -6 16712.3 554.576  10
  12   5  -5 29.0020 104.495  10
  12  -5  -5-103.546 106.267   3
  12  -5  -4 5066.85 366.874   3
  12   5  -4 5846.54 389.650  10
  12  -5  -4 5747.65 382.040  13
  12   5  -3 3552.24 309.064  10
  12  -5  -3 3104.65 292.798  13
  12   5  -2 1116.04 181.329  10
  12  -5  -2 1009.56 179.127  13
  12   5  -1 919.495 152.763  10
  12  -6  -6 1535.66 168.066   3
  12   6  -5 5424.16 306.809  10
  12  -6  -5 4837.53 326.760   3
  12   6  -4 135.769 97.1933  10
  12  -6  -4-26.0032 88.0609   3
  12   6  -3 976.594 158.949  10
  12  -6  -3 672.698 140.990   3
  12   6  -2 14489.7 503.242  10
  12  -7  -4 25.5018 75.0762   3
   0   0   0    0.00    0.00   0

TITL jmwtf69abs in P2(1)/c
REM P2(1)/c (#14 in standard setting)
CELL 1.54184  10.124867  15.924572  11.465975  90.0000 106.5717  90.0000
ZERR    4.00   0.000223   0.000339   0.000211   0.0000   0.0021   0.0000
LATT  1
SYMM -x, y+1/2,-z+1/2
SFAC C H N O Se
UNIT 80.00 92.00 12.00 4.00 4.00
TREF
HKLF 4
END
;
_shelx_hkl_checksum   66854

