 
data_shelx
 
_audit_creation_method            'SHELXL-2016/6'
_shelx_SHELXL_version_number      '2016/6'
_chemical_name_systematic         ?
_chemical_name_common             ?
_chemical_melting_point           ?
_chemical_formula_moiety          ?
_chemical_formula_sum
 'C21 H24 N2 O Se' 
_chemical_formula_weight          399.38
_chemical_oxdiff_usercomment 'benzylebselen + quinuclidine'

loop_
 _atom_type_symbol
 _atom_type_description
 _atom_type_scat_dispersion_real
 _atom_type_scat_dispersion_imag
 _atom_type_scat_source
 'C'  'C'   0.0181   0.0091
 'International Tables Vol C Tables 4.2.6.8 and 6.1.1.4'
 'H'  'H'   0.0000   0.0000
 'International Tables Vol C Tables 4.2.6.8 and 6.1.1.4'
 'N'  'N'   0.0311   0.0180
 'International Tables Vol C Tables 4.2.6.8 and 6.1.1.4'
 'O'  'O'   0.0492   0.0322
 'International Tables Vol C Tables 4.2.6.8 and 6.1.1.4'
 'Se'  'Se'  -0.7943   1.1372
 'International Tables Vol C Tables 4.2.6.8 and 6.1.1.4'
 
_space_group_crystal_system       monoclinic
_space_group_IT_number            14
_space_group_name_H-M_alt         'P 21/c'
_space_group_name_Hall            '-P 2ybc'
 
_shelx_space_group_comment
;
The symmetry employed for this shelxl refinement is uniquely defined
by the following loop, which should always be used as a source of
symmetry information in preference to the above space-group names.
They are only intended as comments.
;
 
loop_
 _space_group_symop_operation_xyz
 'x, y, z'
 '-x, y+1/2, -z+1/2'
 '-x, -y, -z'
 'x, -y-1/2, z-1/2'
 
_cell_length_a                    10.1610(2)
_cell_length_b                    16.0506(3)
_cell_length_c                    11.4300(2)
_cell_angle_alpha                 90
_cell_angle_beta                  104.622(2)
_cell_angle_gamma                 90
_cell_volume                      1803.75(6)
_cell_formula_units_Z             4
_cell_measurement_temperature   130.00(10) 
_cell_measurement_reflns_used   5880
_cell_measurement_theta_min     4.8470
_cell_measurement_theta_max     76.4770
 
_exptl_crystal_description        plate
_exptl_crystal_colour             colourless
_exptl_crystal_density_meas       ?
_exptl_crystal_density_method     ?
_exptl_crystal_density_diffrn     1.471          
_exptl_crystal_F_000              824
_exptl_transmission_factor_min    ?
_exptl_transmission_factor_max    ?
_exptl_crystal_size_max                             0.290
_exptl_crystal_size_mid                             0.104
_exptl_crystal_size_min                             0.035
_exptl_absorpt_coefficient_mu     2.895
_shelx_estimated_absorpt_T_min    ?
_shelx_estimated_absorpt_T_max    ?
_exptl_absorpt_correction_T_min                   0.62320
_exptl_absorpt_correction_T_max                   1.00000
_exptl_absorpt_correction_type            multi-scan
_exptl_absorpt_process_details
;
CrysAlisPro 1.171.38.43 (Rigaku Oxford Diffraction, 2015)
Empirical absorption correction using spherical harmonics,
 implemented in SCALE3 ABSPACK scaling algorithm.
;
_oxdiff_exptl_absorpt_empirical_full_min           0.646
_oxdiff_exptl_absorpt_empirical_full_max           1.329
_oxdiff_exptl_absorpt_empirical_details
;
Empirical correction (ABSPACK) includes:
- Absorption correction using spherical harmonics
- Frame scaling
;
_diffrn_ambient_temperature 130.00(10) 
_diffrn_ambient_environment N~2~
_diffrn_source 'micro-focus sealed X-ray tube'
_diffrn_source_type 'SuperNova (Cu) X-ray Source'
_diffrn_radiation_probe x-ray
_diffrn_radiation_type 'Cu K\a'
_diffrn_radiation_wavelength 1.54184
_diffrn_radiation_monochromator mirror
_diffrn_measurement_device 'four-circle diffractometer'
_diffrn_measurement_device_type 'SuperNova, Dual, Cu at zero, Atlas'
_diffrn_detector 'CCD plate'
_diffrn_detector_type Atlas
_diffrn_measurement_method '\w scans'
_diffrn_detector_area_resol_mean 10.2273
_diffrn_reflns_number             12588
_diffrn_reflns_av_unetI/netI      0.0344
_diffrn_reflns_av_R_equivalents   0.0379
_diffrn_reflns_limit_h_min        -11
_diffrn_reflns_limit_h_max        12
_diffrn_reflns_limit_k_min        -20
_diffrn_reflns_limit_k_max        15
_diffrn_reflns_limit_l_min        -13
_diffrn_reflns_limit_l_max        14
_diffrn_reflns_theta_min          4.497
_diffrn_reflns_theta_max          77.192
_diffrn_reflns_theta_full         67.684
_diffrn_measured_fraction_theta_max   0.988
_diffrn_measured_fraction_theta_full  0.999
_diffrn_reflns_Laue_measured_fraction_max    0.988
_diffrn_reflns_Laue_measured_fraction_full   0.999
_diffrn_reflns_point_group_measured_fraction_max   0.988
_diffrn_reflns_point_group_measured_fraction_full  0.999
_reflns_number_total              3771
_reflns_number_gt                 3397
_reflns_threshold_expression      'I > 2\s(I)'
_reflns_Friedel_coverage          0.000
_reflns_Friedel_fraction_max      .
_reflns_Friedel_fraction_full     .
 
_reflns_special_details
;
 Reflections were merged by SHELXL according to the crystal
 class for the calculation of statistics and refinement.
 
 _reflns_Friedel_fraction is defined as the number of unique
 Friedel pairs measured divided by the number that would be
 possible theoretically, ignoring centric projections and
 systematic absences.
;
 
_computing_data_collection     'CrysAlisPro 1.171.38.43 (Rigaku OD, 2015)'
_computing_cell_refinement     'CrysAlisPro 1.171.38.43 (Rigaku OD, 2015)'
_computing_data_reduction      'CrysAlisPro 1.171.38.43 (Rigaku OD, 2015)'
_computing_structure_solution     ?
_computing_structure_refinement 'SHELXL-2016/6 (Sheldrick, 2016)'
_computing_molecular_graphics     ?
_computing_publication_material   ?
_refine_special_details           ?
_refine_ls_structure_factor_coef  Fsqd
_refine_ls_matrix_type            full
_refine_ls_weighting_scheme       calc
_refine_ls_weighting_details
'w=1/[\s^2^(Fo^2^)+(0.0461P)^2^+1.1865P] where P=(Fo^2^+2Fc^2^)/3'
_atom_sites_solution_primary      ?
_atom_sites_solution_secondary    ?
_atom_sites_solution_hydrogens    geom
_refine_ls_hydrogen_treatment     constr
_refine_ls_extinction_method      none
_refine_ls_extinction_coef        .
_refine_ls_number_reflns          3771
_refine_ls_number_parameters      226
_refine_ls_number_restraints      0
_refine_ls_R_factor_all           0.0378
_refine_ls_R_factor_gt            0.0329
_refine_ls_wR_factor_ref          0.0849
_refine_ls_wR_factor_gt           0.0819
_refine_ls_goodness_of_fit_ref    1.028
_refine_ls_restrained_S_all       1.028
_refine_ls_shift/su_max           0.001
_refine_ls_shift/su_mean          0.000
 
loop_
 _atom_site_label
 _atom_site_type_symbol
 _atom_site_fract_x
 _atom_site_fract_y
 _atom_site_fract_z
 _atom_site_U_iso_or_equiv
 _atom_site_adp_type
 _atom_site_occupancy
 _atom_site_site_symmetry_order  
 _atom_site_calc_flag
 _atom_site_refinement_flags_posn
 _atom_site_refinement_flags_adp
 _atom_site_refinement_flags_occupancy
 _atom_site_disorder_assembly
 _atom_site_disorder_group
C1 C 0.3562(2) 0.57626(12) 0.64002(17) 0.0198(4) Uani 1 1 d . . . . .
C2 C 0.4126(2) 0.59563(13) 0.76151(18) 0.0198(4) Uani 1 1 d . . . . .
C3 C 0.3807(2) 0.54818(13) 0.85273(18) 0.0231(4) Uani 1 1 d . . . . .
H3 H 0.418006 0.562148 0.935216 0.028 Uiso 1 1 calc R U . . .
C4 C 0.2942(2) 0.48059(14) 0.82238(19) 0.0254(4) Uani 1 1 d . . . . .
H4 H 0.272496 0.447588 0.883940 0.030 Uiso 1 1 calc R U . . .
C5 C 0.2389(2) 0.46116(13) 0.7007(2) 0.0244(4) Uani 1 1 d . . . . .
H5 H 0.179613 0.414684 0.680447 0.029 Uiso 1 1 calc R U . . .
C6 C 0.2688(2) 0.50842(13) 0.60832(18) 0.0219(4) Uani 1 1 d . . . . .
H6 H 0.230510 0.494745 0.525869 0.026 Uiso 1 1 calc R U . . .
C7 C 0.5121(2) 0.66478(13) 0.78585(18) 0.0200(4) Uani 1 1 d . . . . .
C8 C 0.6275(2) 0.76064(13) 0.67571(18) 0.0219(4) Uani 1 1 d . . . . .
H8A H 0.631474 0.800452 0.742678 0.026 Uiso 1 1 calc R U . . .
H8B H 0.597657 0.791570 0.598603 0.026 Uiso 1 1 calc R U . . .
C9 C 0.7675(2) 0.72486(12) 0.68606(18) 0.0204(4) Uani 1 1 d . . . . .
C10 C 0.8035(2) 0.69430(14) 0.58384(19) 0.0253(4) Uani 1 1 d . . . . .
H10 H 0.739847 0.696789 0.507130 0.030 Uiso 1 1 calc R U . . .
C11 C 0.9312(2) 0.66044(15) 0.5935(2) 0.0293(5) Uani 1 1 d . . . . .
H11 H 0.954015 0.639556 0.523335 0.035 Uiso 1 1 calc R U . . .
C12 C 1.0261(2) 0.65672(14) 0.7045(2) 0.0282(5) Uani 1 1 d . . . . .
H12 H 1.113606 0.633584 0.710687 0.034 Uiso 1 1 calc R U . . .
C13 C 0.9913(2) 0.68726(14) 0.8064(2) 0.0284(4) Uani 1 1 d . . . . .
H13 H 1.055678 0.685375 0.882766 0.034 Uiso 1 1 calc R U . . .
C14 C 0.8632(2) 0.72047(14) 0.79714(18) 0.0250(4) Uani 1 1 d . . . . .
H14 H 0.840294 0.740546 0.867660 0.030 Uiso 1 1 calc R U . . .
C15 C 0.1175(2) 0.59073(16) 0.3084(2) 0.0284(5) Uani 1 1 d . . . . .
H15A H 0.084990 0.642362 0.339356 0.034 Uiso 1 1 calc R U . . .
H15B H 0.090762 0.542976 0.352148 0.034 Uiso 1 1 calc R U . . .
C16 C 0.0496(2) 0.58215(17) 0.1721(2) 0.0333(5) Uani 1 1 d . . . . .
H16A H -0.009393 0.532195 0.157425 0.040 Uiso 1 1 calc R U . . .
H16B H -0.007499 0.631630 0.143168 0.040 Uiso 1 1 calc R U . . .
C17 C 0.1604(2) 0.57437(14) 0.10355(18) 0.0261(4) Uani 1 1 d . . . . .
H17 H 0.118723 0.566788 0.015102 0.031 Uiso 1 1 calc R U . . .
C18 C 0.2464(3) 0.65387(14) 0.1260(2) 0.0316(5) Uani 1 1 d . . . . .
H18A H 0.189706 0.702663 0.092590 0.038 Uiso 1 1 calc R U . . .
H18B H 0.321729 0.649803 0.085727 0.038 Uiso 1 1 calc R U . . .
C19 C 0.3040(3) 0.66416(15) 0.2637(2) 0.0290(5) Uani 1 1 d . . . . .
H19A H 0.404278 0.668778 0.281994 0.035 Uiso 1 1 calc R U . . .
H19B H 0.268475 0.716414 0.290149 0.035 Uiso 1 1 calc R U . . .
C20 C 0.3164(3) 0.51554(15) 0.2900(2) 0.0306(5) Uani 1 1 d . . . . .
H20A H 0.294647 0.468273 0.337557 0.037 Uiso 1 1 calc R U . . .
H20B H 0.416484 0.518198 0.303843 0.037 Uiso 1 1 calc R U . . .
C21 C 0.2511(3) 0.50017(14) 0.1542(2) 0.0295(5) Uani 1 1 d . . . . .
H21A H 0.322917 0.493713 0.110264 0.035 Uiso 1 1 calc R U . . .
H21B H 0.196306 0.448427 0.143650 0.035 Uiso 1 1 calc R U . . .
N1 N 0.52839(17) 0.69540(11) 0.68001(15) 0.0205(3) Uani 1 1 d . . . . .
N2 N 0.26738(17) 0.59343(11) 0.33225(15) 0.0203(3) Uani 1 1 d . . . . .
O1 O 0.57282(16) 0.69035(10) 0.88697(13) 0.0262(3) Uani 1 1 d . . . . .
Se1 Se 0.41910(2) 0.64853(2) 0.53429(2) 0.01893(9) Uani 1 1 d . . . . .
 
loop_
 _atom_site_aniso_label
 _atom_site_aniso_U_11
 _atom_site_aniso_U_22
 _atom_site_aniso_U_33
 _atom_site_aniso_U_23
 _atom_site_aniso_U_13
 _atom_site_aniso_U_12
C1 0.0188(9) 0.0214(9) 0.0192(9) 0.0010(7) 0.0047(7) 0.0040(7)
C2 0.0168(9) 0.0225(9) 0.0197(9) -0.0015(7) 0.0036(7) 0.0021(7)
C3 0.0226(10) 0.0273(10) 0.0195(9) 0.0000(8) 0.0055(8) 0.0019(8)
C4 0.0256(11) 0.0264(10) 0.0255(10) 0.0043(8) 0.0088(8) 0.0008(8)
C5 0.0224(10) 0.0224(10) 0.0281(10) 0.0008(8) 0.0060(8) -0.0015(8)
C6 0.0206(9) 0.0232(9) 0.0209(9) -0.0022(7) 0.0034(7) -0.0001(8)
C7 0.0175(9) 0.0232(9) 0.0196(9) -0.0012(7) 0.0054(7) 0.0020(8)
C8 0.0211(10) 0.0212(9) 0.0223(9) -0.0011(7) 0.0033(7) -0.0026(8)
C9 0.0219(10) 0.0192(9) 0.0197(9) 0.0010(7) 0.0048(7) -0.0024(7)
C10 0.0235(10) 0.0330(11) 0.0192(9) -0.0005(8) 0.0051(8) -0.0017(8)
C11 0.0261(11) 0.0357(12) 0.0279(11) -0.0045(9) 0.0105(9) -0.0009(9)
C12 0.0214(10) 0.0268(11) 0.0363(12) 0.0021(9) 0.0073(9) 0.0017(8)
C13 0.0259(11) 0.0299(11) 0.0252(10) 0.0038(8) -0.0012(8) -0.0007(9)
C14 0.0273(11) 0.0267(10) 0.0200(9) -0.0020(8) 0.0042(8) -0.0014(8)
C15 0.0199(10) 0.0385(12) 0.0269(11) -0.0006(9) 0.0059(8) 0.0005(9)
C16 0.0238(11) 0.0433(13) 0.0292(11) 0.0000(10) -0.0003(9) 0.0022(9)
C17 0.0325(11) 0.0253(10) 0.0182(9) 0.0003(7) 0.0022(8) -0.0018(9)
C18 0.0463(14) 0.0267(11) 0.0200(10) 0.0022(8) 0.0048(10) -0.0080(9)
C19 0.0330(12) 0.0308(11) 0.0209(10) 0.0036(8) 0.0023(9) -0.0094(9)
C20 0.0389(13) 0.0301(11) 0.0226(10) 0.0024(8) 0.0074(9) 0.0139(10)
C21 0.0367(12) 0.0257(10) 0.0261(10) -0.0045(8) 0.0081(9) 0.0030(9)
N1 0.0200(8) 0.0242(8) 0.0168(7) -0.0017(6) 0.0034(6) -0.0023(7)
N2 0.0181(8) 0.0222(8) 0.0201(8) 0.0015(6) 0.0041(6) 0.0004(6)
O1 0.0290(8) 0.0309(8) 0.0172(7) -0.0041(6) 0.0030(6) -0.0035(6)
Se1 0.01894(13) 0.02152(13) 0.01564(12) -0.00058(7) 0.00310(8) -0.00079(7)
 
_geom_special_details
;
 All esds (except the esd in the dihedral angle between two l.s. planes)
 are estimated using the full covariance matrix.  The cell esds are taken
 into account individually in the estimation of esds in distances, angles
 and torsion angles; correlations between esds in cell parameters are only
 used when they are defined by crystal symmetry.  An approximate (isotropic)
 treatment of cell esds is used for estimating esds involving l.s. planes.
;
 
loop_
 _geom_bond_atom_site_label_1
 _geom_bond_atom_site_label_2
 _geom_bond_distance
 _geom_bond_site_symmetry_2
 _geom_bond_publ_flag
C1 C6 1.394(3) . ?
C1 C2 1.397(3) . ?
C1 Se1 1.898(2) . ?
C2 C3 1.394(3) . ?
C2 C7 1.479(3) . ?
C3 C4 1.384(3) . ?
C3 H3 0.9500 . ?
C4 C5 1.397(3) . ?
C4 H4 0.9500 . ?
C5 C6 1.394(3) . ?
C5 H5 0.9500 . ?
C6 H6 0.9500 . ?
C7 O1 1.235(3) . ?
C7 N1 1.354(3) . ?
C8 N1 1.462(3) . ?
C8 C9 1.512(3) . ?
C8 H8A 0.9900 . ?
C8 H8B 0.9900 . ?
C9 C14 1.392(3) . ?
C9 C10 1.398(3) . ?
C10 C11 1.385(3) . ?
C10 H10 0.9500 . ?
C11 C12 1.388(3) . ?
C11 H11 0.9500 . ?
C12 C13 1.389(3) . ?
C12 H12 0.9500 . ?
C13 C14 1.386(3) . ?
C13 H13 0.9500 . ?
C14 H14 0.9500 . ?
C15 N2 1.478(3) . ?
C15 C16 1.543(3) . ?
C15 H15A 0.9900 . ?
C15 H15B 0.9900 . ?
C16 C17 1.530(3) . ?
C16 H16A 0.9900 . ?
C16 H16B 0.9900 . ?
C17 C21 1.527(3) . ?
C17 C18 1.531(3) . ?
C17 H17 1.0000 . ?
C18 C19 1.543(3) . ?
C18 H18A 0.9900 . ?
C18 H18B 0.9900 . ?
C19 N2 1.479(3) . ?
C19 H19A 0.9900 . ?
C19 H19B 0.9900 . ?
C20 N2 1.471(3) . ?
C20 C21 1.547(3) . ?
C20 H20A 0.9900 . ?
C20 H20B 0.9900 . ?
C21 H21A 0.9900 . ?
C21 H21B 0.9900 . ?
N1 Se1 1.9077(17) . ?
 
loop_
 _geom_angle_atom_site_label_1
 _geom_angle_atom_site_label_2
 _geom_angle_atom_site_label_3
 _geom_angle
 _geom_angle_site_symmetry_1
 _geom_angle_site_symmetry_3
 _geom_angle_publ_flag
C6 C1 C2 120.44(19) . . ?
C6 C1 Se1 127.34(15) . . ?
C2 C1 Se1 112.17(15) . . ?
C3 C2 C1 120.48(19) . . ?
C3 C2 C7 123.11(18) . . ?
C1 C2 C7 116.31(18) . . ?
C4 C3 C2 119.59(19) . . ?
C4 C3 H3 120.2 . . ?
C2 C3 H3 120.2 . . ?
C3 C4 C5 119.65(19) . . ?
C3 C4 H4 120.2 . . ?
C5 C4 H4 120.2 . . ?
C6 C5 C4 121.5(2) . . ?
C6 C5 H5 119.2 . . ?
C4 C5 H5 119.2 . . ?
C1 C6 C5 118.32(19) . . ?
C1 C6 H6 120.8 . . ?
C5 C6 H6 120.8 . . ?
O1 C7 N1 124.8(2) . . ?
O1 C7 C2 125.58(19) . . ?
N1 C7 C2 109.64(17) . . ?
N1 C8 C9 111.59(17) . . ?
N1 C8 H8A 109.3 . . ?
C9 C8 H8A 109.3 . . ?
N1 C8 H8B 109.3 . . ?
C9 C8 H8B 109.3 . . ?
H8A C8 H8B 108.0 . . ?
C14 C9 C10 118.3(2) . . ?
C14 C9 C8 121.16(19) . . ?
C10 C9 C8 120.50(18) . . ?
C11 C10 C9 120.6(2) . . ?
C11 C10 H10 119.7 . . ?
C9 C10 H10 119.7 . . ?
C10 C11 C12 120.7(2) . . ?
C10 C11 H11 119.7 . . ?
C12 C11 H11 119.7 . . ?
C11 C12 C13 119.1(2) . . ?
C11 C12 H12 120.4 . . ?
C13 C12 H12 120.4 . . ?
C14 C13 C12 120.3(2) . . ?
C14 C13 H13 119.9 . . ?
C12 C13 H13 119.9 . . ?
C13 C14 C9 121.0(2) . . ?
C13 C14 H14 119.5 . . ?
C9 C14 H14 119.5 . . ?
N2 C15 C16 111.45(18) . . ?
N2 C15 H15A 109.3 . . ?
C16 C15 H15A 109.3 . . ?
N2 C15 H15B 109.3 . . ?
C16 C15 H15B 109.3 . . ?
H15A C15 H15B 108.0 . . ?
C17 C16 C15 108.98(18) . . ?
C17 C16 H16A 109.9 . . ?
C15 C16 H16A 109.9 . . ?
C17 C16 H16B 109.9 . . ?
C15 C16 H16B 109.9 . . ?
H16A C16 H16B 108.3 . . ?
C21 C17 C16 108.74(19) . . ?
C21 C17 C18 108.79(19) . . ?
C16 C17 C18 108.0(2) . . ?
C21 C17 H17 110.4 . . ?
C16 C17 H17 110.4 . . ?
C18 C17 H17 110.4 . . ?
C17 C18 C19 108.28(18) . . ?
C17 C18 H18A 110.0 . . ?
C19 C18 H18A 110.0 . . ?
C17 C18 H18B 110.0 . . ?
C19 C18 H18B 110.0 . . ?
H18A C18 H18B 108.4 . . ?
N2 C19 C18 112.13(18) . . ?
N2 C19 H19A 109.2 . . ?
C18 C19 H19A 109.2 . . ?
N2 C19 H19B 109.2 . . ?
C18 C19 H19B 109.2 . . ?
H19A C19 H19B 107.9 . . ?
N2 C20 C21 111.71(18) . . ?
N2 C20 H20A 109.3 . . ?
C21 C20 H20A 109.3 . . ?
N2 C20 H20B 109.3 . . ?
C21 C20 H20B 109.3 . . ?
H20A C20 H20B 107.9 . . ?
C17 C21 C20 108.71(17) . . ?
C17 C21 H21A 109.9 . . ?
C20 C21 H21A 109.9 . . ?
C17 C21 H21B 109.9 . . ?
C20 C21 H21B 109.9 . . ?
H21A C21 H21B 108.3 . . ?
C7 N1 C8 122.05(17) . . ?
C7 N1 Se1 117.47(14) . . ?
C8 N1 Se1 120.47(13) . . ?
C20 N2 C19 109.09(18) . . ?
C20 N2 C15 109.44(18) . . ?
C19 N2 C15 108.05(17) . . ?
C1 Se1 N1 84.28(8) . . ?
 
loop_
 _geom_torsion_atom_site_label_1
 _geom_torsion_atom_site_label_2
 _geom_torsion_atom_site_label_3
 _geom_torsion_atom_site_label_4
 _geom_torsion
 _geom_torsion_site_symmetry_1
 _geom_torsion_site_symmetry_2
 _geom_torsion_site_symmetry_3
 _geom_torsion_site_symmetry_4
 _geom_torsion_publ_flag
C6 C1 C2 C3 -1.0(3) . . . . ?
Se1 C1 C2 C3 -178.65(15) . . . . ?
C6 C1 C2 C7 175.56(18) . . . . ?
Se1 C1 C2 C7 -2.1(2) . . . . ?
C1 C2 C3 C4 1.1(3) . . . . ?
C7 C2 C3 C4 -175.21(19) . . . . ?
C2 C3 C4 C5 -0.6(3) . . . . ?
C3 C4 C5 C6 0.0(3) . . . . ?
C2 C1 C6 C5 0.4(3) . . . . ?
Se1 C1 C6 C5 177.65(15) . . . . ?
C4 C5 C6 C1 0.1(3) . . . . ?
C3 C2 C7 O1 -3.1(3) . . . . ?
C1 C2 C7 O1 -179.54(19) . . . . ?
C3 C2 C7 N1 175.98(19) . . . . ?
C1 C2 C7 N1 -0.5(3) . . . . ?
N1 C8 C9 C14 -95.1(2) . . . . ?
N1 C8 C9 C10 84.1(2) . . . . ?
C14 C9 C10 C11 0.1(3) . . . . ?
C8 C9 C10 C11 -179.1(2) . . . . ?
C9 C10 C11 C12 -0.4(4) . . . . ?
C10 C11 C12 C13 0.2(4) . . . . ?
C11 C12 C13 C14 0.4(3) . . . . ?
C12 C13 C14 C9 -0.8(3) . . . . ?
C10 C9 C14 C13 0.5(3) . . . . ?
C8 C9 C14 C13 179.7(2) . . . . ?
N2 C15 C16 C17 3.0(3) . . . . ?
C15 C16 C17 C21 56.8(3) . . . . ?
C15 C16 C17 C18 -61.1(2) . . . . ?
C21 C17 C18 C19 -60.6(3) . . . . ?
C16 C17 C18 C19 57.2(3) . . . . ?
C17 C18 C19 N2 3.4(3) . . . . ?
C16 C17 C21 C20 -60.2(2) . . . . ?
C18 C17 C21 C20 57.1(2) . . . . ?
N2 C20 C21 C17 3.2(3) . . . . ?
O1 C7 N1 C8 3.3(3) . . . . ?
C2 C7 N1 C8 -175.81(17) . . . . ?
O1 C7 N1 Se1 -177.99(16) . . . . ?
C2 C7 N1 Se1 2.9(2) . . . . ?
C9 C8 N1 C7 84.3(2) . . . . ?
C9 C8 N1 Se1 -94.36(18) . . . . ?
C21 C20 N2 C19 -60.8(2) . . . . ?
C21 C20 N2 C15 57.3(2) . . . . ?
C18 C19 N2 C20 57.1(3) . . . . ?
C18 C19 N2 C15 -61.8(3) . . . . ?
C16 C15 N2 C20 -60.9(2) . . . . ?
C16 C15 N2 C19 57.8(2) . . . . ?
C6 C1 Se1 N1 -174.61(19) . . . . ?
C2 C1 Se1 N1 2.87(14) . . . . ?
 
_refine_diff_density_max    0.465
_refine_diff_density_min   -0.886
_refine_diff_density_rms    0.073

_shelx_res_file
;
TITL jmwtf67 in P2(1)/c
    shelx.res
    created by SHELXL-2016/6 at 13:12:03 on 24-Jan-2018
CELL  1.54184  10.1610  16.0506  11.4300   90.000  104.622   90.000
ZERR     4.00   0.0002   0.0003   0.0002    0.000    0.002    0.000
LATT   1
SYMM  - X, 1/2 + Y, 1/2 - Z
SFAC  C    H    N    O    SE
UNIT  84 96 8 4 4
MERG   2
FMAP   2
PLAN   20
BOND   $H
omit 10 0 0
temp -143
conf
acta
L.S.  10
WGHT    0.046100    1.186500
FVAR       3.90976
C1    1    0.356225    0.576265    0.640022    11.00000    0.01878    0.02139 =
         0.01920    0.00098    0.00474    0.00396
C2    1    0.412628    0.595627    0.761507    11.00000    0.01679    0.02255 =
         0.01969   -0.00151    0.00364    0.00214
C3    1    0.380657    0.548176    0.852734    11.00000    0.02264    0.02734 =
         0.01945    0.00003    0.00553    0.00195
AFIX  43
H3    2    0.418006    0.562148    0.935216    11.00000   -1.20000
AFIX   0
C4    1    0.294171    0.480593    0.822379    11.00000    0.02559    0.02642 =
         0.02550    0.00425    0.00883    0.00082
AFIX  43
H4    2    0.272496    0.447588    0.883940    11.00000   -1.20000
AFIX   0
C5    1    0.238898    0.461159    0.700696    11.00000    0.02236    0.02240 =
         0.02812    0.00084    0.00598   -0.00146
AFIX  43
H5    2    0.179613    0.414684    0.680447    11.00000   -1.20000
AFIX   0
C6    1    0.268773    0.508422    0.608320    11.00000    0.02063    0.02324 =
         0.02086   -0.00218    0.00338   -0.00005
AFIX  43
H6    2    0.230510    0.494745    0.525869    11.00000   -1.20000
AFIX   0
C7    1    0.512063    0.664778    0.785855    11.00000    0.01754    0.02320 =
         0.01957   -0.00125    0.00538    0.00200
C8    1    0.627464    0.760643    0.675709    11.00000    0.02106    0.02117 =
         0.02231   -0.00114    0.00325   -0.00258
AFIX  23
H8A   2    0.631474    0.800452    0.742678    11.00000   -1.20000
H8B   2    0.597657    0.791570    0.598603    11.00000   -1.20000
AFIX   0
C9    1    0.767542    0.724863    0.686056    11.00000    0.02192    0.01919 =
         0.01970    0.00097    0.00475   -0.00244
C10   1    0.803518    0.694304    0.583839    11.00000    0.02352    0.03305 =
         0.01918   -0.00053    0.00505   -0.00169
AFIX  43
H10   2    0.739847    0.696789    0.507130    11.00000   -1.20000
AFIX   0
C11   1    0.931173    0.660444    0.593453    11.00000    0.02615    0.03572 =
         0.02790   -0.00453    0.01049   -0.00091
AFIX  43
H11   2    0.954015    0.639556    0.523335    11.00000   -1.20000
AFIX   0
C12   1    1.026050    0.656718    0.704468    11.00000    0.02139    0.02679 =
         0.03632    0.00213    0.00726    0.00174
AFIX  43
H12   2    1.113606    0.633584    0.710687    11.00000   -1.20000
AFIX   0
C13   1    0.991320    0.687260    0.806385    11.00000    0.02588    0.02991 =
         0.02517    0.00385   -0.00121   -0.00068
AFIX  43
H13   2    1.055678    0.685375    0.882766    11.00000   -1.20000
AFIX   0
C14   1    0.863201    0.720471    0.797136    11.00000    0.02734    0.02671 =
         0.01999   -0.00204    0.00422   -0.00139
AFIX  43
H14   2    0.840294    0.740546    0.867660    11.00000   -1.20000
AFIX   0
C15   1    0.117532    0.590735    0.308416    11.00000    0.01989    0.03847 =
         0.02693   -0.00056    0.00586    0.00055
AFIX  23
H15A  2    0.084990    0.642362    0.339356    11.00000   -1.20000
H15B  2    0.090762    0.542976    0.352148    11.00000   -1.20000
AFIX   0
C16   1    0.049648    0.582150    0.172050    11.00000    0.02375    0.04333 =
         0.02919    0.00001   -0.00028    0.00223
AFIX  23
H16A  2   -0.009393    0.532195    0.157425    11.00000   -1.20000
H16B  2   -0.007499    0.631630    0.143168    11.00000   -1.20000
AFIX   0
C17   1    0.160392    0.574368    0.103550    11.00000    0.03251    0.02533 =
         0.01815    0.00034    0.00222   -0.00183
AFIX  13
H17   2    0.118723    0.566788    0.015102    11.00000   -1.20000
AFIX   0
C18   1    0.246398    0.653866    0.126012    11.00000    0.04628    0.02671 =
         0.02004    0.00224    0.00481   -0.00799
AFIX  23
H18A  2    0.189706    0.702663    0.092590    11.00000   -1.20000
H18B  2    0.321729    0.649803    0.085727    11.00000   -1.20000
AFIX   0
C19   1    0.303987    0.664162    0.263694    11.00000    0.03298    0.03077 =
         0.02092    0.00364    0.00228   -0.00943
AFIX  23
H19A  2    0.404278    0.668778    0.281994    11.00000   -1.20000
H19B  2    0.268475    0.716414    0.290149    11.00000   -1.20000
AFIX   0
C20   1    0.316388    0.515538    0.290023    11.00000    0.03894    0.03005 =
         0.02262    0.00240    0.00738    0.01386
AFIX  23
H20A  2    0.294647    0.468273    0.337557    11.00000   -1.20000
H20B  2    0.416484    0.518198    0.303843    11.00000   -1.20000
AFIX   0
C21   1    0.251082    0.500167    0.154158    11.00000    0.03670    0.02574 =
         0.02607   -0.00446    0.00810    0.00295
AFIX  23
H21A  2    0.322917    0.493713    0.110264    11.00000   -1.20000
H21B  2    0.196306    0.448427    0.143650    11.00000   -1.20000
AFIX   0
N1    3    0.528388    0.695398    0.680011    11.00000    0.02001    0.02416 =
         0.01680   -0.00167    0.00339   -0.00234
N2    3    0.267377    0.593426    0.332248    11.00000    0.01812    0.02225 =
         0.02014    0.00153    0.00409    0.00035
O1    4    0.572823    0.690355    0.886970    11.00000    0.02899    0.03095 =
         0.01717   -0.00411    0.00299   -0.00348
SE1   5    0.419098    0.648532    0.534293    11.00000    0.01894    0.02152 =
         0.01564   -0.00058    0.00310   -0.00079
HKLF    4




REM  jmwtf67 in P2(1)/c
REM R1 =  0.0329 for    3397 Fo > 4sig(Fo)  and  0.0378 for all    3771 data
REM    226 parameters refined using      0 restraints

END

WGHT      0.0450      1.1132

REM Highest difference peak  0.465,  deepest hole -0.886,  1-sigma level  0.073
Q1    1   0.5131  0.6422  0.4880  11.00000  0.05    0.47
Q2    1   0.3339  0.6418  0.6047  11.00000  0.05    0.42
Q3    1   0.1927  0.5908  0.3207  11.00000  0.05    0.39
Q4    1   0.4603  0.6333  0.7738  11.00000  0.05    0.35
Q5    1   0.4981  0.6723  0.6213  11.00000  0.05    0.35
Q6    1   0.3263  0.6543  0.5246  11.00000  0.05    0.34
Q7    1   0.3314  0.5377  0.6236  11.00000  0.05    0.34
Q8    1   0.6987  0.7435  0.6814  11.00000  0.05    0.32
Q9    1   0.5670  0.7245  0.6640  11.00000  0.05    0.31
Q10   1   0.3656  0.5998  0.6982  11.00000  0.05    0.29
Q11   1   0.6049  0.6414  0.4868  11.00000  0.05    0.29
Q12   1   0.8148  0.7240  0.7403  11.00000  0.05    0.29
Q13   1   0.6108  0.6510  0.5143  11.00000  0.05    0.27
Q14   1   0.2775  0.5935  0.3759  11.00000  0.05    0.27
Q15   1   0.7784  0.7013  0.6378  11.00000  0.05    0.27
Q16   1   0.1931  0.5318  0.1229  11.00000  0.05    0.26
Q17   1   0.3045  0.5259  0.8357  11.00000  0.05    0.26
Q18   1   0.8560  0.6586  0.5980  11.00000  0.05    0.26
Q19   1   0.1979  0.6138  0.1182  11.00000  0.05    0.25
Q20   1   0.9640  0.6482  0.6534  11.00000  0.05    0.25
;
_shelx_res_checksum    1462

_shelx_hkl_file
;
   0   0   1 14.3449 48.5344   1
   0   0   2 193385. 5707.46   1
   0   0  -2 212516. 5695.46  16
   0   0   3 41.5247 161.473   1
   0   0  -3-34.7943 127.995  16
   0   0  -4 9834.73 712.784  16
   0   0   4 9525.81 747.774   1
   0   0  -5-20.7044 171.421  16
   0   0  -6 69303.0 2862.16  16
   0   0  -7 104.158 186.326  16
   0   0  -8 17113.5 1443.88  16
   0   0  -9 43.0338 162.570  16
   0   0   9-104.028 134.950   9
   0   0   9-8.04672 131.862  13
   0   0  10 236.415 175.708  13
   0   0  10 309.940 193.502   9
   0   0  11 142.926 177.084  13
   0   0  11 38.1237 161.280   9
   0   0  12 22854.2 1035.07  13
   0   0  12 21802.7 937.943  10
   0   0  13 120.007 110.965  13
   0  -1  -1 72368.9 2067.72  16
   0  -1   1 69531.4 1966.75   2
   0  -1   1 68493.1 2070.47   1
   0  -1   2 104380. 3245.81   1
   0  -1  -2 110519. 3210.78  16
   0  -1  -3 41844.9 1597.79  16
   0  -1   3 42689.2 1678.75   1
   0  -1   4 115425. 3962.60   1
   0  -1  -4 119039. 3863.94  16
   0   1  -4 125263. 3927.49  16
   0  -1  -5 54188.1 2254.94  16
   0   1  -5 54530.2 2248.09  16
   0  -1   5 51238.4 2316.03   1
   0   1  -6 34471.3 1802.03  16
   0  -1   6 33033.1 1884.91   1
   0  -1  -6 33789.7 1812.87  16
   0   1  -7 8390.73 901.416  16
   0  -1  -7 9472.00 984.147  16
   0   1  -8 75719.6 3456.36  16
   0  -1  -8 73051.8 3486.05  16
   0   1  -9 939.053 387.655  16
   0  -1   9 945.628 220.106   9
   0   1   9 983.896 222.092   9
   0   1   9 1109.63 244.644  13
   0  -1   9 1068.99 250.102  13
   0  -1  10 2635.28 350.056  13
   0   1  10 2090.68 336.378   9
   0  -1  10 2430.80 375.977   9
   0   1  10 1895.89 330.840  13
   0   1  11 3264.79 387.947  13
   0  -1  11 3407.88 401.129  13
   0  -1  11 2933.05 401.743   9
   0   1  11 3036.30 387.928   9
   0   1  12 12545.1 751.491   9
   0  -1  12 13929.4 753.128  13
   0  -1  12 12575.4 673.583  10
   0   1  12 13716.8 746.127  13
   0   1  13 12291.9 623.502  13
   0  -1  13 12780.3 629.797  13
   0  -2   0 11445.2 532.494  16
   0   2   0 10861.3 383.463  14
   0  -2   1 37657.2 1288.17   1
   0  -2  -1 35556.4 1297.01  16
   0  -2  -2 13267.3 708.015  16
   0  -2   2 13251.7 564.481   2
   0  -2   2 12788.4 702.874   1
   0  -2  -3 73366.7 2534.54  16
   0  -2   3 74610.9 2591.93   1
   0  -2   4 33586.6 1601.41   1
   0  -2  -4 32986.0 1538.85  16
   0  -2   5 148951. 5079.51   1
   0   2  -5 156387. 4999.02  16
   0  -2  -5 147906. 4962.20  16
   0  -2   6 3964.73 623.258   1
   0  -2  -6 4353.35 625.778  16
   0   2  -6 4324.96 589.516  16
   0  -2  -7 53072.4 2665.72  16
   0  -2   7 50119.5 2672.07   1
   0   2  -7 51462.1 2532.66  16
   0  -2  -8 3977.09 732.012  16
   0   2  -8 4889.93 755.733  16
   0  -2   9 39025.7 1611.24   9
   0  -2  -9 36748.1 1533.88   5
   0   2  -9 35029.0 2330.49  16
   0  -2  -9 36029.4 2503.05  16
   0   2   9 39775.5 1604.65  13
   0   2   9 39610.6 1586.10   9
   0  -2   9 39927.1 1590.59  13
   0   2  10 1828.25 328.352   9
   0  -2  10 1737.19 300.560  13
   0   2  10 1832.75 313.043  13
   0  -2  10 1349.88 275.232   9
   0  -2  11 26193.1 1186.03  13
   0   2  11 25708.4 1191.89  13
   0   2  11 24455.4 1208.18   9
   0  -2  12 1926.40 275.657  13
   0  -2  12 2089.45 267.039  10
   0   2  12 1817.76 298.592   9
   0   2  12 1968.31 290.476  13
   0   2  13 243.497 122.686  13
   0  -2  13 246.056 117.255  13
   0  -2  13 340.691 104.020  10
   0  -3   0 98.8752 152.605  16
   0   3   0-13.2214 53.3578  14
   0  -3   1 215336. 6039.65   1
   0  -3  -1 217114. 6094.87  16
   0   3  -1 210868. 5742.81  14
   0  -3  -2 642.167 235.280  16
   0  -3   2 640.078 139.679   2
   0  -3   2 788.472 211.985   1
   0  -3   3 92676.2 3167.09   1
   0  -3   3 92615.4 2794.85   2
   0  -3  -3 95324.9 3193.21  16
   0  -3   4 83669.4 3093.48   1
   0  -3  -4 82403.1 3073.29  16
   0  -3  -5 45712.9 2153.00  16
   0  -3   5 45507.2 2179.40   1
   0  -3  -6 1843.67 468.375  16
   0  -3   6 1837.00 458.599   1
   0   3  -6 2773.69 486.672  16
   0  -3  -7 2071.66 518.683  16
   0   3  -7 3017.96 555.815  16
   0  -3   7 2515.31 551.105   1
   0  -3  -8 3428.70 713.540  16
   0   3  -8 2459.46 560.043  16
   0   3   9 51422.9 1904.38   9
   0   3  -9 44807.8 2708.93  16
   0  -3   9 47539.7 1733.23  12
   0   3   9 51137.3 1911.48  13
   0  -3  -9 48727.5 1892.07   5
   0  -3   9 49395.5 1870.24  13
   0  -3   9 54113.4 1962.76   9
   0  -3  -9 44563.1 2939.25  16
   0  -3  10 19909.8 1018.72  13
   0   3  10 20636.2 1049.29  13
   0   3  10 20228.7 1067.69   9
   0  -3  10 20336.7 1069.76   9
   0  -3  10 20025.3 895.970  12
   0  -3 -10 20270.6 1018.88   5
   0  -3  11 5451.12 472.430  13
   0   3  11 6086.31 541.121   9
   0   3  11 5552.21 483.213  13
   0   3  12 1348.41 239.923  13
   0  -3  12 1048.20 206.048  13
   0   3  12 1195.98 243.807   9
   0  -3  12 969.695 200.518  10
   0   3  13 2742.96 266.208  13
   0  -3  13 3245.77 267.346  10
   0  -3  13 2585.83 240.201  13
   0   4   0 64929.7 1914.33  14
   0  -4   0 66684.1 2343.12  16
   0   4  -1 313016. 8257.76  14
   0  -4  -1 300567. 8751.12  16
   0  -4   1 301570. 8665.96   1
   0  -4   2 118304. 3638.65   2
   0  -4   2 131038. 3969.14   1
   0   4  -2 123599. 3604.57  14
   0  -4  -2 132284. 4083.91  16
   0  -4   3 20051.6 864.443   2
   0  -4  -3 22701.6 1271.22  16
   0  -4   3 22183.0 1198.26   1
   0  -4  -4 85313.0 3251.53  16
   0  -4   4 83048.3 3183.75   1
   0  -4  -5 8151.34 870.418  16
   0  -4   5 8350.13 856.169   1
   0  -4   6 2054.47 477.083   1
   0  -4  -6 1970.82 494.779  16
   0  -4  -7 84921.5 3882.16  16
   0  -4   7 85735.5 3843.19   1
   0   4  -7 85254.3 3672.41  16
   0   4  -8 1066.42 374.906  16
   0   4   8 1797.95 281.743   9
   0   4   8 2186.97 302.863  13
   0  -4   8 1388.97 504.212   1
   0  -4  -8 2495.37 637.756  16
   0  -4   9 11731.1 670.313  12
   0   4   9 12564.0 776.449  13
   0  -4   9 12157.4 734.629  13
   0  -4  -9 12030.1 1454.64  16
   0   4   9 12822.6 786.986   9
   0  -4  -9 12680.8 794.257   5
   0  -4   9 13804.6 821.825   9
   0  -4  10 17391.7 830.513  12
   0  -4  10 17908.7 929.100  13
   0   4  10 17480.9 959.882  13
   0   4  10 17008.7 963.226   9
   0  -4 -10 18170.7 953.677   5
   0   4  11 29465.4 1338.76   9
   0  -4  11 30482.2 1149.08  12
   0  -4 -11 29497.5 1245.14   5
   0   4  11 31392.1 1325.85  13
   0  -4  11 32845.6 1318.85  13
   0   4  12 13114.6 699.904  13
   0   4  12 11208.3 698.242   9
   0  -4  12 13331.8 712.769  10
   0  -4  12 13413.1 681.289  13
   0   4  13 6087.44 371.753  13
   0  -4  13 6224.13 371.828  10
   0  -5   0 105.913 183.920  16
   0   5  -1 1070.00 118.856  14
   0  -5  -1 1119.30 297.211  16
   0  -5   2 39534.1 1709.48   1
   0   5  -2 38614.7 1300.32  14
   0  -5  -2 42398.0 1848.64  16
   0  -5  -3 22638.9 1371.04  16
   0  -5   3 18992.3 893.403   2
   0   5  -3 20981.9 970.310  14
   0  -5   3 21968.6 1249.60   1
   0  -5   4 90809.8 3428.05   1
   0  -5  -4 93244.4 3565.84  16
   0   5  -4 85274.3 3037.48  14
   0   5  -5 1434.99 326.241  14
   0  -5   5 1217.05 397.954   1
   0  -5  -5 1001.95 382.079  16
   0  -5  -6 91476.8 4049.58  16
   0  -5   6 93227.2 3965.98   1
   0   5  -6 99383.8 3765.53  14
   0  -5  -7 9259.00 1164.63  16
   0   5  -7 10552.6 1110.38  16
   0  -5   7 10868.6 1200.45   1
   0   5   8 54739.0 1974.96   9
   0  -5   8 56854.8 3143.36   1
   0  -5  -8 51838.2 3161.37  16
   0  -5   8 52250.4 1865.55  12
   0  -5  -8 55848.2 2040.26   5
   0   5  -8 51199.2 2842.80  16
   0   5   8 55039.8 1991.99  13
   0   5   9 3280.04 384.214   9
   0  -5   9 3094.09 343.108  13
   0  -5   9 2741.64 304.014  12
   0  -5  -9 2874.51 362.762   5
   0   5   9 2961.93 369.874  13
   0   5  10 35183.1 1511.98   9
   0  -5  10 35634.5 1438.94  13
   0  -5 -10 37892.6 1524.44   5
   0  -5  10 34814.1 1360.59  12
   0   5  10 35922.5 1492.78  13
   0  -5  11 948.975 200.029  13
   0  -5  11 943.224 172.697  12
   0   5  11 873.939 219.999  13
   0  -5 -11 886.296 198.426   5
   0   5  11 856.979 223.998   9
   0   5  12 4343.97 401.911   9
   0  -5  12 5533.79 429.485  10
   0   5  12 4974.00 397.206  13
   0   5  13 832.831 141.690  13
   0  -5  13 681.351 137.005  10
   0  -6   0 268106. 8130.03  16
   0  -6  -1 10646.8 892.799  16
   0  -6   2 66932.8 2558.58   1
   0  -6   2 59617.8 2223.09   2
   0   6  -2 61235.6 1893.68  14
   0  -6  -2 69122.4 2735.03  16
   0  -6   3 116.494 124.088   2
   0  -6  -3 114.398 280.485  16
   0  -6   3 55.0564 224.041   1
   0   6  -3 270.470 109.821  14
   0  -6  -4 32131.2 1921.30  16
   0  -6   4 30996.6 1762.35   1
   0  -6   5 97518.4 3958.20   1
   0  -6  -5 99322.5 4137.50  16
   0  -6   6 3944.47 652.308   1
   0  -6  -6 4055.56 751.533  16
   0  -6   7 26621.1 1967.69   1
   0  -6  -7 23649.1 1964.92  16
   0   6  -7 26433.0 1879.33  16
   0   6  -8-54.4228 213.773  16
   0  -6  -8 855.817 402.879  16
   0   6   8 352.816 161.290   9
   0  -6  -8 341.420 167.736   5
   0   6   8 179.625 138.306  13
   0  -6   8 241.712 129.083  12
   0  -6   8 356.944 347.777   1
   0   6   9 17731.4 949.926  13
   0  -6   9 17179.7 857.488  12
   0   6   9 17976.2 955.965   9
   0  -6  -9 18461.2 995.616   5
   0  -6  10 390.649 140.304  12
   0  -6 -10 275.555 163.167   5
   0   6  10 348.219 183.370   9
   0   6  10 303.150 171.911  13
   0  -6 -11 5185.21 424.574   5
   0   6  11 5637.08 490.319   9
   0  -6  11 5522.96 393.706  12
   0  -6  11 6427.91 502.282  10
   0   6  11 5339.34 447.122  13
   0  -6  12 25761.5 1035.14  10
   0   6  12 23679.5 966.391  13
   0   6  13 414.484 88.6446  13
   0  -6  13 506.487 114.199  10
   0  -7   0-79.9694 272.141  16
   0  -7  -1 164971. 5579.61  16
   0  -7   1 162285. 5395.06   1
   0  -7  -2 165.832 265.994  16
   0  -7   2 415.112 153.220   2
   0  -7   2 255.258 255.060   1
   0  -7  -3 107336. 4183.18  16
   0  -7   3 100571. 3877.15   1
   0  -7  -4 19208.4 1519.93  16
   0  -7   4 18739.9 1369.40   1
   0  -7   5 6651.33 845.742   1
   0  -7  -5 6221.97 892.150  16
   0  -7  -6 1469.27 507.404  16
   0  -7   6 1754.37 520.522   1
   0  -7   7 4003.26 359.461  12
   0  -7  -7 4139.26 431.317   5
   0  -7   7 4355.04 813.493   1
   0  -7  -7 3253.26 760.315  16
   0  -7  -8 4218.80 887.193  16
   0  -7   8 3824.53 787.090   1
   0  -7  -8 5549.89 507.095   5
   0  -7   8 5096.85 422.191  12
   0   7   8 4937.97 458.365   9
   0   7   8 4402.90 422.812  13
   0  -7   9 1379.54 225.585  12
   0  -7  -9 1453.22 280.590   5
   0   7   9 1231.38 258.123  13
   0   7   9 1248.98 260.819   9
   0   7  10 80.6711 124.624  13
   0  -7  10 330.377 138.329  12
   0   7  10 236.587 157.841   9
   0  -7 -10-20.2912 162.596   5
   0   7  11 14068.1 735.996  13
   0   7  11 13103.0 762.656   9
   0  -7  11 14580.9 690.652  12
   0  -7  11 15569.1 806.884  10
   0  -7 -11 14445.7 740.514   5
   0   7  12 663.787 153.305   9
   0  -7  12 724.350 165.254  10
   0   7  12 820.207 150.783  13
   0  -7  12 1146.96 148.041  12
   0  -7  13 21286.7 770.626  10
   0  -8   0 4694.14 718.103  16
   0  -8   1 548.555 320.292   1
   0  -8  -1 253.633 320.670  16
   0  -8  -2 14645.6 1305.20  16
   0  -8   2 13773.8 1153.33   1
   0  -8   2 13278.1 952.094   2
   0  -8  -3 86859.4 3804.31  16
   0  -8   3 79565.3 3414.67   1
   0  -8  -4 22689.1 1785.91  16
   0  -8   4 20550.9 1542.08   1
   0  -8   5 32042.1 2075.43   1
   0  -8  -5 31158.3 2257.51  16
   0  -8   6 5038.18 824.070   1
   0  -8  -6 4168.61 822.654  16
   0  -8  -7 56736.2 3497.52  16
   0  -8   7 60714.3 2067.35  12
   0  -8   7 56789.0 2016.05   6
   0  -8  -7 60483.8 2192.20   5
   0   8   7 63789.2 2150.62   9
   0  -8   7 63385.7 3396.17   1
   0  -8   8 507.681 169.372  12
   0  -8  -8 396.258 185.845   5
   0   8   8 405.694 167.356   9
   0  -8  -9 20000.1 1038.75   5
   0   8   9 20260.2 1026.60   9
   0  -8   9 19660.1 936.208  12
   0   8   9 19768.7 960.704  13
   0  -8 -10 5874.84 487.955   5
   0   8  10 5079.69 467.252   9
   0  -8  10 5776.00 497.062  10
   0   8  10 5206.51 428.743  13
   0  -8  10 5152.65 414.227  12
   0  -8 -11 8873.35 543.941   5
   0   8  11 8188.02 560.136   9
   0  -8  11 9361.78 521.853  12
   0   8  11 9071.09 524.404  13
   0   8  12 1365.22 190.484   9
   0  -8  12 1814.32 171.373  12
   0  -8  12 1835.03 227.313  10
   0  -8 -12 1340.06 149.251   5
   0  -9   0-34.7282 348.074  16
   0  -9  -1 11760.3 1243.73  16
   0  -9   1 11808.2 1118.19   1
   0  -9   2 26954.4 1790.23   1
   0  -9  -2 27665.6 1985.34  16
   0  -9  -3 22929.7 1853.62  16
   0  -9   3 22189.7 1625.78   1
   0  -9   4 16155.6 1424.13   1
   0  -9  -4 16729.1 1641.31  16
   0  -9   5 9233.56 1116.91   1
   0  -9  -5 9730.65 1279.60  16
   0  -9  -6 43047.0 1658.72   5
   0  -9   6 39155.0 1516.76   6
   0  -9   6 41733.5 2653.44   1
   0  -9   6 42685.2 1551.73  12
   0  -9  -6 37888.5 2737.88  16
   0  -9   7 931.705 443.935   1
   0  -9   7 705.654 178.360  12
   0  -9   7 284.531 130.290   6
   0   9   7 216.009 155.117   9
   0  -9  -7 383.106 165.687   5
   0  -9  -8 29414.6 1350.99   5
   0  -9   8 31238.0 1273.65  12
   0  -9   8 28909.9 1206.11   6
   0   9   8 31853.4 1340.42   9
   0   9   9 2265.38 316.133   9
   0  -9   9 2278.88 298.101  12
   0  -9  -9 2209.03 331.320   5
   0  -9   9 2528.54 349.121  10
   0   9  10 16295.9 859.503   9
   0  -9 -10 17193.0 877.722   5
   0  -9  10 16586.7 810.496  12
   0  -9  10 17989.4 913.858  10
   0   9  11 3967.98 349.518   9
   0  -9  11 4911.70 403.422  10
   0  -9  11 4410.60 331.597  12
   0  -9 -11 4108.05 345.848   5
   0  -9  12 10528.3 505.514  10
   0  -9  12 9182.12 416.625  12
   0 -10   0 24516.3 1919.12  16
   0 -10   1 3246.46 646.853   1
   0 -10  -1 3210.66 746.594  16
   0 -10   2 87353.8 3888.02   1
   0 -10  -2 85868.2 4204.63  16
   0 -10  -3 965.331 556.937  16
   0 -10   3 308.747 276.615   1
   0 -10   4 46884.3 2751.24   1
   0 -10  -4 46344.0 3058.38  16
   0 -10   5 281.214 130.505  12
   0 -10   5 421.047 127.308   6
   0 -10   5 368.667 317.084   1
   0 -10  -5 452.275 171.878   5
   0 -10  -5 462.186 354.745  16
   0 -10   6 1697.90 256.082   6
   0 -10   6 1725.75 260.890  12
   0 -10  -6 1440.74 268.048   5
   0 -10  -6 1265.15 524.554  16
   0 -10   6 2329.88 619.885   1
   0 -10  -7 124.614 144.654   5
   0 -10   7 359.284 151.914  10
   0  10   7 302.591 153.014   9
   0 -10   7 206.735 130.138   6
   0 -10   7 275.701 144.722  12
   0 -10  -8 191.774 168.672   5
   0 -10   8 150.008 155.816  12
   0 -10   8 27.9097 95.0615   6
   0 -10   8-10.7026 127.988  10
   0  10   8-13.5604 121.538   9
   0  10   9 587.325 176.285   9
   0 -10  -9 491.492 188.339   5
   0 -10   9 561.436 170.983  12
   0 -10   9 420.718 123.337   6
   0 -10   9 458.449 187.161  10
   0 -10 -10 11127.9 654.345   5
   0 -10  10 11278.0 619.646  12
   0  10  10 10021.8 609.028   9
   0 -10  10 11839.3 688.656  10
   0 -10  11-31.1822 117.347  10
   0 -10  11 16.4426 93.3372  12
   0 -10 -11 22.6861 86.5615   5
   0  10  11-87.6230 105.234   9
   0 -10  12 20857.8 736.980  10
   0 -11   0-108.770 318.171   1
   0 -11   1 20232.1 1679.13   1
   0 -11  -1 18804.5 1809.49  16
   0 -11   2 31512.6 2174.99   1
   0 -11  -2 29131.3 2381.50  16
   0 -11  -3 24445.3 2201.29  16
   0 -11   3 23915.9 1929.99   1
   0 -11  -4 13318.8 769.836   5
   0 -11  -4 13216.5 1624.40  16
   0 -11   4 13224.5 743.506   6
   0 -11   4 13492.9 1444.27   1
   0 -11   5 7477.83 1108.66   1
   0 -11  -5 7496.51 575.731   5
   0 -11  -5 8240.85 1305.85  16
   0 -11   5 7897.31 559.815   6
   0 -11   5 7777.62 545.930  12
   0 -11  -6 15501.3 888.435   5
   0 -11   6 15514.3 830.435  12
   0 -11   6 15189.3 815.399   6
   0 -11   7 296.391 163.724   6
   0 -11   7 233.451 159.912  12
   0 -11   7 270.329 146.171  10
   0 -11  -7 396.914 200.389   5
   0 -11   8 16125.4 860.919  10
   0 -11   8 14957.5 807.174  12
   0 -11  -8 14809.4 860.490   5
   0 -11   8 14018.5 748.284   6
   0 -11   9 265.891 118.663   6
   0 -11  -9 308.991 157.557   5
   0 -11   9 365.337 158.975  12
   0  11   9 427.720 144.933   9
   0 -11   9 453.803 170.894  10
   0 -11 -10 17257.7 815.272   5
   0 -11  10 18879.7 811.981  12
   0 -11  10 18975.9 849.408  10
   0 -11  11 4631.60 311.326  10
   0 -11 -11 3942.55 286.169   5
   0 -11  11 4641.43 306.540  12
   0 -12   0 54494.7 3081.79   1
   0 -12   1 3215.38 692.056   1
   0 -12  -1 4911.61 971.840  16
   0 -12   2 1098.96 398.880   1
   0 -12  -2 870.592 439.880  16
   0 -12  -2 740.036 173.607   5
   0 -12   2 1034.97 207.079   6
   0 -12   3 2952.06 353.210   6
   0 -12   3 2665.00 665.906   1
   0 -12  -3 2344.78 770.258  16
   0 -12  -3 2807.12 357.135   4
   0 -12  -3 3126.75 342.798   5
   0 -12   4 119.021 140.049   6
   0 -12  -4 25.2406 129.909   4
   0 -12  -4-17.2437 115.781   5
   0 -12   4 190.369 145.869  12
   0 -12  -4 98.6447 257.979  16
   0 -12   5 28129.1 1229.18   6
   0 -12  -5 29337.4 1301.98   5
   0 -12  -5 26699.4 1222.85   4
   0 -12   5 27650.8 1202.17  12
   0 -12   6-40.1704 130.122  12
   0 -12   6-128.235 150.390   6
   0 -12  -6 190.693 182.903   5
   0 -12   7 81011.3 2650.45  12
   0 -12  -7 79138.5 2714.88   5
   0 -12   7 77138.7 2585.62   6
   0 -12  -8 878.075 228.922   5
   0 -12   8 635.545 159.099  10
   0 -12   8 775.968 215.693  12
   0 -12   8 489.988 151.266   6
   0 -12  -9 15219.6 795.738   5
   0 -12   9 16431.5 783.515  10
   0 -12   9 14485.5 698.127   6
   0 -12   9 16807.0 804.440  12
   0 -12  10 321.636 130.219  12
   0 -12  10 327.649 122.719  10
   0 -12 -10 562.262 152.497   5
   0 -12  11 8069.24 378.834  12
   0 -13   0-35.4814 100.572   5
   0 -13   0-56.5074 296.212   1
   0 -13   0-42.5982 130.409   6
   0 -13  -1 41316.4 1538.07   5
   0 -13   1 39267.0 1557.90   6
   0 -13   1 37746.5 1477.90   5
   0 -13   1 42372.5 2755.93   1
   0 -13  -1 39258.3 2675.61   1
   0 -13   2 2349.01 328.347   6
   0 -13   2 2293.51 271.514   5
   0 -13  -2 2416.22 340.991   4
   0 -13  -2 2249.37 300.096   5
   0 -13  -2 2222.53 733.867  16
   0 -13   2 1512.52 540.886   1
   0 -13  -3 24978.1 1197.69   4
   0 -13   3 26253.3 1182.02   6
   0 -13  -3 26647.7 1181.44   5
   0 -13   3 23781.1 1085.16  12
   0 -13   4 988.404 243.477   6
   0 -13   4 864.306 199.801  12
   0 -13  -4 800.298 217.026   5
   0 -13  -4 857.027 215.764   4
   0 -13  -5 3461.30 375.477   4
   0 -13   5 3419.82 368.651  12
   0 -13  -5 3795.30 419.992   5
   0 -13   5 3502.52 387.377   6
   0 -13  -6 18107.6 964.774   5
   0 -13   6 16801.0 883.086  12
   0 -13   6 16507.3 878.938   6
   0 -13   7 586.784 182.265   6
   0 -13   7 491.362 181.735  12
   0 -13  -7 559.104 210.729   5
   0 -13   8 953.945 194.849   6
   0 -13  -8 952.621 218.567   5
   0 -13   8 855.487 207.954  12
   0 -13   9 312.395 110.653   6
   0 -13  -9 262.947 146.441   5
   0 -13   9 343.888 142.643  12
   0 -13 -10 4762.39 323.429   5
   0 -13  10 4994.18 327.301  12
   0 -14   0 42020.7 1685.66   6
   0 -14   0 44213.7 1633.21   5
   0 -14  -1 5080.94 441.166   5
   0 -14  -1 4655.61 455.446   6
   0 -14   1 4578.34 449.197   6
   0 -14   1 4335.16 390.831   5
   0 -14   2 34587.8 1377.34   5
   0 -14  -2 37113.8 1558.36   4
   0 -14   2 36206.6 1506.76   6
   0 -14  -2 37609.7 1482.14   5
   0 -14  -3 930.431 231.334   4
   0 -14   3 529.106 192.497   6
   0 -14  -3 1120.16 229.901   5
   0 -14  -4 2722.22 348.865   5
   0 -14   4 2621.00 355.923   6
   0 -14  -4 2852.38 349.367   4
   0 -14   4 2164.44 294.863  12
   0 -14  -5 24904.4 1180.22   5
   0 -14   5 25945.3 1180.99   6
   0 -14   5 25046.4 1116.37  12
   0 -14  -5 25337.4 1136.70   4
   0 -14   6 2511.11 315.726  12
   0 -14   6 2421.49 325.581   6
   0 -14  -6 2629.73 336.357   5
   0 -14   7 363.937 164.564  12
   0 -14   7 381.543 154.607   6
   0 -14  -7 538.510 187.494   5
   0 -14   8 97.0278 128.351  12
   0 -14   8-7.41859 110.533   6
   0 -14  -8 75.9526 129.656   5
   0 -14   9 5026.32 342.881  12
   0 -14  -9 4217.21 330.808   5
   0 -14  10 3122.28 203.780  12
   0 -15   0 11.2821 147.630   6
   0 -15   0 47.2348 100.778   5
   0 -15   1 184.669 167.619   6
   0 -15  -1-133.749 191.204   6
   0 -15   1 111.759 95.1083   5
   0 -15  -1 45.7902 113.196   5
   0 -15  -1 211.133 176.808   4
   0 -15  -2 29791.1 1333.09   4
   0 -15  -2 29886.1 1269.65   5
   0 -15   2 28497.1 1174.39   5
   0 -15   2 29890.5 1327.95   6
   0 -15  -3 1717.96 283.547   4
   0 -15  -3 1782.59 282.004   5
   0 -15   3 1508.51 287.039   6
   0 -15   4 17594.6 856.210  12
   0 -15   4 19591.5 995.571   6
   0 -15  -4 18698.7 950.353   5
   0 -15  -4 18712.5 935.691   4
   0 -15  -5 65.0320 99.1504   4
   0 -15   5 81.4491 156.156   6
   0 -15  -5-39.0713 158.435   5
   0 -15   5 95.2150 115.774  12
   0 -15   6 6055.79 442.706  12
   0 -15  -6 6694.45 511.825   5
   0 -15   6 7290.88 531.574   6
   0 -15   7 49.9901 126.181   6
   0 -15   7 46.0289 103.115  12
   0 -15  -7 213.984 151.449   5
   0 -15  -8 19580.2 862.109   5
   0 -15   8 22287.9 875.333   6
   0 -15   8 21852.0 847.090  12
   0 -15   9-7.69860 62.5786  12
   0 -15  -9 66.2690 74.3859   5
   0 -16   0 34453.9 1350.65   5
   0 -16   0 35259.9 1493.44   4
   0 -16   0 33598.1 1428.70   6
   0 -16  -1 112.132 160.139   4
   0 -16   1-4.63128 169.206   6
   0 -16  -1-43.5883 113.636   5
   0 -16   1-5.55649 99.4915   5
   0 -16   2 557.666 206.250   6
   0 -16  -2 417.150 163.724   5
   0 -16  -2 473.988 189.638   4
   0 -16  -3 7697.00 555.954   4
   0 -16   3 8621.94 618.976   6
   0 -16  -3 7470.55 540.089   5
   0 -16  -4 20701.4 972.617   5
   0 -16  -4 20735.9 947.294   4
   0 -16   4 21585.2 1037.43   6
   0 -16   5 9755.45 617.940   6
   0 -16  -5 8737.22 562.256   5
   0 -16  -6 1356.18 221.030   5
   0 -16   6 1006.39 215.644   6
   0 -16   6 1010.16 164.322  12
   0 -16   7 6522.10 373.356  12
   0 -16   7 7705.61 469.674   6
   0 -16  -7 7246.38 441.765   5
   0 -16   8 1193.66 149.159   6
   0 -16  -8 999.666 148.442   5
   0 -17   0-36.1187 129.055   6
   0 -17   0-79.4474 105.119   5
   0 -17   0-32.1921 157.084   4
   0 -17   1 33871.3 1388.11   4
   0 -17   1 32086.8 1333.64   6
   0 -17  -1 31973.8 1339.01   4
   0 -17  -1 32486.7 1256.23   5
   0 -17   1 31203.5 1196.44   5
   0 -17  -2 2720.64 321.507   4
   0 -17   2 2709.36 330.345   6
   0 -17  -2 2780.98 301.133   5
   0 -17  -3 4258.20 370.612   5
   0 -17   3 4325.85 416.535   6
   0 -17  -3 4712.76 384.108   4
   0 -17  -4 3775.40 311.018   4
   0 -17   4 3944.32 382.290   6
   0 -17  -4 3618.40 330.376   5
   0 -17   5 12035.8 659.722   6
   0 -17  -5 11963.8 614.059   5
   0 -17  -6 46.7250 92.8955   5
   0 -17   6 67.8604 114.754   6
   0 -17   7 53.5940 81.5925   6
   0 -17  -7 79.0723 74.4013   5
   0 -18   0 6489.51 473.032   4
   0 -18   0 6400.32 393.081   5
   0 -18   1 1145.73 224.463   4
   0 -18  -1 1040.51 166.361   5
   0 -18  -1 1188.73 213.807   4
   0 -18   2 4753.64 403.407   4
   0 -18  -2 4865.69 350.503   5
   0 -18   2 4609.39 382.863   6
   0 -18  -2 4589.80 362.243   4
   0 -18  -3 1969.92 214.324   4
   0 -18  -3 1912.95 220.241   5
   0 -18   3 2124.82 268.113   4
   0 -18   3 2086.78 262.242   6
   0 -18   4 74.7247 102.608   4
   0 -18   4 64.5405 112.642   6
   0 -18  -4 71.6762 92.2977   5
   0 -18   5 14659.5 664.919   6
   0 -18  -5 14306.9 618.100   5
   0 -18   5 15071.7 654.544   4
   0 -18   6 1120.20 142.321   4
   0 -18  -6 1134.95 132.799   5
   0 -18   6 1086.35 147.204   6
   0 -19   0-47.5336 92.3250   4
   0 -19   1 4207.61 325.086   4
   0 -19  -1 3796.59 293.246   4
   0 -19   2 86.9411 96.7281   4
   0 -19  -2 33.2650 68.9009   4
   0 -19  -3 1619.33 158.625   5
   0 -19   3 1569.98 183.944   4
   0 -19  -4 7337.96 346.023   5
   0 -19   4 7935.51 394.539   4
   0 -20   1-25.0267 60.6716   4
  -1   0  14 4572.48 281.377  13
  -1   0  13 4.93168 104.762  13
  -1   0  12 36258.3 1446.35  13
   1   0 -11-382.979 158.601   5
  -1   0  11 47.4406 153.395  13
  -1   0  11-38.6525 169.508   9
   1   0 -10 163178. 4981.58   5
  -1   0  10 168957. 5033.80   9
  -1   0  10 163212. 5004.59  13
   1   0  -9 24.8022 129.774   5
  -1   0   9-107.116 136.524   9
   1   0  -9 154.967 169.082  16
   1   0  -8 2466.52 506.704  16
   1   0  -7-85.2942 190.717  16
   1   0  -6 14718.5 1033.64  16
  -1   0   5 44.7255 203.931   1
   1   0  -5 39.8845 151.081  16
   1   0  -4 15620.6 841.703  16
  -1   0   4 15818.5 958.224   1
   1   0  -3 19.5063 97.7352  16
  -1   0   3 107.044 156.650   1
  -1   0   2 18492.5 797.158   1
   1   0  -2 19708.0 712.712  16
   1   0  -1 51.8027 29.9167  16
  -1   0   1 0.61180 42.7193   1
   1   0   0 230972. 6261.19  14
   1   0   1-6.90998 69.1285   1
   1   0   1-4.59618 84.8038  14
   1   0   1 84.5319 126.920   2
   1   0   2 138332. 4081.17   1
  -1   0  -3-66.0671 162.766  16
   1   0   3 45.3670 151.615   1
  -1   0  -4 303629. 8874.47  16
  -1   0  -5-158.284 210.123  16
  -1   0  -6 290.056 257.377  16
  -1   0  -7 12.8476 211.944  16
  -1   0  -8 24724.9 1872.90  16
   1   0   9-76.4031 140.105   9
   1   0   9 292.172 205.594  13
  -1   0  -9-232.269 243.337  16
   1   0  10 811.850 230.934  13
   1   0  10 468.974 206.377   9
   1   0  11-122.858 165.695   9
   1   0  11 22.5875 105.501  10
   1   0  11 53.8519 155.353  13
   1   0  12 4905.48 416.534  13
   1   0  12 4832.50 354.849  10
   1   0  13-63.8642 91.2147  13
  -1  -1  14 3982.10 249.402  13
  -1   1  14 4326.61 273.336  13
  -1  -1  13 7824.82 447.743  10
  -1  -1  13 8540.38 509.210  13
  -1   1  13 8308.58 506.336  13
  -1  -1  12 447.873 185.384  13
  -1   1  12 681.311 202.133  13
  -1  -1  11 10596.2 705.137  13
  -1   1  11 10530.2 698.642  13
   1  -1 -11 10803.4 695.127   5
  -1   1  11 10740.7 730.833   9
  -1  -1  11 10909.5 733.367   9
  -1   1  10 4519.41 459.320  13
  -1  -1  10 3942.47 443.649   9
  -1   1  10 4547.06 469.743   9
  -1  -1  10 3929.36 429.143  13
   1   1 -10 4114.50 419.604   5
   1  -1 -10 4402.95 444.989   5
  -1   1   9 32371.4 1342.12   9
   1  -1  -9 27245.1 2002.40  16
   1  -1  -9 28908.2 1317.84   5
  -1  -1   9 30452.8 1323.17   9
   1  -1  -8 136819. 5224.21  16
   1   1  -8 139883. 5109.77  16
   1   1  -7 1167.22 334.466  16
   1  -1  -7 975.749 332.996  16
   1  -1  -6 97351.0 3564.65  16
  -1  -1   6 93759.9 3721.24   1
   1   1  -6 97133.5 3475.57  16
  -1  -1   5 206.022 198.356   1
   1  -1  -5 321.631 215.531  16
   1   1  -5 383.275 190.171  16
   1   1  -4 30503.0 1290.70  16
   1  -1  -4 30076.2 1323.72  16
  -1  -1   4 30653.9 1450.14   1
   1  -1  -3 14851.3 752.065  16
   1   1  -3 16016.8 733.887  16
  -1  -1   3 14683.0 821.520   1
   1  -1  -2 33184.4 1157.49  16
  -1  -1   2 32851.8 1223.87   1
   1   1  -1 110569. 3327.20  14
  -1  -1   1 117075. 3262.16   1
   1  -1  -1 118881. 3276.77  16
   1   1  -1 116919. 3201.19   2
   1   1   0 19699.5 783.524   2
   1  -1   0 19357.7 676.073  14
   1  -1   0 19341.3 637.269   1
  -1  -1   0 20038.6 667.196  16
   1  -1   1 9407.81 443.116  14
  -1  -1  -1 8752.41 470.823  16
   1  -1   1 8608.19 469.316   1
   1  -1   1 9781.42 561.038   2
  -1  -1  -2 2821.68 317.351  16
   1  -1   2 2685.57 302.913   1
   1  -1   2 3016.24 348.903   2
  -1  -1  -3 43012.2 1712.28  16
   1  -1   3 42299.9 1733.87   1
   1  -1   4 3280.55 461.539   1
  -1  -1  -4 3344.52 483.785  16
  -1  -1  -5 46262.2 2134.73  16
   1  -1   5 44667.9 2147.27   1
  -1   1  -5 47142.5 2176.20  16
  -1   1  -6 68681.7 3018.00  16
  -1  -1  -6 68897.2 3012.73  16
  -1   1  -7 14432.6 1317.15  16
  -1  -1  -7 15942.8 1385.20  16
  -1   1  -8 36674.1 2355.94  16
  -1  -1  -8 36980.8 2391.43  16
   1   1   9 40.4728 136.515  13
   1  -1   9 79.1977 140.785  13
   1  -1   9 162.444 165.221   9
   1   1   9 210.278 153.253   9
  -1  -1  -9 762.547 359.901  16
  -1   1  -9 333.112 271.072  16
   1  -1  10 30440.5 1369.74  13
   1  -1  10 28929.7 1372.47   9
   1   1  10 29665.7 1368.36  13
   1   1  10 29805.8 1378.61   9
   1  -1  11 84.1712 155.618  13
   1  -1  11 307.271 144.456  10
   1   1  11 132.998 153.759   9
   1  -1  11 429.064 171.606   9
   1   1  11 417.717 200.150  13
   1  -1  12 23733.8 979.311  10
   1  -1  12 25766.0 1077.87  13
   1   1  12 25527.9 1081.46  13
   1  -1  13 7071.24 414.068  13
   1   1  13 7051.88 420.163  13
  -1   2  14 3538.54 239.357  13
  -1  -2  13 8.06574 91.8707  10
  -1   2  13 133.000 115.883  13
  -1  -2  12 210.269 151.560  13
  -1   2  12 151.383 161.074  13
   1  -2 -12 56.7874 99.0613   5
  -1   2  12 243.660 191.434   9
  -1   2  11 609.659 230.699   9
   1  -2 -11 712.432 195.388   5
  -1  -2  11 508.325 180.895  13
  -1   2  11 450.088 188.793  13
  -1  -2  10 6109.59 540.539   9
  -1   2  10 5370.16 507.889  13
  -1  -2  10 5867.80 440.125  12
  -1   2  10 5849.86 526.778   9
   1  -2 -10 5891.90 544.730   5
  -1  -2  10 6274.75 531.531  13
   1  -2  -9 27317.2 2075.33  16
  -1   2   9 33410.8 1385.23   9
  -1  -2   9 29969.9 1234.14  12
  -1  -2   9 33039.4 1376.66   9
   1  -2  -9 32322.1 1405.21   5
   1   2  -9 28112.2 2207.94  14
   1  -2  -8 2922.37 608.941  16
   1   2  -8 3660.52 607.901  16
   1   2  -7 70535.6 2965.51  16
   1  -2  -7 74562.9 3221.95  16
  -1  -2   7 70225.6 3267.10   1
  -1  -2   6 1160.02 392.576   1
   1   2  -6 626.796 241.048  16
   1  -2  -6 739.145 292.726  16
   1  -2  -5 142762. 4680.10  16
  -1  -2   5 141537. 4809.57   1
   1   2  -5 142998. 4546.22  16
  -1  -2   4 1775.68 354.519   1
   1  -2  -4 1652.18 308.615  16
   1  -2  -3 82386.6 2704.71  16
  -1  -2   3 81057.9 2766.98   1
   1  -2  -2 61405.7 2041.89  16
   1   2  -2 60286.1 2046.27  14
  -1  -2   2 62671.7 2065.30   1
   1   2  -1 153692. 4479.19  14
  -1  -2   1 157830. 4402.15  16
   1  -2  -1 160730. 4547.40  16
  -1  -2   1 163310. 4497.29   1
   1  -2   0 11403.9 413.346  14
   1   2   0 10926.3 558.207  14
  -1  -2   0 12356.9 542.879  16
  -1  -2  -1 16485.3 750.042  16
   1  -2   1 15656.3 725.426   1
   1  -2   1 15673.5 792.981   2
   1   2   1 15249.8 744.346  14
   1  -2   2 20.6084 141.596   2
  -1  -2  -2-9.52627 135.800  16
   1  -2   2 64.0448 143.437   1
  -1  -2  -3 25170.9 1256.20  16
   1  -2   3 27967.8 1316.14   1
   1  -2   3 26587.3 1272.74   2
  -1  -2  -4 248.960 222.282  16
   1  -2   4 200.086 218.797   1
   1  -2   5 963.898 301.117   1
  -1  -2  -5 1350.66 372.256  16
  -1   2  -5 1192.74 335.988  16
  -1  -2  -6 17802.4 1352.39  16
   1  -2   6 16598.5 1319.55   1
  -1   2  -6 17830.7 1345.75  16
  -1  -2  -7 49819.2 2677.46  16
  -1   2  -7 49271.4 2622.11  16
  -1   2  -8 1457.45 464.345  16
   1   2   8 1650.48 269.083   9
  -1  -2  -8 1953.79 557.024  16
   1   2   8 1890.75 304.700  13
   1   2   9 86482.1 2957.54   9
  -1  -2  -9 85893.6 4335.71  16
   1  -2   9 86945.3 2984.38   9
  -1   2  -9 82105.3 4120.76  16
   1   2   9 90934.2 3011.36  13
   1  -2   9 90931.5 2987.64  13
   1  -2  10 951.873 251.091   9
   1   2  10 681.271 234.257  13
   1  -2  10 728.094 220.696  13
   1   2  10 722.602 212.278   9
   1   2  11 30007.8 1366.66   9
   1  -2  11 31922.6 1359.91  13
   1   2  11 33724.7 1388.19  13
   1  -2  11 32578.3 1333.33  10
   1  -2  11 30126.4 1323.04   9
   1   2  12 663.879 191.084  13
   1  -2  12 1024.02 202.219  13
   1   2  12 648.045 189.521   9
   1  -2  12 910.406 182.326  10
   1   2  13 11089.5 545.159  13
   1  -2  13 11216.5 528.835  13
  -1   3  14 3929.94 240.876  13
  -1   3  13 14087.4 671.647  13
  -1  -3  13 13394.5 647.388  10
  -1  -3  13 13489.3 632.768  13
   1  -3 -12 170.611 109.711   5
  -1  -3  12 344.980 136.933  13
  -1   3  12 222.026 164.254   9
  -1   3  12 437.507 177.968  13
  -1  -3  11 16903.4 797.488  12
  -1   3  11 17926.0 939.344  13
  -1   3  11 18020.0 977.539   9
  -1  -3  11 18848.0 947.789  13
   1  -3 -11 19098.7 987.459   5
   1  -3 -10 5292.98 518.445   5
  -1   3  10 5261.06 490.019  13
  -1  -3  10 4850.83 400.066  12
  -1  -3  10 5168.96 461.193  13
  -1   3  10 5068.75 499.881   9
  -1  -3   9 95927.6 3208.34  13
   1   3  -9 90440.8 4497.87  14
   1  -3  -9 105744. 3361.89   5
  -1  -3   9 99134.2 3119.31  12
   1  -3  -9 88046.4 4419.08  16
  -1   3   9 106183. 3286.27   9
  -1  -3   9 103410. 3274.80   9
   1  -3  -8 2109.03 550.369  16
  -1  -3   8 2419.28 596.347   1
   1   3  -8 2272.81 459.585  16
   1   3  -8 2983.06 630.234  14
   1   3  -7 12429.3 1036.85  16
   1  -3  -7 12453.1 1194.11  16
  -1  -3   7 13130.8 1260.40   1
  -1  -3   6 10728.4 1010.76   1
   1  -3  -6 10291.0 966.274  16
   1   3  -6 10675.3 873.102  16
   1  -3  -5 4994.40 613.026  16
  -1  -3   5 5133.41 652.882   1
  -1  -3   4 16558.6 1059.80   1
   1  -3  -4 16348.2 1021.89  16
  -1  -3   3 88870.6 2956.61   1
   1   3  -3 83876.4 2841.57  14
   1  -3  -3 83145.1 2911.11  16
   1   3  -2 45754.3 1648.37  14
  -1  -3   2 47126.1 1733.04   1
   1  -3  -2 45235.0 1741.94  16
   1   3  -1 263984. 7403.92  14
  -1  -3   1 271323. 7468.71  16
   1  -3  -1 273339. 7608.04  16
   1   3   0 441949. 11901.2  14
  -1  -3   0 451256. 11939.5  16
   1  -3   0 421039. 12060.5  16
   1  -3   1 1021.50 205.730   1
  -1  -3  -1 1056.33 224.822  16
   1  -3   1 1019.33 231.694   2
   1   3   1 814.665 201.389  14
   1  -3   2 196.005 137.169   2
  -1  -3  -2-16.6063 179.776  16
   1  -3   2 162.742 144.562   1
  -1  -3  -3 58365.1 2285.04  16
   1  -3   3 57047.0 2202.40   2
   1  -3   3 62946.3 2318.88   1
  -1  -3  -4 91765.1 3384.67  16
   1  -3   4 95095.0 3442.66   1
  -1  -3  -5 148019. 5124.94  16
   1  -3   5 151059. 5197.26   1
   1  -3   6 3724.16 639.703   1
  -1   3  -6 4940.01 709.182  16
  -1  -3  -6 3203.84 599.955  16
  -1   3  -7 62211.3 3076.17  16
  -1  -3  -7 59933.5 3138.43  16
   1  -3   7 62933.8 3128.01   1
   1   3   8 8816.30 604.612   9
   1   3   8 8467.55 612.118  13
  -1   3  -8 8954.80 1104.44  16
  -1  -3  -8 7111.38 1053.75  16
   1  -3   8 8169.44 594.072  13
   1  -3   9 764.398 198.416  13
   1  -3   9 765.072 213.513   9
   1   3   9 1053.61 251.191   9
   1   3   9 635.271 206.176  13
   1   3  10 7719.99 604.669  13
   1   3  10 6955.89 585.691   9
   1  -3  10 7346.52 592.652   9
   1  -3  10 7325.35 579.927  13
   1   3  11 4623.73 451.627  13
   1   3  11 4134.64 443.090   9
   1  -3  11 4966.15 448.865  13
   1  -3  11 4841.88 449.457  10
   1   3  12 131.110 131.256   9
   1   3  12 199.027 146.811  13
   1  -3  12 329.078 135.189  10
   1  -3  12 177.664 110.631  13
   1  -3  13 12733.3 532.147  10
   1  -3  13 11326.8 514.082  13
  -1   4  13 357.294 122.733  13
  -1  -4  13 346.576 95.2386  13
  -1  -4  13 412.093 132.124  10
  -1  -4  12 31470.5 1188.46  13
   1  -4 -12 27882.3 1158.35   5
  -1   4  12 27044.3 1208.06   9
  -1  -4  12 28209.5 1035.64  12
  -1   4  12 29716.6 1201.08  13
  -1   4  11-16.9128 150.982  13
   1  -4 -11 181.573 152.186   5
  -1  -4  11 152.286 133.136  13
  -1   4  11 145.399 172.454   9
  -1  -4  11 114.498 92.7202  12
  -1   4  10 28068.2 1312.02   9
  -1  -4  10 29361.5 1261.43  13
  -1  -4  10 27790.6 1167.15  12
   1  -4 -10 29885.9 1376.75   5
  -1   4  10 28102.8 1280.26  13
   1   4  -9 25378.2 2034.37  14
  -1   4   9 28255.1 1248.20   9
   1  -4  -9 22820.9 1998.38  16
   1  -4  -9 27468.6 1299.33   5
  -1  -4   9 26459.2 1173.25  13
  -1  -4   9 25173.8 1109.18  12
   1  -4  -8 9274.37 1168.17  16
  -1  -4   8 8784.61 1111.34   1
   1   4  -8 9120.94 1084.95  14
   1   4  -7 8468.28 977.307  14
   1  -4  -7 8078.86 1010.24  16
   1   4  -7 8509.53 870.485  16
  -1  -4   7 8791.20 1017.97   1
   1  -4  -6 26041.4 1712.23  16
   1   4  -6 28636.9 1582.27  16
   1   4  -6 24998.3 1608.25  14
  -1  -4   6 26834.2 1736.45   1
  -1  -4   5 54808.9 2505.35   1
   1   4  -5 55894.4 2386.37  14
   1  -4  -5 53959.2 2491.97  16
   1   4  -4 46147.3 1964.48  14
   1  -4  -4 47579.8 2123.11  16
  -1  -4   4 48055.7 2119.76   1
  -1  -4   3 73946.5 2692.77   1
   1   4  -3 71777.4 2512.46  14
   1  -4  -3 73523.7 2715.70  16
   1  -4  -2 44404.3 1865.64  16
  -1  -4   2 45119.2 1792.52   1
   1   4  -2 46243.3 1648.92  14
  -1  -4   1 33509.1 1385.28  16
   1   4  -1 33498.1 1259.90  14
   1  -4  -1 32569.1 1500.90  16
   1  -4   0 20951.3 1130.38  16
  -1  -4   0 22068.0 1052.94  16
   1   4   0 21857.3 956.544  14
   1  -4   1 50002.9 1934.90   2
   1   4   1 52669.5 1896.86  14
  -1  -4  -1 56038.0 2050.46  16
   1  -4   1 53741.1 1953.17   1
  -1  -4  -2 138804. 4237.76  16
   1  -4   2 130527. 4087.72   1
   1  -4   3 17.4887 132.525   2
  -1  -4  -3-12.3743 241.246  16
   1  -4   3-121.940 188.108   1
   1  -4   4 108405. 3838.40   1
   1  -4   4 100787. 3503.78   2
  -1  -4  -4 105610. 3845.01  16
   1  -4   5 3569.73 573.317   1
  -1  -4  -5 2849.28 529.356  16
  -1  -4  -6 16204.0 1389.20  16
   1  -4   6 17146.4 1383.25   1
  -1  -4  -7 21931.1 1771.06  16
  -1   4  -7 21269.7 1679.25  16
   1  -4   7 21621.2 1702.61   1
   1  -4   8 17896.4 856.480  12
   1   4   8 19585.1 986.805  13
  -1  -4  -8 19225.6 1796.72  16
   1  -4   8 16938.4 901.613  13
   1   4   8 18650.9 950.962   9
  -1   4  -8 18781.9 1644.49  16
   1   4   9 6654.19 559.619   9
   1   4   9 6900.71 592.384  13
   1  -4   9 7758.53 512.131  12
   1  -4   9 6224.74 524.917  13
   1  -4  10 4171.22 422.434  13
   1   4  10 3878.22 438.908   9
   1  -4  10 3944.31 343.464  12
   1   4  10 3889.03 437.830  13
   1  -4  11 24448.5 1109.91  10
   1   4  11 23338.3 1118.85   9
   1   4  11 23090.6 1085.68  13
   1  -4  11 23385.5 1067.53  13
   1  -4  12 3910.21 328.424  13
   1  -4  12 4139.03 359.854  10
   1   4  12 3226.44 331.438   9
   1   4  12 3946.75 353.968  13
   1  -4  13 3165.47 235.310  10
   1   4  13 3299.81 254.742  13
  -1  -5  13 2652.89 255.440  10
  -1   5  13 2427.54 234.897  13
  -1  -5  12 284.557 99.7059  12
  -1   5  12 369.332 154.975  13
   1  -5 -12 391.771 148.889   5
  -1   5  12 330.308 166.039   9
  -1  -5  11 57.4832 112.010  13
  -1  -5  11 134.213 107.401  12
  -1   5  11 114.017 162.233   9
   1  -5 -11 181.145 171.649   5
  -1   5  11-3.14710 126.372  13
  -1  -5  10 8991.73 599.483  13
   1  -5 -10 8475.84 670.158   5
  -1   5  10 8479.96 625.936  13
  -1  -5  10 8040.31 540.913  12
  -1   5  10 8913.40 656.240   9
  -1   5   9 234.695 174.451   9
  -1  -5   9-80.5897 119.092  12
   1  -5  -9 402.785 326.334  16
   1  -5  -9-30.2141 187.314   5
   1  -5  -8 54119.8 2056.65   5
  -1   5   8 55618.0 1976.99   9
  -1  -5   8 57798.3 3150.92   1
  -1  -5   8 53831.2 1888.60  12
   1  -5  -8 49867.5 3036.22  16
  -1  -5   7 12424.9 1260.98   1
   1   5  -7 13661.3 1148.36  16
   1  -5  -7 12462.8 1303.45  16
   1   5  -7 11614.7 1149.43  14
  -1  -5   6 86580.5 3699.91   1
   1   5  -6 88819.0 3526.23  14
   1  -5  -6 81483.5 3669.57  16
   1   5  -5 65440.0 2636.28  14
  -1  -5   5 60117.4 2782.40   1
   1  -5  -5 61399.2 2837.25  16
  -1  -5   4 228504. 7288.82   1
   1   5  -4 232692. 7012.70  14
   1  -5  -4 243724. 7405.45  16
  -1  -5   3 5943.15 621.452   1
   1   5  -3 5972.79 509.487  14
   1  -5  -3 5691.29 653.379  16
   1   5  -2 2693.16 307.028  14
   1  -5  -2 2613.10 433.589  16
  -1  -5   2 2954.01 414.742   1
   1  -5  -1 416.249 259.928  16
   1   5  -1 262.782 128.279  14
  -1  -5   1 247.009 193.144  16
   1   5   0 102749. 3227.16  14
  -1  -5   0 105857. 3490.10  16
   1  -5   0 104333. 3632.00  16
  -1  -5  -1 44651.7 1886.51  16
   1  -5   1 43809.1 1794.53   1
   1   5   1 43640.3 1707.86  14
   1  -5   2 1505.84 302.394   2
  -1   5  -2 1117.95 123.926  14
  -1  -5  -2 1860.23 411.241  16
   1  -5   2 1654.78 319.439   1
   1  -5   3 211.448 153.635   2
  -1  -5  -3 134.240 248.122  16
   1  -5   3 170.346 220.456   1
   1  -5   4 7720.13 650.419   2
   1  -5   4 7700.77 811.506   1
  -1  -5  -4 7621.64 855.551  16
   1  -5   5 10697.3 1034.60   1
  -1  -5  -5 11107.8 1087.76  16
  -1  -5  -6 14171.7 1340.28  16
   1  -5   6 14344.4 1310.27   1
  -1   5  -7 764.803 357.331  16
   1  -5   7-144.838 261.529   1
  -1  -5  -7 505.955 348.302  16
   1  -5   8 111671. 3435.73  12
   1  -5   8 115882. 4992.54   1
   1   5   8 107217. 3537.78   9
  -1  -5  -8 109984. 5154.34  16
   1   5   8 117688. 3600.01  13
  -1  -5  -8 111853. 3542.36   5
  -1   5  -8 114833. 4925.90  16
   1  -5   9 747.165 170.570  12
  -1  -5  -9 899.003 204.747   5
   1  -5   9 905.001 208.113  13
   1   5   9 1088.14 239.144  13
   1   5   9 867.137 229.248   9
   1  -5  10 28459.8 1289.96  10
   1   5  10 27697.8 1258.60  13
   1  -5  10 28379.2 1130.43  12
   1   5  10 26592.3 1256.21   9
   1  -5  10 27304.4 1203.70  13
   1  -5  11 400.805 193.655  10
   1  -5  11 152.482 116.853  13
   1   5  11 175.981 176.896   9
   1   5  11 438.714 181.550  13
   1   5  12 19143.6 841.501  13
   1   5  12 17497.2 838.117   9
   1   5  13 993.469 122.467  13
   1  -5  13 1212.25 144.640  10
  -1   6  13 168.051 87.9272  13
  -1  -6  13 65.7721 100.616  10
  -1  -6  12 27657.0 1001.10  12
   1  -6 -12 26612.7 1083.62   5
  -1  -6  12 29628.3 1161.64  10
  -1   6  12 24188.5 1088.52   9
  -1   6  12 26889.6 1081.61  13
  -1   6  11 3491.97 401.712   9
  -1  -6  11 3679.42 331.091  12
  -1   6  11 3593.62 382.151  13
   1  -6 -11 3850.66 403.043   5
  -1   6  10 7225.03 582.704   9
  -1  -6  10 6837.58 495.906  12
  -1   6  10 7403.72 557.105  13
   1  -6 -10 8033.64 635.817   5
  -1  -6   9 99.0111 124.414  12
  -1   6   9 281.359 164.215  13
   1  -6  -9 282.175 190.672   5
  -1   6   9 241.063 170.499   9
  -1   6   8 37793.4 1505.46   9
  -1  -6   8 36787.2 1429.88  12
  -1  -6   8 40667.3 2592.20   1
   1  -6  -8 37564.0 1585.29   5
  -1  -6   7 24780.5 1883.95   1
   1  -6  -7 25067.5 1971.62  16
  -1  -6   6 75.0973 226.236   1
   1   6  -6 232.070 156.250  14
   1  -6  -6 109.609 213.488  16
   1  -6  -5 93772.6 3999.25  16
   1   6  -5 101967. 3622.33  14
  -1  -6   5 96585.4 3910.13   1
  -1  -6   4 14675.4 1144.34   1
   1   6  -4 15201.1 958.572  14
   1  -6  -4 14785.4 1209.16  16
   1  -6  -3 8386.95 861.728  16
  -1  -6   3 8898.04 810.778   1
   1   6  -3 9179.40 639.234  14
   1   6  -2 524.012 161.124  14
  -1  -6   2 521.298 257.725   1
   1  -6  -2 239.242 241.003  16
   1   6  -1 28113.5 1198.08  14
  -1  -6   1 30270.7 1536.62  16
   1  -6  -1 28685.0 1610.42  16
   1  -6   0 103563. 3754.85  16
  -1  -6   0 101845. 3584.37  16
   1   6   0 98811.9 3174.93  14
   1  -6   1 12824.6 909.955   1
   1   6   1 12300.4 814.263  14
  -1  -6  -1 13229.2 976.567  16
   1  -6   2 120037. 4041.69   1
  -1  -6  -2 126420. 4286.87  16
  -1  -6  -3 5582.91 733.289  16
   1  -6   3 4288.08 506.359   2
   1  -6   3 4724.55 599.569   1
  -1  -6  -4 31399.2 1905.79  16
   1  -6   4 31009.8 1778.95   1
  -1  -6  -5 18926.6 1558.61  16
   1  -6   5 22725.0 1587.06   1
  -1  -6  -6 17212.1 1587.18  16
   1  -6   6 18030.0 1521.94   1
  -1   6  -7 31359.1 2186.06  16
   1  -6   7 30395.7 2151.15   1
  -1  -6  -7 30320.0 2284.50  16
   1   6   8 12381.4 765.452   9
  -1  -6  -8 12800.4 761.999   5
   1  -6   8 11850.4 1353.68   1
   1   6   8 12262.3 764.026  13
   1  -6   8 12207.9 693.238  12
  -1  -6  -8 13778.1 1601.65  16
  -1   6  -8 13013.2 1401.18  16
   1   6   9 20443.6 1047.90   9
   1  -6   9 20670.0 955.019  12
   1   6   9 19912.8 1036.38  13
  -1  -6  -9 20908.9 1015.75   5
   1  -6  10 23.9049 102.680  12
   1  -6  10 127.715 166.424  10
   1   6  10 24.4817 143.644  13
  -1  -6 -10 38.6421 108.874   5
   1   6  10 134.948 154.785   9
   1  -6  11 6516.53 514.623  10
   1   6  11 5496.24 473.597   9
   1   6  11 6144.30 475.146  13
   1  -6  11 6101.00 394.775  12
   1   6  12 3122.97 277.299  13
   1   6  12 2295.11 262.273   9
   1  -6  12 3198.33 300.063  10
  -1  -7  13 31536.5 1087.99  10
  -1  -7  12 368.567 107.391  12
  -1   7  12 390.709 118.209  13
  -1  -7  12 490.815 163.939  10
   1  -7 -12 364.327 128.248   5
  -1   7  11 53659.4 1870.12  13
   1  -7 -11 54585.4 1950.72   5
  -1   7  11 50477.0 1907.08   9
  -1  -7  11 53720.7 1804.50  12
  -1   7  10 1251.36 265.300   9
   1  -7 -10 1297.74 277.483   5
  -1  -7  10 1131.99 212.630  12
  -1   7  10 1076.22 218.528  13
  -1   7   9 1909.05 291.028  13
  -1  -7   9 2171.19 281.761  12
   1  -7  -9 2628.43 377.266   5
  -1   7   9 1937.37 311.435   9
  -1  -7   8 19805.2 929.803  12
  -1   7   8 17908.9 935.373  13
  -1  -7   8 17998.4 868.528   6
  -1  -7   8 22287.4 1880.59   1
   1  -7  -8 14875.2 1674.47  16
   1  -7  -8 19333.2 1040.25   5
  -1   7   8 19664.6 985.608   9
   1  -7  -7 14798.7 1569.08  16
  -1  -7   7 15082.9 1474.66   1
  -1  -7   6 7282.40 940.979   1
   1  -7  -6 6199.10 956.057  16
  -1  -7   5 6145.26 812.281   1
   1  -7  -5 5824.45 858.233  16
   1  -7  -4 6197.49 859.338  16
  -1  -7   4 6420.86 774.809   1
  -1  -7   3 38231.8 1984.87   1
   1  -7  -3 38225.1 2142.13  16
   1  -7  -2 589.035 330.611  16
  -1  -7   2 986.516 334.557   1
   1   7  -2 686.650 165.076  14
   1   7  -1 24977.5 1094.49  14
  -1  -7   1 25394.0 1514.58  16
   1  -7  -1 26182.1 1668.21  16
   1  -7   0 2442.60 524.686  16
   1   7   0 3135.86 355.161  14
  -1  -7   0 3461.60 557.331  16
   1  -7   1 87717.7 3269.63   1
  -1  -7  -1 83565.4 3361.50  16
   1  -7   2 12816.0 1010.58   1
  -1  -7  -2 11860.8 1102.07  16
   1  -7   2 12328.5 929.870   2
   1  -7   3 203138. 6488.64   1
  -1  -7  -3 215431. 6885.57  16
  -1  -7  -4 571.247 381.300  16
   1  -7   4 577.753 288.237   1
  -1  -7  -5 27752.6 1994.33  16
   1  -7   5 28378.3 1879.79   1
  -1  -7  -6 4894.73 847.208  16
   1  -7   6 5604.34 857.590   1
   1  -7   7 39663.9 2528.95   1
   1   7   7 37613.4 1502.44   9
  -1  -7  -7 36959.3 2644.94  16
   1  -7   7 36235.4 1418.19  12
  -1  -7  -7 38645.9 1533.27   5
   1   7   8 2788.72 344.800  13
   1   7   8 3178.44 378.524   9
  -1  -7  -8 2924.49 360.574   5
   1  -7   8 3200.17 338.570  12
  -1  -7  -9 4175.11 420.827   5
   1  -7   9 4773.82 411.187  12
   1  -7   9 4689.76 465.937  10
   1   7   9 4482.18 435.591  13
   1   7   9 4489.47 459.289   9
   1  -7  10 1237.97 284.356  10
   1   7  10 1466.27 250.347  13
   1  -7  10 1087.15 197.003  12
  -1  -7 -10 942.091 184.757   5
   1   7  10 1322.07 252.239   9
   1   7  11 1177.84 233.581   9
   1  -7  11 1347.39 188.696  12
   1   7  11 1210.47 201.082  13
   1  -7  11 1508.30 259.805  10
   1   7  12 3339.81 296.283   9
   1  -7  12 4910.42 358.530  10
  -1  -8  13 1947.30 170.814  10
   1  -8 -12 140.520 107.498   5
  -1  -8  12 19.4295 77.3956  12
  -1  -8  12-119.488 127.740  10
  -1   8  11 3170.68 338.048   9
  -1  -8  11 3669.03 328.716  12
  -1   8  11 3455.28 326.914  13
   1  -8 -11 3807.49 379.188   5
  -1  -8  11 4154.68 386.829  10
  -1   8  10 1616.42 249.824  13
  -1   8  10 1631.01 276.835   9
   1  -8 -10 1523.39 283.680   5
  -1  -8  10 1612.16 249.290  12
  -1   8   9 24610.8 1122.57  13
   1  -8  -9 25711.7 1242.92   5
  -1   8   9 25743.1 1189.41   9
  -1  -8   9 26242.4 1129.40  12
  -1  -8   9 24483.7 1051.42   6
  -1   8   8 11853.1 743.199   9
  -1  -8   8 12166.1 700.260  12
  -1  -8   8 11193.3 655.657   6
   1  -8  -8 11775.5 777.765   5
   1  -8  -7 26426.8 2227.90  16
  -1  -8   7 26834.0 1148.66   6
   1  -8  -7 28248.1 1271.61   5
  -1  -8   7 28556.4 1182.06  12
  -1  -8   7 26286.6 2048.88   1
  -1  -8   6-79.5572 317.666   1
   1  -8  -6 64.6725 252.858  16
   1  -8  -5 63717.2 3347.71  16
  -1  -8   5 63094.5 3106.34   1
  -1  -8   4 57.6946 234.024   1
   1  -8  -4-64.5643 230.445  16
   1  -8  -3 135422. 5076.75  16
  -1  -8   3 121507. 4673.87   1
  -1  -8   2 4475.08 649.122   1
   1  -8  -2 3984.95 699.440  16
  -1  -8   1 2006.14 479.731  16
   1  -8  -1 2463.76 590.506  16
  -1  -8   0 6773.24 822.395  16
   1  -8   0 7292.53 942.011  16
   1  -8   1 25869.1 1599.24   1
  -1  -8  -1 26975.7 1733.31  16
   1  -8   2 14653.6 1179.08   1
   1  -8   2 14743.8 1095.40   2
  -1  -8  -2 13677.6 1258.87  16
   1  -8   3 137.911 237.095   1
  -1  -8  -3 725.585 389.476  16
   1  -8   4 42659.6 2376.82   1
  -1  -8  -4 41231.2 2523.30  16
  -1  -8  -5 13298.5 1422.83  16
   1  -8   5 15161.6 1378.10   1
   1  -8   6 1033.94 210.479  12
   1  -8   6 709.185 328.794   1
  -1  -8  -6 1643.52 539.925  16
  -1  -8  -7 59759.3 3595.88  16
   1   8   7 63056.7 2225.30   9
   1  -8   7 62322.1 2144.61  12
  -1  -8  -7 63965.9 2257.58   5
   1  -8   7 66692.8 3525.66   1
   1  -8   8 216.804 145.474  12
   1  -8   8 188.277 157.663  10
  -1  -8  -8 268.075 159.435   5
   1   8   8 416.388 189.837   9
  -1  -8  -9 27026.5 1199.84   5
   1   8   9 25734.1 1154.26  13
   1  -8   9 27038.6 1143.71  12
   1  -8   9 26767.3 1237.90  10
   1   8   9 27002.0 1227.15   9
  -1  -8 -10 220.787 123.918   5
   1   8  10 195.782 164.424   9
   1  -8  10 234.408 183.189  10
   1  -8  10 341.793 144.248  12
   1   8  10 369.962 148.734  13
   1   8  11 15724.7 794.575   9
   1  -8  11 17138.6 729.180  12
   1  -8  11 17995.4 849.536  10
   1   8  12 988.248 147.451   9
   1  -8  12 1223.69 177.410  10
  -1  -9  12 660.709 139.902  10
   1  -9 -12 414.354 104.441   5
  -1  -9  12 603.620 118.321  12
   1  -9 -11 4729.55 407.579   5
  -1   9  11 4578.29 374.452   9
  -1  -9  11 5176.03 424.137  10
  -1  -9  11 5352.09 379.043  12
  -1  -9  10 8008.58 528.712  12
   1  -9 -10 7936.81 590.425   5
  -1   9  10 7498.51 543.369   9
  -1   9   9 5835.02 497.028   9
  -1  -9   9 5914.70 476.695  12
   1  -9  -9 5460.72 524.312   5
  -1  -9   9 5243.08 415.729   6
   1  -9  -8 35097.0 1536.31   5
  -1  -9   8 33502.6 1379.76   6
  -1  -9   8 36966.2 1445.73  12
  -1   9   8 38224.4 1516.03   9
   1  -9  -7 15148.2 836.140   4
   1  -9  -7 16062.0 913.022   5
   1  -9  -7 14661.1 1696.93  16
  -1  -9   7 17853.2 1689.42   1
  -1  -9   7 16937.4 852.887  12
  -1  -9   7 16338.2 835.400   6
  -1  -9   6 1916.99 259.152  12
   1  -9  -6 1777.80 279.524   5
  -1  -9   6 1732.20 253.996   6
  -1  -9   6 2447.44 600.393   1
   1  -9  -5 3067.67 747.318  16
  -1  -9   5 4135.39 733.284   1
   1  -9  -4 113311. 4902.34  16
  -1  -9   4 105819. 4459.42   1
   1  -9  -3 27587.6 2062.79  16
  -1  -9   3 26996.0 1812.49   1
  -1  -9   2 90583.4 3821.00   1
   1  -9  -2 92035.8 4142.78  16
   1  -9  -1 750.365 403.222  16
  -1  -9   1 141.925 250.062   1
  -1  -9   0 2265.68 555.813  16
  -1  -9  -1 28868.4 1968.07  16
   1  -9   1 31386.0 1896.61   1
   1  -9   2 10742.6 994.015   2
   1  -9   2 12505.6 1150.00   1
  -1  -9  -2 10789.0 1200.53  16
  -1  -9  -3 16827.1 1562.77  16
   1  -9   3 16384.0 1400.25   1
   1  -9   4 31132.8 2047.25   1
  -1  -9  -4 29065.3 2199.81  16
  -1  -9  -5 1660.89 568.445  16
   1  -9   5 1270.99 429.011   1
   1  -9   6 27264.6 1235.24  10
   1   9   6 29305.5 1227.76   9
   1  -9   6 27261.4 2109.18   1
   1  -9   6 27361.1 1153.52   6
   1  -9   6 26904.1 1165.07  12
  -1  -9  -6 27340.1 1240.76   5
  -1  -9  -6 27806.1 2283.81  16
   1   9   7 44421.3 1693.13   9
  -1  -9  -7 44527.1 1720.37   5
   1  -9   7 42702.6 1705.20  10
   1  -9   7 43216.6 1625.96  12
   1  -9   7 40541.4 1567.54   6
   1  -9   8 10460.6 652.907  12
   1  -9   8 11405.7 739.651  10
   1   9   8 10929.4 700.073   9
  -1  -9  -8 10208.9 688.426   5
   1  -9   9 1932.90 303.833  10
  -1  -9  -9 1994.02 281.921   5
   1  -9   9 1686.57 266.033  12
   1   9   9 2275.41 325.032   9
   1  -9  10 20888.3 986.731  10
   1  -9  10 19336.3 872.315  12
  -1  -9 -10 19258.0 881.962   5
   1   9  10 19172.2 928.953   9
  -1  -9 -11 180.706 91.9723   5
   1  -9  11 306.686 109.075  12
   1  -9  11 398.117 146.217  10
   1   9  11 342.605 132.355   9
   1  -9  12 16732.6 657.957  10
  -1 -10  12 20937.0 721.517  12
  -1 -10  12 19939.2 736.631  10
   1 -10 -12 18287.0 715.297   5
  -1 -10  11 57.7215 99.9161  12
   1 -10 -11 46.6255 105.497   5
  -1 -10  11 141.587 126.878  10
  -1 -10  10 25480.1 1065.41  10
   1 -10 -10 21949.5 1038.01   5
  -1 -10  10 23866.4 992.668  12
  -1 -10   9 1301.18 207.785   6
  -1  10   9 1565.53 258.636   9
  -1 -10   9 1550.76 254.817  12
  -1 -10   9 1704.72 273.996  10
   1 -10  -9 1615.77 290.263   5
  -1 -10   8 18367.4 919.467  12
   1 -10  -8 17879.4 993.953   5
  -1 -10   8 17507.8 873.828   6
  -1 -10   7 690.838 178.835   6
   1 -10  -7 789.372 240.045   5
   1 -10  -7 879.551 206.630   4
  -1 -10   7 937.878 208.157  12
   1 -10  -6 5686.97 481.912   4
  -1 -10   6 5884.03 464.074  12
   1 -10  -6 4956.97 1016.31  16
  -1 -10   6 5118.09 924.585   1
   1 -10  -6 6268.00 517.543   5
  -1 -10   6 5437.78 457.014   6
   1 -10  -5 830.468 192.999   5
   1 -10  -5 1164.17 448.457  16
  -1 -10   5 733.798 182.435   6
  -1 -10   4 10437.0 1192.45   1
   1 -10  -4 12557.4 1496.05  16
  -1 -10   3 557.992 316.977   1
   1 -10  -3 1360.77 542.185  16
   1 -10  -2 25931.6 2110.95  16
  -1 -10   2 25546.9 1844.86   1
   1 -10  -1 3408.35 755.722  16
  -1 -10   1 3764.14 689.251   1
   1 -10   0 40991.7 2332.08   1
  -1 -10   0 37257.5 2383.26  16
   1 -10   1 21936.0 1597.93   2
  -1 -10  -1 19413.1 1687.65  16
   1 -10   1 21332.6 1630.57   1
   1 -10   2 83208.0 3692.57   1
  -1 -10  -2 76414.5 3871.75  16
  -1 -10  -3 318.010 239.240  16
   1 -10   3 315.549 269.441   1
   1 -10   4 50130.5 2842.47   1
  -1 -10  -4 43941.2 2925.24  16
   1 -10   5 5739.21 453.204   6
   1 -10   5 5588.77 460.385  12
  -1 -10  -5 6257.03 513.254   5
   1 -10   5 5391.80 888.717   1
  -1 -10  -5 4367.23 889.091  16
   1 -10   6 69729.3 3625.11   1
   1 -10   6 59530.7 2228.92  10
   1 -10   6 60670.3 2144.60   6
   1 -10   6 64431.6 2194.34  12
   1  10   6 65459.1 2222.98   9
  -1 -10  -6 65000.3 2285.11   5
  -1 -10  -6 60650.4 3704.24  16
  -1 -10  -7 912.903 233.946   5
   1 -10   7 538.313 201.468  10
   1 -10   7 716.883 207.735  12
   1  10   7 602.597 193.790   9
   1 -10   7 569.629 164.531   6
   1 -10   8 222.332 170.674  10
   1 -10   8 50.5085 137.371  12
   1  10   8 215.613 135.367   9
   1 -10   8 65.0467 93.9371   6
  -1 -10  -8 208.887 161.325   5
   1  10   9 193.267 145.803   9
   1 -10   9 67.3825 138.105  10
  -1 -10  -9 36.4561 119.631   5
   1 -10   9 41.3688 128.263  12
   1 -10  10 1713.00 265.232  10
  -1 -10 -10 1366.36 205.907   5
   1  10  10 1353.82 221.191   9
   1 -10  10 1600.93 217.805  12
   1  10  11 913.276 144.373   9
   1 -10  11 1050.34 147.068  12
  -1 -11  11 6972.15 405.431  12
   1 -11 -11 6762.35 424.555   5
  -1 -11  11 6682.74 391.200  10
  -1 -11  10 5445.13 413.581  10
   1 -11 -10 4907.50 431.263   5
  -1 -11  10 5067.53 400.349  12
   1 -11  -9 557.017 204.795   5
  -1 -11   9 582.302 178.118  10
  -1 -11   9 553.463 180.967  12
  -1 -11   9 283.663 124.998   6
   1 -11  -8 27074.5 1278.45   5
  -1 -11   8 28677.0 1213.75  12
  -1 -11   8 25777.2 1151.13   6
  -1 -11   8 30402.2 1256.96  10
   1 -11  -7 17066.2 958.062   5
  -1 -11   7 17838.1 896.484  12
   1 -11  -7 17837.6 920.210   4
  -1 -11   7 17119.6 891.106   6
   1 -11  -6 10615.6 700.528   4
  -1 -11   6 10219.8 639.918  12
  -1 -11   6 9907.63 656.188   6
   1 -11  -6 10582.2 711.761   5
   1 -11  -5 341.029 147.961   4
   1 -11  -5 545.204 350.026  16
  -1 -11   5 31.5111 107.615  12
   1 -11  -5 107.751 120.288   5
  -1 -11   5 95.0820 373.017   1
  -1 -11   5-71.3650 135.377   6
   1 -11  -4 39631.3 1570.12   5
   1 -11  -4 41804.7 3031.12  16
  -1 -11   4 41712.3 1581.26   6
  -1 -11   4 42796.9 2690.42   1
  -1 -11   3 14037.0 1426.21   1
   1 -11  -3 12682.4 1592.34  16
   1 -11  -2 5364.86 1046.42  16
  -1 -11   2 6224.54 946.016   1
   1 -11  -1 1390.14 562.525  16
  -1 -11   1 807.847 388.373   1
   1 -11   0 46399.6 2637.79   1
  -1 -11   0 41218.9 2670.05  16
   1 -11   1 50971.4 2737.70   2
  -1 -11  -1 45837.6 2912.71  16
   1 -11   1 49593.7 2794.38   1
  -1 -11  -2 2018.06 629.596  16
   1 -11   2 1743.72 536.113   1
  -1 -11  -3 48197.2 3180.68  16
   1 -11   3 54847.9 3031.22   1
   1 -11   4 21288.4 1008.66  12
  -1 -11  -4 19957.3 1984.01  16
  -1 -11  -4 21633.8 1051.57   5
   1 -11   4 23434.9 1924.07   1
   1 -11   4 21751.4 1020.29   6
  -1 -11  -5 2907.85 367.002   5
   1 -11   5 2729.46 332.367  12
  -1 -11  -5 2101.39 632.078  16
   1 -11   5 2485.67 641.714   1
   1 -11   5 2395.93 315.851   6
   1 -11   6 2502.01 328.625  10
   1 -11   6 2224.34 300.175   6
   1 -11   6 2128.71 301.729  12
  -1 -11  -6 2275.56 333.186   5
   1 -11   7 5243.66 463.240  12
  -1 -11  -7 5210.08 484.308   5
   1 -11   7 4919.53 468.358  10
   1 -11   7 4481.23 416.464   6
   1  11   7 5415.43 449.323   9
   1 -11   8 22154.6 1060.11  10
   1 -11   8 19684.7 914.475   6
   1  11   8 21091.9 993.972   9
  -1 -11  -8 21033.3 1021.73   5
   1 -11   8 21367.5 998.388  12
  -1 -11  -9 2579.12 304.302   5
   1  11   9 2299.06 284.406   9
   1 -11   9 2511.96 319.688  10
   1 -11   9 2520.67 300.819  12
   1 -11  10 17851.1 806.772  10
  -1 -11 -10 16789.8 741.902   5
   1 -11  10 17934.5 762.151  12
   1  11  10 15404.9 723.503   9
   1 -11  11 4642.17 292.224  10
   1 -11  11 4887.40 277.676  12
   1 -12 -11-92.7350 96.4049   5
  -1 -12  11-13.6263 71.4021  12
  -1 -12  10 3152.32 264.418  10
  -1 -12  10 3531.03 307.583  12
   1 -12 -10 3084.88 313.546   5
  -1 -12   9 10862.0 599.191   6
   1 -12  -9 11018.1 682.673   5
  -1 -12   9 11958.8 656.406  12
   1 -12  -8 1294.11 268.498   5
  -1 -12   8 1087.73 220.233   6
  -1 -12   8 1337.70 240.887  12
  -1 -12   7 26670.3 1190.70   6
   1 -12  -7 27915.0 1280.23   5
   1 -12  -7 27123.2 1205.25   4
  -1 -12   7 28402.5 1201.13  12
   1 -12  -6 4606.20 455.766   5
  -1 -12   6 5128.30 437.803  12
   1 -12  -6 4441.98 445.953   4
  -1 -12   6 4756.06 445.685   6
   1 -12  -5 41726.2 1713.28   4
  -1 -12   5 43858.9 1679.54   6
  -1 -12   5 42695.6 1601.00  12
   1 -12  -5 44360.7 1714.78   5
   1 -12  -4 38.2599 127.682   5
  -1 -12   4 77.0114 124.181   6
  -1 -12   4 273.432 302.357   1
   1 -12  -4 114.230 286.542  16
  -1 -12   4 77.3200 114.206  12
   1 -12  -4 203.622 148.365   4
   1 -12  -3 87546.9 2857.86   5
  -1 -12   3 87990.1 4314.82   1
   1 -12  -3 91378.0 4913.22  16
  -1 -12   3 89321.9 2878.82   6
   1 -12  -3 88236.0 2971.50   4
  -1 -12   2 2089.77 280.220   6
  -1 -12   2 1990.41 543.482   1
   1 -12  -2 1913.76 681.504  16
   1 -12  -2 2343.74 321.470   4
   1 -12  -1 2229.61 587.268   1
  -1 -12   1 2828.38 669.337   1
   1 -12   0 275.400 347.773   1
  -1 -12   0 442.540 341.000   1
  -1 -12  -1 4705.02 410.970   5
   1 -12   1 4629.95 842.941   1
  -1 -12  -1 3867.82 862.489  16
   1 -12   2 4836.05 875.446   1
  -1 -12  -2 5753.34 464.098   5
  -1 -12  -2 5542.07 1048.44  16
   1 -12   2 6049.39 495.315   6
   1 -12   3 742.005 180.180   6
   1 -12   3 633.725 177.200  12
   1 -12   3 521.988 445.738   1
  -1 -12  -3 701.005 184.376   5
  -1 -12  -3 355.281 377.064  16
  -1 -12  -4 19275.2 2026.84  16
   1 -12   4 20125.8 1004.69   6
   1 -12   4 20219.2 1002.12  12
   1 -12   4 21872.8 1924.22   1
  -1 -12  -4 21089.8 1054.59   5
   1 -12   5 10670.8 688.216  12
  -1 -12  -5 10860.4 726.179   5
   1 -12   5 10701.3 682.039   6
   1 -12   6 7127.35 537.025   6
   1 -12   6 7372.69 565.030  12
  -1 -12  -6 7197.11 577.095   5
   1 -12   7 33955.9 1365.93   6
   1 -12   7 36289.2 1442.38  10
  -1 -12  -7 34180.3 1453.99   5
   1 -12   7 34709.2 1428.14  12
   1 -12   8 3674.21 386.182  12
   1  12   8 3691.01 338.433   9
   1 -12   8 3436.39 323.337   6
   1 -12   8 3634.56 371.332  10
  -1 -12  -8 3752.12 378.508   5
   1 -12   9 31440.8 1169.59  10
  -1 -12  -9 27950.6 1130.95   5
   1 -12   9 30935.9 1159.27  12
  -1 -12 -10 29.4889 79.3447   5
   1 -12  10 10.5497 78.8888  10
   1 -12  10 6.32617 90.8416  12
   1 -13 -10 1173.24 178.987   5
  -1 -13  10 1315.03 176.500  12
   1 -13  -9 8669.86 561.955   5
  -1 -13   9 8965.39 511.044   6
  -1 -13   9 9343.42 541.228  12
  -1 -13   8 232.839 148.783   6
  -1 -13   8 271.624 156.822  12
   1 -13  -8 264.342 184.946   5
  -1 -13   7 29.1045 154.849   6
  -1 -13   7 318.710 158.119  12
   1 -13  -7 289.943 169.978   5
   1 -13  -7 94.2522 115.903   4
  -1 -13   6 14951.3 825.795   6
   1 -13  -6 14052.5 832.688   5
  -1 -13   6 14305.3 770.541  12
   1 -13  -6 14976.3 832.620   4
  -1 -13   5 10770.2 694.192   6
  -1 -13   5 10366.7 634.377  12
   1 -13  -5 10808.9 703.979   5
   1 -13  -5 10064.1 699.069   4
  -1 -13   4 2069.62 283.200  12
   1 -13  -4 2506.22 321.802   5
   1 -13  -4 2160.14 327.160   4
  -1 -13   4 2444.79 334.079   6
   1 -13  -3 2860.60 331.406   5
  -1 -13   3 2884.83 345.462   6
   1 -13  -3 2086.93 329.820   4
  -1 -13   2 18313.6 927.681   6
   1 -13  -2 19635.8 1030.61   4
   1 -13  -2 18432.1 905.775   5
   1 -13  -2 16742.1 941.787   6
  -1 -13   2 18806.9 1789.82   1
   1 -13  -1 56280.1 1982.79   5
  -1 -13   1 55206.4 2009.18   6
   1 -13  -1 62514.6 3449.47   1
   1 -13  -1 57848.2 2106.99   6
  -1 -13   1 59946.7 3394.19   1
  -1 -13   1 58591.5 2024.19   5
  -1 -13   0 62.4203 243.352   1
  -1 -13   0 224.382 141.254   6
   1 -13   0 622.506 204.430   6
   1 -13   0 360.589 280.712   1
  -1 -13   0 467.448 166.495   5
   1 -13   1 16436.8 1645.02   1
   1 -13   1 17064.9 922.650   6
  -1 -13  -1 14545.1 1596.72   1
  -1 -13  -1 16018.1 853.679   5
   1 -13   2 3394.25 394.626   6
  -1 -13  -2 3222.74 376.447   4
   1 -13   2 3676.92 788.878   1
   1 -13   2 2689.22 322.982  12
  -1 -13  -2 3383.36 371.711   5
   1 -13   3 64571.8 2296.40  12
  -1 -13  -3 69799.8 2383.04   5
   1 -13   3 67844.2 2385.27   6
  -1 -13  -4 3109.85 374.435   5
   1 -13   4 2963.87 373.723   6
   1 -13   4 2551.50 338.759  12
   1 -13   5 6681.97 540.835  12
  -1 -13  -5 7469.49 591.522   5
   1 -13   5 6905.65 550.731   6
  -1 -13  -6 4460.96 447.504   5
   1 -13   6 4304.75 433.539  12
   1 -13   6 4616.92 437.110   6
   1 -13   7 11377.2 674.196   6
   1 -13   7 13034.7 743.066  12
  -1 -13  -7 13497.2 764.218   5
   1 -13   8 459.186 142.078   6
  -1 -13  -8 480.964 165.858   5
   1 -13   8 365.573 179.689  12
   1 -13   9 2162.16 250.786  12
  -1 -13  -9 1952.71 230.721   5
   1 -13  10 8427.91 394.255  12
  -1 -13 -10 6981.65 348.261   5
  -1 -14  10 15034.6 568.395  12
   1 -14 -10 13781.0 589.807   5
   1 -14  -9 971.519 182.855   5
  -1 -14   9 1165.40 170.887  12
  -1 -14   9 1004.44 164.630   6
  -1 -14   8 10728.1 601.167   6
   1 -14  -8 10575.9 629.387   5
  -1 -14   8 10497.3 584.444  12
   1 -14  -7 1662.25 273.533   5
  -1 -14   7 1486.14 249.179   6
  -1 -14   7 1410.11 229.339  12
  -1 -14   6 588.043 201.279   6
   1 -14  -6 660.595 211.854   5
   1 -14  -6 327.922 147.031   4
  -1 -14   6 441.878 148.568  12
   1 -14  -5 33149.2 1382.72   5
  -1 -14   5 31896.9 1286.64  12
   1 -14  -5 31198.9 1381.01   4
  -1 -14   5 33022.3 1375.88   6
  -1 -14   4 1732.08 250.606   5
  -1 -14   4 1632.90 284.693   6
   1 -14  -4 1771.14 298.637   4
   1 -14  -4 2301.25 309.555   5
  -1 -14   3-3.85414 138.669   6
  -1 -14   3 44.2854 93.8999   5
   1 -14  -3 206.439 137.089   5
   1 -14  -3 228.116 177.564   4
   1 -14  -2 2617.26 315.400   5
   1 -14  -2 2449.75 361.141   4
   1 -14  -2 2343.73 320.485   6
  -1 -14   2 2274.15 286.759   5
  -1 -14   2 2685.83 337.115   6
  -1 -14   1 4756.32 426.764   5
   1 -14  -1 4497.16 459.898   6
   1 -14  -1 5507.11 528.016   4
   1 -14  -1 5340.94 437.343   5
  -1 -14   1 4567.18 427.595   6
  -1 -14   0 10987.2 668.985   5
   1 -14   0 10236.0 618.258   5
   1 -14   0 11054.1 736.616   6
  -1 -14   0 10042.9 660.298   6
  -1 -14  -1 9296.46 624.461   5
   1 -14   1 8730.20 656.843   6
  -1 -14  -2 79926.9 2725.09   4
  -1 -14  -2 78575.3 2690.10   5
   1 -14   2 83181.7 2792.46   6
   1 -14   3 2528.60 352.350   6
  -1 -14  -3 2694.23 342.784   4
  -1 -14  -3 2422.89 339.499   5
   1 -14   3 1842.49 278.440  12
  -1 -14  -4 21165.8 1058.43   5
   1 -14   4 21186.0 1062.95   6
   1 -14   4 20060.9 990.078  12
  -1 -14  -5 516.584 188.932   5
   1 -14   5 441.114 192.280   6
   1 -14   5 568.172 181.112  12
  -1 -14  -6 4163.83 411.986   5
   1 -14   6 4051.85 391.433  12
   1 -14   6 3932.96 397.103   6
   1 -14   7 5940.59 459.594  12
   1 -14   7 5572.85 439.370   6
  -1 -14  -7 6054.47 469.821   5
   1 -14   8 3465.95 297.318   6
   1 -14   8 3734.71 335.440  12
  -1 -14  -8 3672.06 328.685   5
  -1 -14  -9 8411.73 440.875   5
   1 -14   9 9385.45 465.475  12
  -1 -15   9 731.376 116.513   6
  -1 -15   9 629.443 108.746  12
   1 -15  -9 871.077 143.316   5
  -1 -15   8 25971.0 984.559   6
   1 -15  -8 24128.7 976.811   5
   1 -15  -8 22223.6 880.640   3
  -1 -15   8 24201.2 909.688  12
  -1 -15   7 1084.49 219.440   6
   1 -15  -7 1214.72 211.117   5
  -1 -15   7 885.205 165.672  12
  -1 -15   6 8003.69 557.940   6
   1 -15  -6 7413.06 527.119   5
  -1 -15   6 7274.20 477.730  12
   1 -15  -6 7503.06 511.090   4
   1 -15  -5 2617.82 324.194   5
   1 -15  -5 2626.97 322.730   4
  -1 -15   5 2979.07 309.118  12
  -1 -15   5 2860.14 357.219   6
   1 -15  -4 29697.8 1242.52   5
   1 -15  -4 28384.7 1278.69   4
  -1 -15   4 30474.8 1278.29   6
  -1 -15   4 26560.4 1111.05   5
   1 -15  -3 2077.50 324.548   4
   1 -15  -3 1940.55 272.788   5
  -1 -15   3 1908.99 252.484   5
  -1 -15   3 1491.40 269.791   6
  -1 -15   2 19446.1 963.814   6
   1 -15  -2 17415.2 885.942   5
   1 -15  -2 18157.3 994.588   4
  -1 -15   2 17196.5 862.411   5
   1 -15  -1 2270.98 333.125   6
   1 -15  -1 2866.26 313.433   5
   1 -15  -1 2626.25 376.748   4
  -1 -15   1 2882.21 348.942   6
  -1 -15   1 2492.47 306.835   5
  -1 -15   0 30170.6 1258.90   5
  -1 -15   0 28820.1 1266.71   6
   1 -15   0 28845.1 1330.42   6
  -1 -15  -1 3847.87 419.708   4
   1 -15   1 3096.23 396.038   6
  -1 -15  -1 3057.62 362.245   5
  -1 -15  -2 55.0198 134.184   4
  -1 -15  -2 227.314 161.466   5
   1 -15   2 26.6582 182.904   6
  -1 -15  -3 2228.92 298.258   4
  -1 -15  -3 1973.82 305.735   5
   1 -15   3 2374.77 358.038   6
   1 -15   3 2012.84 265.611  12
   1 -15   4 15718.8 810.662  12
  -1 -15  -4 16514.9 891.172   5
   1 -15   4 18019.9 948.227   6
   1 -15   5 4571.93 437.968   6
   1 -15   5 3786.72 364.852  12
  -1 -15  -5 4183.76 412.277   5
   1 -15   6 8453.29 565.253   6
   1 -15   6 7405.98 497.853  12
  -1 -15  -6 8016.96 551.596   5
  -1 -15  -7 452.340 151.521   5
   1 -15   7 256.495 131.505  12
   1 -15   7 386.686 145.250   6
   1 -15   8 12913.7 568.368  12
  -1 -15  -8 11882.6 572.263   5
   1 -15   8 11542.6 528.988   6
  -1 -16   8 406.885 119.474   6
   1 -16  -8 345.998 104.915   5
   1 -16  -7 10527.4 557.477   5
  -1 -16   7 9773.46 475.529  12
   1 -16  -6 3700.38 339.917   5
  -1 -16   6 4043.85 376.734   6
   1 -16  -6 3564.25 306.684   4
  -1 -16   6 3241.33 270.337  12
   1 -16  -5 11906.5 666.715   5
   1 -16  -5 11782.8 661.006   4
  -1 -16   5 12502.9 703.500   6
   1 -16  -4 1732.81 250.955   5
  -1 -16   4 1764.55 289.119   6
   1 -16  -4 2129.60 291.188   4
  -1 -16   3 6643.85 450.610   5
   1 -16  -3 6663.63 485.510   5
   1 -16  -3 6778.57 544.907   4
  -1 -16   3 6832.16 534.192   6
  -1 -16   2 12856.9 752.967   6
  -1 -16   2 12243.6 673.114   5
   1 -16  -2 12706.3 782.581   4
   1 -16  -2 12886.9 703.876   5
  -1 -16   1 13972.9 792.984   6
   1 -16  -1 14161.6 845.772   4
   1 -16  -1 14341.6 741.468   5
  -1 -16   1 13509.6 736.949   5
  -1 -16   0 5022.74 471.961   4
   1 -16   0 5443.22 504.058   4
  -1 -16   0 4680.37 417.562   5
  -1 -16   0 5440.53 451.378   6
   1 -16   0 5122.03 479.573   6
  -1 -16  -1 595.192 199.517   4
   1 -16   1 617.474 226.548   6
  -1 -16  -1 746.824 183.658   5
  -1 -16  -2 7000.31 522.255   5
   1 -16   2 7435.35 592.483   6
  -1 -16  -2 6140.36 486.766   4
   1 -16   3 6588.63 559.237   6
  -1 -16  -3 7146.75 534.465   5
  -1 -16  -4 30032.5 1260.90   5
   1 -16   4 31586.7 1339.06   6
   1 -16   5 147.936 172.489   6
  -1 -16  -5 41.8192 132.212   5
   1 -16   6 4238.41 375.473   6
  -1 -16  -6 4257.04 361.048   5
  -1 -16  -7 6285.56 394.549   5
   1 -16   7 7003.28 414.833   6
   1 -16   8 1051.32 135.879  15
  -1 -16  -8 1102.42 129.111   5
  -1 -17   7 1389.66 177.746   6
   1 -17  -7 807.628 113.086   3
   1 -17  -7 1163.46 154.849   5
   1 -17  -6 119.325 88.7333   5
  -1 -17   6 23.8864 112.755   6
  -1 -17   5 456.540 162.424   6
   1 -17  -5 488.897 123.917   4
   1 -17  -5 521.249 146.193   5
  -1 -17   4 6267.62 464.847   6
   1 -17  -4 5773.28 429.373   4
   1 -17  -4 5959.08 416.463   5
   1 -17  -3 5875.29 467.504   4
  -1 -17   3 6088.26 469.162   6
   1 -17  -3 6039.42 423.701   5
  -1 -17   3 5419.19 364.990   5
  -1 -17   2-104.866 155.865   6
   1 -17  -2 155.409 156.413   4
   1 -17  -2 26.6610 105.587   5
  -1 -17   2 212.645 108.535   5
  -1 -17   1 18310.6 910.231   4
  -1 -17   1 16457.6 788.462   5
   1 -17  -1 17129.9 781.026   5
   1 -17  -1 16840.5 903.395   4
  -1 -17   1 16948.2 850.497   6
  -1 -17   0 29.1054 129.456   4
  -1 -17   0 144.862 127.926   5
   1 -17   0 114.210 152.767   4
   1 -17   1 23948.3 1104.61   6
  -1 -17  -1 23619.9 1046.43   4
   1 -17   1 24879.4 1134.47   4
  -1 -17  -1 23680.8 1033.72   5
  -1 -17  -2 1284.16 225.151   5
   1 -17   2 1146.82 247.419   4
  -1 -17  -2 1102.92 193.113   4
   1 -17   2 1170.79 234.076   6
   1 -17   3 11405.9 694.860   6
  -1 -17  -3 10974.5 630.438   5
  -1 -17  -4 2822.25 298.007   5
   1 -17   4 3158.94 350.997   6
  -1 -17  -5 16982.1 781.350   5
   1 -17   5 19284.6 860.284   6
   1 -17   6 358.437 134.764   6
  -1 -17  -6 782.295 147.355   5
   1 -17   7 7916.11 393.309  15
  -1 -17  -7 6526.12 343.863   5
  -1 -18   6 79.0953 76.3099   6
   1 -18  -6-90.1666 64.5662   5
   1 -18  -5 11290.6 513.418   5
  -1 -18   5 11935.6 569.483   6
   1 -18  -4 205.697 91.4680   4
   1 -18  -4 197.158 92.4440   5
  -1 -18   4 113.569 109.742   6
   1 -18  -3 12666.7 644.563   4
  -1 -18   3 13268.4 680.682   4
   1 -18  -3 13193.2 597.406   5
  -1 -18   3 12656.7 649.715   6
   1 -18  -2 2952.12 310.843   4
  -1 -18   2 2816.58 301.740   4
  -1 -18   2 2716.00 287.507   6
  -1 -18   1 5754.03 374.604   5
  -1 -18   1 5439.45 388.717   6
  -1 -18   1 5735.56 431.796   4
   1 -18  -1 5694.27 439.779   4
  -1 -18   0 4667.49 374.850   4
   1 -18   0 4632.42 404.147   4
  -1 -18   0 4787.35 352.622   5
   1 -18   1 35.4043 131.971   4
  -1 -18  -1 6.58938 90.7726   5
  -1 -18  -1 23.2822 91.1044   4
  -1 -18  -2 2881.68 279.915   5
   1 -18   2 3014.59 270.036  15
  -1 -18  -2 2506.43 231.567   4
   1 -18   2 3142.42 324.226   4
   1 -18   3 3383.69 320.923   6
  -1 -18  -3 2948.45 273.707   5
   1 -18   3 3008.13 308.269   4
   1 -18   4 2582.45 260.141   4
  -1 -18  -4 2507.85 240.447   5
   1 -18   4 2024.80 244.844   6
  -1 -18  -5 3288.86 256.112   5
   1 -18   5 3320.90 260.706   4
  -1 -18  -6 1055.47 118.878   5
   1 -18   6 972.314 124.132  15
  -1 -19   5 1114.76 124.878   4
  -1 -19   4 6492.34 357.261   4
  -1 -19   3 1482.20 180.528   4
   1 -19  -3 1500.63 166.283   4
   1 -19  -2 5436.03 351.100   4
  -1 -19   2 5424.95 355.044   4
   1 -19  -1 1650.38 206.275   4
  -1 -19   1 1862.17 206.875   4
  -1 -19   0 3001.40 225.705   5
  -1 -19   0 2925.86 239.747   4
   1 -19   0 3149.56 282.687   4
  -1 -19  -1 152.364 69.8062   4
  -1 -19  -1 95.5218 69.6589   5
   1 -19   1 32.4448 94.7818   4
  -1 -19  -2 59.2821 70.2155   5
   1 -19   2 60.1582 88.6723   4
   1 -19   3 8568.87 437.784   4
  -1 -19  -3 8510.26 410.080   5
  -1 -19  -4 211.700 69.8433   5
   1 -19   4 209.282 77.6139   4
   1 -20   0 12332.1 499.939   4
   1 -20   1 317.500 79.5515   4
  -2   0  14 3736.31 264.901  13
  -2   0  13-27.9024 117.576  13
  -2   0  12 40360.9 1569.12  13
  -2   0  11 38.6454 153.011  13
   2   0 -11 77.4086 156.613   5
   2   0 -10 48140.2 1911.43   5
  -2   0  10 47573.5 1867.74   9
   2   0  -9 68.5311 130.632   5
  -2   0   9-202.864 142.303   9
   2   0  -7-148.123 161.277  16
   2   0  -6 7294.43 659.187  16
   2   0  -5-30.8308 119.235  16
  -2   0   5-9.49790 161.806   1
   2   0  -4 78061.7 2522.23  16
  -2   0   4 81143.5 2764.96   1
  -2   0   3-82.8493 112.530   1
   2   0  -3 57.6761 76.5967  16
   2   0  -2 22708.1 754.037  16
   2   0  -2 23013.9 982.879   2
  -2   0   2 22785.9 848.877   1
   2   0  -1-11.8952 144.074   2
   2   0   0 378.245 160.418  14
   2   0   1 69.4026 132.644  14
   2   0   2 61226.6 2402.68   2
   2   0   2 58906.6 2169.35  14
  -2   0  -3-32.4849 211.233  16
  -2   0  -4 568542. 16047.6  16
  -2   0  -5-136.190 261.361  16
  -2   0  -6 13635.4 1255.61  16
  -2   0  -7-165.985 238.198  16
  -2   0  -8 21889.2 1864.11  16
   2   0   8 21675.4 1083.52   9
   2   0   8 22967.8 1130.91  13
   2   0   9 48.6314 155.123  13
   2   0   9 33.3447 125.661  10
   2   0   9 63.0994 140.582   9
   2   0  10 13510.6 782.699  10
   2   0  10 14100.0 872.252  13
   2   0  10 13958.3 836.889   9
   2   0  11 57.7218 90.1831  10
   2   0  11-166.934 155.824   9
   2   0  11 12.4157 163.096  13
   2   0  12 42.5506 123.793  13
   2   0  13 141.340 78.2760  13
  -2   1  14 77.4537 80.6391  13
  -2  -1  14 101.509 70.0113  13
  -2   1  13 9190.37 540.535  13
  -2  -1  13 8749.00 529.074  13
   2  -1 -12 5078.17 459.153   5
  -2  -1  12 4820.35 441.737  13
  -2   1  12 4803.47 438.397  13
   2  -1 -11 8063.77 645.476   5
  -2  -1  11 7317.90 480.741  12
  -2  -1  11 7525.26 578.198  13
   2   1 -11 8382.93 635.800   5
  -2   1  11 6962.06 571.350  13
  -2   1  11 7290.33 582.039   9
   2   1 -10 5162.70 499.075   5
   2  -1 -10 6035.50 553.551   5
  -2  -1  10 5629.10 507.689   9
  -2  -1  10 5755.22 443.503  12
  -2   1  10 5289.69 513.917   9
  -2   1   9 48025.5 1808.96   9
   2   1  -9 42428.6 2791.72  14
   2  -1  -9 47465.7 1827.62   5
  -2  -1   9 43972.7 1648.11  12
   2  -1  -9 43963.2 2878.17  14
   2   1  -9 44188.1 1747.42   5
  -2  -1   9 45382.2 1758.56   9
   2   1  -8 26911.7 1981.63  14
   2  -1  -8 24788.6 1686.96  16
   2   1  -7 4997.21 588.010  16
   2  -1  -7 5174.49 647.230  16
  -2  -1   6 32370.4 1796.04   1
   2   1  -6 33459.4 1545.84  16
   2  -1  -6 32209.3 1630.37  16
  -2  -1   5 11678.1 891.289   1
   2  -1  -5 10672.6 748.545  16
   2   1  -5 10393.6 674.040  16
   2   1  -4 96062.1 2996.69  16
  -2  -1   4 101035. 3347.33   1
   2   1  -4 108092. 3590.94  14
   2  -1  -4 97424.2 3139.78  16
   2   1  -3 3080.67 216.238  16
   2  -1  -3 3164.52 309.715  16
   2   1  -3 3199.30 268.868   2
  -2  -1   3 3049.92 340.467   1
  -2  -1   2 52469.2 1698.87   1
   2  -1  -2 50525.3 1843.15  14
   2  -1  -2 52131.3 1671.45  16
   2   1  -2 50204.2 1694.81   2
  -2  -1   1 39612.8 1261.79   1
   2   1  -1 41121.4 1485.94   2
   2  -1  -1 38568.1 1544.30   2
   2  -1  -1 39790.3 1431.03  14
  -2  -1   0 100367. 2799.00  16
   2  -1   0 93248.5 2663.14   1
   2  -1   0 95366.8 2937.70  14
   2   1   0 103280. 3169.01   2
  -2  -1  -1 107766. 3249.16  16
   2  -1   1 108024. 3152.37   1
   2  -1   1 103583. 3266.24  14
   2  -1   2 65144.1 2326.94  14
   2  -1   2 66621.8 2558.10   2
   2  -1   2 70067.2 2310.87   1
  -2  -1  -2 67233.1 2359.44  16
   2   1   2 66814.1 2422.17  14
   2  -1   3 166117. 5450.60   2
   2  -1   3 170248. 5170.40   1
  -2  -1  -3 166761. 5242.27  16
   2  -1   4 38433.3 1832.86   1
  -2   1  -4 41905.0 2016.14  16
  -2  -1  -4 39015.4 1902.65  16
  -2  -1  -5 1177.57 353.680  16
  -2   1  -5 1448.80 405.065  16
  -2   1  -6 34808.0 2066.14  16
  -2  -1  -6 32682.0 2009.47  16
  -2   1  -7 42675.1 2499.99  16
  -2  -1  -7 41600.8 2505.45  16
  -2  -1  -8 29151.4 2206.52  16
   2   1   8 28759.0 1299.37   9
   2  -1   8 28063.5 1280.02   9
   2  -1   8 29852.2 1334.30  13
  -2   1  -8 28966.9 2151.57  16
   2   1   8 29360.7 1332.99  13
   2  -1   9 3746.47 426.870   9
   2  -1   9 4616.82 490.483  13
   2   1   9 4377.86 474.394  13
   2  -1   9 4515.55 455.055  10
   2   1   9 3396.36 378.942  10
   2   1   9 4316.68 462.024   9
   2   1  10 19428.7 1041.01  13
   2   1  10 17901.2 986.392   9
   2  -1  10 16796.9 944.345   9
   2  -1  10 19450.7 1034.35  13
   2  -1  10 17904.0 943.715  10
   2  -1  11 109.531 107.013  10
   2  -1  11-137.602 185.952  13
   2   1  11 141.184 162.807  13
   2  -1  11 47.8974 105.457   9
   2   1  11-61.6029 147.881   9
   2   1  12 12636.7 655.076  13
   2  -1  12 12064.9 641.945  13
   2  -1  13 52.7751 57.1721  13
   2   1  13 152.467 85.3421  13
  -2  -2  14 3171.54 211.691  10
  -2  -2  14 3431.70 223.370  13
  -2  -2  13 9686.96 536.679  13
  -2   2  13 8791.97 530.934  13
  -2   2  12 4989.19 437.471  13
  -2  -2  12 5134.43 435.772  13
  -2  -2  12 4405.21 326.267  12
   2  -2 -12 5343.92 465.227   5
   2  -2 -11 125.218 161.064   5
  -2   2  11 473.713 203.867  13
  -2  -2  11 561.880 211.467  13
  -2  -2  11 507.667 150.164  12
  -2   2  11 326.404 186.735   9
   2   2 -10 347.089 157.432   5
   2  -2 -10 261.176 188.641   5
  -2   2  10 336.821 178.794   9
  -2  -2  10 243.010 133.467  12
   2   2  -9 3373.11 379.641   5
   2   2  -9 2815.29 649.988  14
  -2  -2   9 3734.74 388.839   9
  -2   2   9 3364.83 394.164   9
  -2  -2   9 3586.71 360.640  12
   2  -2  -9 3677.27 423.307   5
   2  -2  -8 4793.99 734.124  16
   2   2  -8 4482.20 773.480  14
  -2  -2   7 33455.8 1996.20   1
   2   2  -7 29842.3 1588.80  16
   2   2  -7 31010.5 2016.96  14
   2  -2  -7 32825.4 1871.05  16
   2   2  -6 6249.50 786.740  14
   2   2  -6 5509.01 535.779  16
   2  -2  -6 4834.61 609.159  16
  -2  -2   6 6014.06 730.591   1
   2   2  -5 18871.8 1269.03  14
   2   2  -5 18324.4 933.199  16
   2  -2  -5 17058.7 1072.75  16
  -2  -2   5 17294.6 1157.99   1
  -2  -2   4 63124.2 2452.17   1
   2   2  -4 66257.7 2585.10  14
   2  -2  -4 63117.7 2331.38  16
   2   2  -4 66031.7 2113.77  16
   2  -2  -3 78490.4 2682.37  16
   2   2  -3 81945.5 2865.18  14
   2   2  -3 84182.3 2403.68  16
  -2  -2   3 79667.1 2729.50   1
   2   2  -2 60618.3 2109.92  14
   2  -2  -2 60351.2 2017.25  16
   2  -2  -2 55497.5 2020.59  14
   2   2  -2 57703.2 1805.61   2
  -2  -2   2 58374.6 1979.64   1
   2   2  -1 923342. 25931.8   2
   2  -2  -1 963712. 25861.8  14
   2  -2  -1 986149. 25998.4  16
  -2  -2   1 999999. 25655.3  16
  -2  -2   0 217043. 5812.82  16
   2  -2   0 208619. 5838.65  14
   2  -2   0 204050. 5731.51   1
   2  -2   1 2302.01 270.133   1
  -2  -2  -1 2276.09 285.425  16
   2  -2   1 2100.37 356.507   2
   2  -2   1 2450.29 266.786  14
   2   2   2 1413.83 287.344  14
   2  -2   2 1031.81 218.953   1
  -2  -2  -2 1040.05 238.494  16
   2  -2   2 1228.69 314.406   2
   2  -2   3 35460.0 1576.72   1
   2  -2   3 33435.3 1711.61   2
  -2  -2  -3 33898.6 1582.94  16
   2  -2   4 6562.72 673.499   1
  -2  -2  -4 6327.59 694.939  16
  -2   2  -5 27157.5 1703.36  16
  -2  -2  -5 24888.3 1603.66  16
   2  -2   5 25141.2 1554.99   1
  -2   2  -6 9319.86 1039.90  16
  -2  -2  -6 9341.75 1026.67  16
  -2   2  -7 7216.16 974.333  16
  -2  -2  -7 7309.86 988.189  16
   2   2   8 188.638 143.172  13
   2   2   8 94.2940 113.774   9
  -2  -2  -8 16.3394 260.264  16
   2  -2   8 53.2655 127.335  13
   2  -2   8 274.946 134.550   9
   2  -2   9 13198.2 821.733  10
   2   2   9 12641.6 809.911   9
   2  -2   9 12754.0 787.714   9
   2   2   9 13876.2 857.480  13
   2  -2   9 12963.0 827.498  13
   2  -2  10 7789.64 595.558  10
   2   2  10 7924.78 624.874  13
   2  -2  10 7156.80 591.038  13
   2  -2  10 7219.28 558.853   9
   2   2  10 7488.09 598.071   9
   2  -2  11 38794.5 1508.79  10
   2   2  11 36526.3 1531.60   9
   2  -2  11 40768.9 1573.86  13
   2   2  11 43328.7 1613.10  13
   2   2  12 935.576 189.856  13
   2   2  12 568.702 152.706   9
   2  -2  12 658.667 167.587  13
   2  -2  12 723.291 150.191  10
   2   2  13 15218.2 608.339  13
  -2   3  14 423.585 96.9598  13
  -2  -3  14 496.535 90.2005  10
  -2   3  13 23014.9 962.484  13
  -2  -3  13 24494.7 948.943  13
  -2  -3  12 227.496 143.936  13
   2  -3 -12 336.342 175.545   5
  -2   3  12 216.023 150.252  13
  -2  -3  12 327.536 115.614  12
  -2   3  11 30616.9 1431.26   9
  -2  -3  11 34821.1 1414.70  13
  -2  -3  11 33093.6 1295.75  12
  -2   3  11 33180.8 1420.48  13
   2  -3 -10 21497.5 1154.60   5
  -2  -3  10 20996.9 973.347  12
  -2   3  10 19478.3 1074.57   9
  -2   3   9 20506.7 1027.70   9
   2  -3  -9 20872.3 1087.30   5
   2   3  -9 18077.7 957.372   5
  -2  -3   9 19016.5 919.984  12
  -2  -3   8 17657.2 1548.47   1
   2  -3  -8 15924.2 1417.50  16
   2   3  -8 15213.6 1459.18  14
   2   3  -7 61401.5 3049.03  14
   2  -3  -7 61461.7 2938.83  16
  -2  -3   7 66289.0 3097.04   1
   2   3  -6 23937.8 1604.13  14
   2   3  -6 25354.1 1279.71  16
  -2  -3   6 25383.3 1614.22   1
   2  -3  -6 24531.5 1531.23  16
   2   3  -5 80425.6 2714.89  16
   2   3  -5 83726.9 3218.91  14
   2  -3  -5 76823.2 2996.21  16
  -2  -3   5 79962.3 3145.26   1
   2   3  -4 2902.64 442.868  14
  -2  -3   4 3571.93 479.311   1
   2  -3  -4 2464.37 407.381  16
   2  -3  -3 459.900 209.591  16
  -2  -3   3 664.198 221.567   1
   2   3  -3 463.530 211.083  14
   2  -3  -2 51636.5 1884.93  14
   2  -3  -2 53021.8 1988.63  16
  -2  -3   2 51881.0 1892.86   1
   2   3  -2 52082.1 1951.30  14
   2   3  -1 33503.7 1412.75  14
  -2  -3   1 35702.3 1237.82  16
   2  -3  -1 34175.4 1239.76  14
   2  -3  -1 35336.0 1491.91  16
   2  -3   0 41992.0 1458.68   1
  -2  -3   0 40974.5 1498.48  16
   2   3   0 42687.4 1661.69  14
   2  -3   0 41281.6 1375.64  14
   2  -3   1 54767.3 1770.83  14
   2  -3   1 58092.5 1934.04   1
   2   3   1 52869.2 2066.81  14
  -2  -3  -1 54376.9 1972.42  16
   2  -3   1 52789.6 2148.67   2
   2  -3   2 6773.46 560.497   1
   2  -3   2 6480.22 636.062   2
   2   3   2 6659.93 623.652  14
  -2  -3  -2 6406.83 567.557  16
  -2  -3  -3 113423. 3896.96  16
   2  -3   3 114775. 4038.88   2
   2  -3   3 118982. 3915.27   1
  -2  -3  -4 6820.21 728.905  16
   2  -3   4 6954.09 737.561   1
   2  -3   4 6366.91 716.577   2
  -2  -3  -5 112067. 4309.11  16
   2  -3   5 116183. 4327.00   1
   2  -3   6 4465.74 706.413   1
  -2   3  -6 5169.30 793.091  16
  -2  -3  -6 4695.47 764.628  16
  -2  -3  -7 59431.7 3237.00  16
  -2   3  -7 61463.3 3195.60  16
   2  -3   8 141.275 131.275  13
   2   3   8 95.1034 151.386  13
   2   3   8 80.8980 125.639   9
  -2  -3  -8 437.441 352.903  16
  -2   3  -8 289.855 287.858  16
   2  -3   9 9366.05 675.405  13
   2   3   9 9427.84 683.659   9
   2  -3   9 10260.1 723.018  10
   2   3   9 9590.51 702.374  13
   2  -3  10 8077.67 622.935  10
   2  -3  10 7257.68 580.651  13
   2   3  10 8103.74 621.721   9
   2   3  10 7985.83 621.431  13
   2   3  11 2183.12 318.321  13
   2  -3  11 2263.14 302.553  10
   2   3  11 2115.98 303.343   9
   2  -3  11 1894.11 280.575  13
   2  -3  12 3339.27 294.335  10
   2  -3  12 3707.91 316.520  13
   2   3  12 3853.01 338.442  13
   2   3  12 3356.92 305.515   9
   2   3  13 4843.20 277.936  13
  -2   4  14 1700.18 157.833  13
  -2  -4  14 1834.28 156.206  10
   2  -4 -13 1582.05 202.791   5
  -2  -4  13 1909.01 198.163  13
  -2   4  13 1726.13 228.459  13
   2  -4 -12 28230.9 1219.94   5
  -2  -4  12 27823.5 1125.62  13
  -2  -4  12 26080.1 1024.23  12
  -2   4  12 27597.8 1152.64  13
  -2   4  11 203.943 167.361  13
  -2   4  11-137.975 171.826   9
  -2  -4  11 96.6808 102.602  12
  -2  -4  11 1.54692 136.588  13
   2  -4 -11 75.5075 174.917   5
  -2   4  10 8173.96 627.630   9
   2  -4 -10 7383.66 647.901   5
  -2  -4  10 7503.43 528.402  12
  -2  -4  10 6864.09 544.895  13
   2   4  -9 4750.97 844.669  14
   2  -4  -9 4187.54 480.829   5
  -2  -4   9 4442.06 405.480  12
  -2   4   9 4327.52 445.121   9
  -2  -4   8 81859.2 3817.24   1
   2   4  -8 78988.1 3766.55  14
   2  -4  -8 70812.9 3582.45  16
   2  -4  -7 2276.53 504.192  16
   2   4  -7 2110.35 481.521  14
  -2  -4   7 2595.27 599.770   1
  -2  -4   6 41456.4 2226.03   1
   2   4  -6 42401.1 2217.62  14
   2   4  -6 41871.5 1817.60  16
   2  -4  -6 39021.3 2118.13  16
   2  -4  -5 406.959 235.072  16
  -2  -4   5 364.824 261.238   1
   2   4  -5 650.377 259.003  14
  -2  -4   4 2187.29 399.647   1
   2   4  -4 2586.55 426.322  14
   2  -4  -4 2227.47 418.251  16
   2  -4  -3 44504.9 1936.78  16
   2   4  -3 44884.0 1867.16  14
  -2  -4   3 44339.2 1888.26   1
   2   4  -2 66211.4 2391.52  14
   2  -4  -2 64910.9 2528.31  16
   2  -4  -2 68805.9 2297.30  14
  -2  -4   2 67972.2 2412.61   1
   2   4  -1 207585. 6077.34  14
   2  -4  -1 202925. 6237.61  16
   2  -4  -1 201286. 5710.82  14
  -2  -4   1 215024. 5944.90  16
   2  -4   0 265576. 7943.81   2
   2  -4   0 262906. 7260.90  14
   2   4   0 266476. 7799.80  14
  -2  -4   0 279520. 7668.59  16
   2  -4   0 285071. 7612.55   1
   2  -4   1 1973.47 380.975   2
   2  -4   1 2019.80 290.017   1
   2   4   1 1912.79 345.683  14
  -2  -4  -1 1870.02 326.158  16
   2  -4   2 66018.9 2429.68   1
  -2  -4  -2 66789.6 2506.02  16
   2  -4   2 62621.3 2558.82   2
   2   4   2 65975.9 2536.36  14
  -2  -4  -3 9846.75 862.394  16
   2  -4   3 12007.7 896.622   1
   2  -4   3 10595.3 885.446   2
  -2  -4  -4 32941.6 1861.34  16
   2  -4   4 37192.7 1877.12   1
   2  -4   4 34923.3 1851.33   2
   2  -4   5 2688.86 519.771   1
  -2  -4  -5 2795.43 577.343  16
  -2  -4  -6 86215.5 3914.15  16
   2  -4   6 88963.4 3841.94   1
  -2   4  -7 3967.13 749.538  16
  -2  -4  -7 3927.92 781.019  16
   2  -4   7 3542.16 693.600   1
   2   4   8 13136.8 818.347  13
  -2  -4  -8 13116.1 1531.01  16
  -2   4  -8 14903.4 1510.28  16
   2  -4   8 13230.2 706.249  12
   2  -4   8 11773.0 752.519  13
   2   4   8 13321.7 796.998   9
   2  -4   9 6870.29 595.668  10
   2   4   9 5754.35 530.936   9
   2   4   9 6920.58 579.761  13
   2  -4   9 6390.75 534.973  13
   2   4  10 7964.62 618.690  13
   2  -4  10 8723.21 646.264  10
   2   4  10 8063.23 609.536   9
   2  -4  10 8082.15 593.482  13
   2  -4  11 18920.0 908.871  13
   2   4  11 18796.8 931.100   9
   2   4  11 19022.6 934.096  13
   2  -4  11 19943.7 961.949  10
   2  -4  12 155.933 106.853  10
   2  -4  12 172.779 88.6049  13
   2   4  12 14.0570 110.054   9
   2   4  12-32.2742 119.390  13
  -2  -5  13 2238.43 246.395  10
   2  -5 -13 2095.09 221.039   5
  -2   5  13 2115.23 224.695  13
  -2   5  12-97.7489 138.481  13
  -2  -5  12 234.612 116.140  12
   2  -5 -12 120.779 150.133   5
  -2  -5  11 1299.63 225.075  13
  -2  -5  11 1401.79 227.104  12
  -2   5  11 1363.78 266.865  13
  -2   5  11 1212.93 259.356   9
   2  -5 -11 1421.77 304.508   5
   2  -5 -10 348.111 214.269   5
  -2   5  10 276.350 170.541   9
  -2  -5  10 253.771 134.640  13
  -2  -5  10 197.780 134.387  12
   2  -5  -9 7358.29 627.866   5
  -2   5   9 8284.34 617.370   9
  -2  -5   9 7914.58 560.424  12
  -2  -5   9 8282.47 1156.24   1
   2  -5  -8 6985.52 568.297   5
  -2  -5   8 7000.97 1002.12   1
  -2  -5   8 7055.69 511.275  12
   2   5  -8 7018.99 967.341  14
   2  -5  -8 6035.80 923.367  16
   2   5  -7 3837.72 651.951  14
  -2  -5   7 4584.53 763.738   1
   2  -5  -7 4301.30 722.041  16
   2  -5  -6 28450.1 1842.19  16
   2   5  -6 32686.6 1888.08  14
  -2  -5   6 31758.6 1957.68   1
   2  -5  -5 6336.19 774.754  16
  -2  -5   5 7522.66 826.082   1
   2   5  -5 6878.76 727.713  14
   2  -5  -4 147674. 5199.82  16
  -2  -5   4 162236. 5256.00   1
   2   5  -4 157958. 5094.58  14
   2   5  -3 16003.7 990.297  14
  -2  -5   3 16979.3 1073.49   1
   2  -5  -3 14992.7 1122.51  16
   2  -5  -2 176496. 5182.74  14
  -2  -5   2 174139. 5451.08   1
   2  -5  -2 190280. 5751.47  16
   2   5  -2 169038. 5335.58  14
   2  -5  -1 9758.32 888.677  16
   2   5  -1 10153.4 722.418  14
  -2  -5   1 10195.2 710.326  16
   2  -5  -1 9217.12 456.837  14
  -2  -5   0 101430. 3401.57  16
   2  -5   0 101437. 3333.53   1
   2   5   0 105381. 3479.67  14
   2  -5   1 38803.9 1714.84   1
   2   5   1 41448.4 1790.83  14
   2  -5   1 39770.2 1871.47   2
  -2  -5  -1 41345.6 1800.83  16
   2  -5   2 66990.9 2783.75   2
   2  -5   2 73080.4 2700.26   1
   2   5   2 70614.0 2806.79  14
  -2  -5  -2 76991.7 2875.95  16
  -2  -5  -3 5939.01 716.060  16
   2  -5   3 5514.84 628.511   1
   2  -5   3 5334.02 632.798   2
  -2  -5  -4 571.132 310.439  16
   2  -5   4 371.754 225.988   2
   2  -5   4 976.037 351.077   1
  -2  -5  -5 4430.86 730.666  16
   2  -5   5 4959.27 714.648   1
  -2  -5  -6 10550.1 1200.80  16
   2  -5   6 10786.9 1138.91   1
  -2  -5  -7 14920.3 1577.20  16
   2   5   7 14617.3 811.211   9
  -2   5  -7 15267.3 1515.68  16
   2  -5   7 13667.4 730.319  12
   2   5   7 14687.1 832.304  13
   2  -5   7 14553.4 1431.12   1
   2  -5   8 31473.3 1388.46  10
   2   5   8 28252.0 1292.35   9
   2  -5   8 28310.0 1199.96  12
   2  -5   8 27091.8 1240.27  13
   2   5   8 30899.1 1350.84  13
   2   5   9 23734.8 1179.99   9
   2   5   9 26147.7 1237.49  13
   2  -5   9 27039.3 1278.08  10
   2  -5   9 25873.9 1095.63  12
   2  -5   9 23991.6 1139.62  13
   2  -5  10 17831.8 954.802  10
   2   5  10 16782.4 922.706  13
   2   5  10 16384.9 903.282   9
   2  -5  10 16016.0 854.158  13
   2   5  11 232.680 149.479  13
   2  -5  11 429.187 183.598  10
   2   5  11 249.193 161.334   9
   2  -5  11 302.017 131.721  13
   2  -5  12 11717.2 577.066  10
   2   5  12 11081.0 551.348  13
   2   5  12 10463.7 553.188   9
  -2  -6  13 1274.96 137.128  12
   2  -6 -13 1390.54 169.996   5
  -2  -6  13 1680.71 202.554  10
  -2   6  13 1620.17 184.551  13
  -2  -6  12 26786.7 1016.78  12
  -2   6  12 26661.7 1089.76  13
   2  -6 -12 26740.3 1154.10   5
   2  -6 -11 6354.73 557.668   5
  -2   6  11 5657.16 466.087  13
  -2   6  11 5105.03 475.842   9
  -2  -6  11 6064.43 443.487  12
   2  -6 -10 5835.96 565.919   5
  -2   6  10 5777.80 498.158  13
  -2   6  10 6133.67 541.046   9
  -2  -6  10 6091.30 476.076  12
  -2  -6   9 343.542 149.935  12
  -2   6   9 506.842 184.112   9
   2  -6  -9 172.315 170.860   5
  -2  -6   9 310.782 120.141   6
   2  -6  -8 49813.1 1925.69   5
  -2  -6   8 52371.5 1831.75  12
  -2  -6   8 51475.4 2993.99   1
  -2   6   8 48471.1 1833.55   9
  -2  -6   7 7221.22 986.682   1
   2   6  -7 7637.02 937.406  14
   2  -6  -7 8784.75 1112.71  16
   2   6  -6 1262.55 367.825  14
  -2  -6   6 1929.70 464.276   1
  -2  -6   5 59886.5 2779.36   1
   2  -6  -5 54743.8 2742.74  16
   2   6  -5 59523.7 2588.91  14
   2  -6  -4 24990.4 1621.88  16
   2   6  -4 26287.4 1436.99  14
  -2  -6   4 25359.4 1541.29   1
   2   6  -3 87302.3 3127.99  14
  -2  -6   3 87468.6 3318.06   1
   2  -6  -3 89601.7 3541.74  16
  -2  -6   2 20254.8 1218.20   1
   2  -6  -2 19214.1 913.968  14
   2  -6  -2 20552.4 1389.24  16
   2   6  -2 20783.9 1135.74  14
   2  -6  -1 10370.7 963.563  16
  -2  -6   1 10081.8 792.740  16
   2   6  -1 9488.97 746.857  14
   2   6   0 30492.9 1498.39  14
  -2  -6   0 29023.5 1505.85  16
   2  -6   0 31877.4 1496.59   1
   2   6   1 23416.5 1287.03  14
   2  -6   1 21868.0 1225.40   1
  -2  -6  -1 23466.0 1342.82  16
   2  -6   1 20989.9 1333.19   2
   2  -6   2 78924.4 3219.96   2
  -2  -6  -2 87816.1 3357.17  16
   2   6   2 85717.9 3243.33  14
   2  -6   2 86663.9 3191.18   1
   2  -6   3 2011.67 405.803   1
   2  -6   3 1699.45 372.297   2
  -2  -6  -3 1982.31 468.997  16
  -2  -6  -4 104735. 4211.29  16
   2  -6   4 110116. 4095.60   1
   2  -6   4 99596.8 3842.48   2
  -2  -6  -5 62.8245 294.851  16
   2  -6   5 258.464 306.729   1
   2  -6   6 28728.0 1972.05   1
  -2  -6  -6 27154.0 2096.80  16
  -2  -6  -7-46.0044 290.387  16
   2  -6   7 343.255 428.055   1
   2  -6   7 231.564 164.900  10
  -2   6  -7-261.859 299.136  16
   2   6   7 288.148 136.787   9
   2   6   7 129.708 146.137  13
   2  -6   7 114.816 103.678  12
   2  -6   8 1111.26 273.079  10
   2  -6   8 1189.02 220.765  12
   2   6   8 1301.22 288.903  13
   2   6   8 922.083 227.150   9
   2   6   9 25675.6 1219.70   9
   2   6   9 27314.4 1255.17  13
   2  -6   9 27097.5 1153.13  12
   2  -6   9 26691.5 1280.91  10
   2   6  10 10327.6 684.581   9
   2   6  10 10620.1 684.123  13
   2  -6  10 10815.6 713.029  10
   2  -6  10 10517.3 587.122  12
   2   6  11 7827.23 535.486   9
   2  -6  11 9447.66 593.259  10
   2   6  11 8717.22 542.322  13
   2   6  12 113.444 78.1218  13
   2  -6  12 90.4224 89.8396  10
   2   6  12-107.053 104.963   9
   2  -7 -13 11972.9 544.203   5
  -2  -7  13 13035.6 506.104  12
  -2   7  12 135.797 97.2396  13
   2  -7 -12 123.597 134.648   5
  -2  -7  12 76.3345 90.6957  12
  -2  -7  11 18693.6 840.605  12
   2  -7 -11 17677.0 953.691   5
  -2   7  11 15599.1 862.041   9
  -2   7  11 17837.2 858.342  13
  -2   7  10 250.362 159.191   9
   2  -7 -10 187.566 191.492   5
  -2   7  10 320.965 170.481  13
  -2  -7  10 145.342 134.410  12
  -2  -7   9 79086.6 2604.71  12
   2  -7  -9 75913.5 2742.01   5
  -2   7   9 79894.2 2684.91   9
  -2  -7   9 75817.9 2527.51   6
  -2  -7   8 1945.45 283.396  12
  -2  -7   8 1534.54 470.186   1
   2  -7  -8 1889.47 599.170  16
   2  -7  -8 2361.13 349.150   5
  -2   7   8 2151.17 305.533   9
   2  -7  -7 20990.9 1849.71  16
  -2  -7   7 21631.0 1776.60   1
   2  -7  -6 19156.9 1678.49  16
  -2  -7   6 21538.2 1664.72   1
  -2  -7   5 13434.3 1206.03   1
   2  -7  -5 12047.8 1218.77  16
   2   7  -5 13500.8 1053.69  14
  -2  -7   4 1690.34 421.542   1
   2  -7  -4 1788.00 471.090  16
   2   7  -4 1865.31 378.680  14
   2  -7  -3 51871.5 2622.61  16
   2   7  -3 54826.4 2225.30  14
   2  -7  -3 51979.7 2093.21  14
  -2  -7   3 55784.6 2483.99   1
   2   7  -2 1055.68 269.792  14
  -2  -7   2 1124.67 331.227   1
   2  -7  -2 766.283 374.585  16
  -2  -7   1 218489. 6788.38  16
   2  -7  -1 218768. 7174.10  16
   2   7  -1 208769. 6495.51  14
   2   7   0 13628.1 944.942  14
  -2  -7   0 12781.8 1008.99  16
   2  -7   0 12987.6 974.395   1
  -2  -7  -1 13524.3 1079.03  16
   2  -7   1 12872.7 1069.20   2
   2   7   1 14510.8 1018.88  14
   2  -7   1 13987.3 1011.08   1
   2  -7   2 16818.8 1241.98   2
   2  -7   2 17190.5 1195.30   1
  -2  -7  -2 19023.1 1366.48  16
   2  -7   3 42223.5 2119.39   1
  -2  -7  -3 42186.2 2290.02  16
   2  -7   3 38488.7 2029.98   2
   2  -7   4 597.014 265.878   1
  -2  -7  -4 646.159 302.152  16
  -2  -7  -5 82749.6 3999.45  16
   2  -7   5 91815.3 3894.45   1
   2  -7   6 2621.57 612.901   1
  -2  -7  -6 2780.73 691.634  16
   2  -7   7 53140.3 1988.99  10
   2  -7   7 54175.0 3033.74   1
   2  -7   7 52305.8 1855.84  12
  -2  -7  -7 52246.3 1888.72   5
   2   7   7 48205.3 1885.37  13
  -2  -7  -7 47155.3 3156.29  16
   2   7   7 53112.7 1944.78   9
   2   7   8 3193.87 381.421   9
   2  -7   8 2981.88 397.283  10
  -2  -7  -8 2919.71 329.863   5
   2   7   8 2965.95 366.256  13
   2  -7   8 3072.81 343.461  12
   2  -7   9 4536.51 472.607  10
   2   7   9 4675.00 449.355  13
   2  -7   9 5294.72 436.999  12
   2   7   9 3982.66 434.642   9
   2   7  10 1582.73 275.234   9
   2  -7  10 1254.61 198.582  12
   2  -7  10 1523.83 284.341  10
   2   7  10 1663.39 249.045  13
   2  -7  11 2341.04 285.013  10
   2   7  11 1841.18 260.294   9
   2   7  11 2095.92 236.806  13
   2  -7  12 134.900 87.5276  10
   2   7  12 3.14237 77.5671   9
  -2  -8  13 16191.5 629.749  10
  -2  -8  12 1307.30 201.381  10
   2  -8 -12 1230.04 207.483   5
  -2  -8  12 1366.44 177.147  12
   2  -8 -11 363.173 180.147   5
  -2   8  11 582.731 168.911   9
  -2  -8  11 506.791 159.453  12
  -2   8  11 345.948 136.458  13
  -2  -8  10 10776.7 636.611  12
  -2   8  10 9387.46 649.304   9
   2  -8 -10 10279.0 731.272   5
  -2   8  10 9965.25 622.216  13
  -2  -8  10 9426.98 558.556   6
  -2   8   9 985.535 227.845   9
   2  -8  -9 722.726 186.664   3
  -2   8   9 1528.28 245.781  13
   2  -8  -9 921.979 251.892   5
  -2  -8   9 895.650 196.212   6
  -2  -8   9 1373.79 256.017  12
   2  -8  -8 3858.72 434.227   5
  -2   8   8 3824.58 407.266   9
  -2  -8   8 4214.17 405.891  12
   2  -8  -8 4391.33 915.759  16
  -2  -8   8 3766.32 383.264   6
  -2  -8   7 1612.03 513.964   1
   2  -8  -7 2143.45 302.986   5
   2  -8  -7 1366.54 535.261  16
  -2  -8   7 2317.13 302.991  12
   2  -8  -7 1659.16 282.448   4
  -2  -8   6 23857.8 1830.84   1
   2  -8  -6 20624.2 1822.55  16
   2  -8  -5 101483. 4541.13  16
  -2  -8   5 108840. 4399.45   1
  -2  -8   4 286.749 201.383   1
   2  -8  -4 354.881 308.670  16
  -2  -8   3 53485.6 2591.59   1
   2  -8  -3 54006.1 2841.87  16
   2  -8  -2 29610.0 1968.06  16
  -2  -8   2 26838.3 1683.66   1
   2  -8  -1 181531. 6545.60  16
   2   8  -1 185153. 5725.83  14
  -2  -8   1 184695. 6184.53  16
  -2  -8   0 20822.5 1434.30  16
   2  -8   0 20347.8 1343.70   1
   2   8   0 20453.4 1215.88  14
  -2  -8  -1 378.593 265.074  16
   2   8   1 477.613 259.399  14
   2  -8   1 437.530 235.070   2
   2  -8   1 659.656 259.800   1
  -2  -8  -2 20973.3 1567.62  16
   2  -8   2 22607.4 1552.53   2
   2  -8   2 23923.3 1516.67   1
   2  -8   3 29360.4 1796.32   1
   2  -8   3 27040.0 1675.44   2
  -2  -8  -3 26781.2 1881.48  16
   2  -8   4 30721.9 1950.27   1
  -2  -8  -4 28482.6 2048.57  16
  -2  -8  -5 740.179 394.831  16
   2  -8   5 1526.31 498.897   1
   2   8   6 490.143 176.535   9
   2  -8   6 256.382 163.851  10
  -2  -8  -6 454.454 357.025  16
   2  -8   6 239.299 128.161  12
  -2  -8  -6 419.773 161.707   5
   2  -8   6 472.321 292.336   1
  -2  -8  -7 40362.3 1581.09   5
   2  -8   7 38437.6 1634.75  10
   2   8   7 41924.2 1641.46   9
   2  -8   7 40944.6 1565.06  12
   2   8   8 10166.2 692.192   9
  -2  -8  -8 9803.82 629.291   5
   2  -8   8 9710.54 698.264  10
   2  -8   8 10275.7 644.896  12
   2  -8   9 1746.34 308.053  10
   2  -8   9 2041.48 280.686  12
  -2  -8  -9 1775.41 244.824   5
   2   8   9 1858.85 256.968  13
   2   8   9 2273.40 320.754   9
   2  -8  10-0.51517 147.691  10
   2   8  10-28.5146 93.5183  13
   2   8  10 90.0318 150.756   9
   2  -8  10 28.2450 92.6067  12
   2   8  11 29532.1 1188.39   9
   2  -8  11 36284.9 1271.14  10
   2  -8  12 10.6067 59.6204  10
   2   8  12-21.8469 55.6039   9
   2  -9 -12 7697.37 464.023   5
  -2  -9  12 7828.68 413.755  12
  -2  -9  12 8146.34 452.739  10
  -2  -9  11 1461.00 228.889  10
   2  -9 -11 1256.89 244.868   5
  -2  -9  11 1267.63 198.671  12
   2  -9 -10 9563.62 670.849   5
  -2  -9  10 9737.40 592.925  12
  -2  -9  10 8277.58 506.274   6
  -2   9  10 8180.30 570.095   9
  -2   9   9 13221.0 780.449   9
   2  -9  -9 11760.8 738.312   3
   2  -9  -9 12081.3 799.730   5
  -2  -9   9 12705.7 734.282  12
  -2  -9   9 12018.5 691.736   6
  -2  -9   8-45.0213 127.543   6
   2  -9  -8 125.226 154.648   5
  -2  -9   8-83.7026 154.538  12
   2  -9  -7 5686.94 506.848   5
   2  -9  -7 5319.25 494.588   4
  -2  -9   7 5875.49 490.271  12
  -2  -9   7 6600.27 510.415   6
  -2  -9   6 23704.9 1910.11   1
   2  -9  -6 23270.0 1113.42   5
   2  -9  -6 21527.1 1987.00  16
  -2  -9   6 26005.3 1090.78  12
  -2  -9   6 25516.3 1122.73   6
   2  -9  -5 4322.76 824.057  16
  -2  -9   5 4690.75 782.253   1
   2  -9  -4 68376.3 3546.21  16
  -2  -9   4 67173.5 3247.70   1
  -2  -9   3 18392.2 1463.10   1
   2  -9  -3 18022.5 1640.35  16
  -2  -9   2 65552.8 3081.68   1
   2  -9  -2 66274.1 3410.36  16
  -2  -9   1 24218.7 1690.84  16
  -2  -9   1 26222.8 1751.26   1
   2  -9   0 77460.9 3262.47   1
  -2  -9   0 70907.6 3319.39  16
   2  -9   1 8421.33 976.758   2
   2  -9   1 9378.96 964.831   1
  -2  -9  -1 7800.89 950.048  16
  -2  -9  -2 22218.9 1741.50  16
   2  -9   2 26309.8 1740.50   1
   2  -9   2 26322.5 1760.00   2
   2  -9   3 49852.8 2573.44   1
  -2  -9  -3 43749.5 2678.05  16
   2  -9   4 3194.27 641.982   1
  -2  -9  -4 3474.78 749.714  16
   2  -9   5 1321.74 211.427   6
  -2  -9  -5 838.092 441.607  16
  -2  -9  -5 1357.76 236.204   5
   2  -9   5 1185.22 223.350  12
   2  -9   6 9036.26 1140.45   1
   2   9   6 8802.29 618.640   9
   2  -9   6 7954.22 547.646   6
  -2  -9  -6 6867.35 1120.26  16
  -2  -9  -6 8859.01 608.017   5
   2  -9   6 8291.82 576.178  12
   2  -9   6 7873.38 615.373  10
  -2  -9  -7 7356.34 554.876   5
   2  -9   7 7138.20 537.996  12
   2  -9   7 7433.09 594.699  10
   2   9   7 7318.05 572.024   9
   2   9   8 199.886 159.033   9
   2  -9   8 154.997 173.478  10
  -2  -9  -8 221.823 146.341   5
   2  -9   8 271.671 153.372  12
   2   9   9 10024.7 655.880   9
   2  -9   9 9668.77 665.131  10
   2  -9   9 9484.51 595.442  12
  -2  -9  -9 9861.69 583.940   5
   2  -9  10 15954.8 802.727  10
   2  -9  10 14605.6 693.420  12
   2   9  10 14535.6 756.192   9
   2  -9  11 998.213 166.640  10
   2   9  11 781.584 152.408   9
   2 -10 -12 7945.36 433.716   5
  -2 -10  12 7975.27 400.046  10
  -2 -10  12 8615.93 405.079  12
   2 -10 -11 323.842 153.482   5
  -2 -10  11 152.020 114.650  10
  -2 -10  11 293.477 132.278  12
  -2 -10  10 29853.6 1170.53  12
   2 -10 -10 28494.8 1260.22   5
  -2 -10  10 27027.9 1078.08   6
  -2 -10   9 281.710 141.261   6
   2 -10  -9 489.035 160.570   3
   2 -10  -9 257.394 165.457   5
  -2 -10   9 412.578 169.549  12
   2 -10  -8 38960.2 1627.26   5
  -2 -10   8 39392.1 1531.51  12
  -2 -10   8 38136.1 1524.04   6
  -2 -10   7 373.459 164.820   6
  -2 -10   7 328.914 158.443  12
   2 -10  -7 499.292 180.929   5
   2 -10  -7 545.372 195.073   4
  -2 -10   6 37350.6 2511.29   1
   2 -10  -6 37674.8 2817.70  16
   2 -10  -6 36549.2 1511.60   5
  -2 -10   6 39826.8 1525.59   6
   2 -10  -6 34582.0 1522.23   4
  -2 -10   6 37308.4 1436.57  12
  -2 -10   5 7522.37 1059.51   1
   2 -10  -5 8759.74 588.664   5
   2 -10  -5 7550.72 1170.15  16
  -2 -10   5 9370.06 608.224   6
   2 -10  -4 8338.72 1203.66  16
  -2 -10   4 9715.42 1140.27   1
  -2 -10   3 2551.69 606.800   1
   2 -10  -3 1590.69 522.292  16
   2 -10  -2 16528.2 1627.62  16
  -2 -10   2 14771.5 1390.24   1
  -2 -10   1 17694.7 1517.11   1
  -2 -10   0 28723.9 2019.67  16
   2 -10   0 31893.9 2004.01   1
   2 -10   0 33364.3 2181.61   2
   2 -10   1 2392.25 513.902   1
  -2 -10  -1 2527.51 633.163  16
   2 -10   1 1822.33 487.183   2
  -2 -10  -2 33686.4 2317.73  16
   2 -10   2 35035.1 2148.08   1
  -2 -10  -3 1085.23 488.671  16
   2 -10   3 1587.23 445.415   1
   2 -10   4 47678.4 2821.57   1
  -2 -10  -4 46306.7 3016.41  16
   2 -10   4 50906.1 1842.06  12
  -2 -10  -4 51198.6 1859.09   5
   2 -10   4 49692.9 1811.69   6
  -2 -10  -5 3535.26 823.886  16
   2 -10   5 4360.12 420.444  12
   2 -10   5 3993.70 417.331  10
   2  10   5 4670.98 424.955   9
   2 -10   5 4572.80 816.585   1
  -2 -10  -5 4750.39 443.775   5
   2 -10   5 4095.47 399.828   6
   2 -10   6 54493.2 2000.70  12
   2 -10   6 53497.4 2075.44  10
   2  10   6 59046.0 2060.14   9
  -2 -10  -6 57498.9 2050.49   5
   2 -10   6 52700.8 1955.85   6
   2 -10   7 2899.47 381.808  10
  -2 -10  -7 3359.67 371.702   5
   2  10   7 3707.08 398.829   9
   2 -10   7 3122.25 342.676   6
   2 -10   7 3313.48 374.311  12
   2  10   8 12661.2 753.633   9
   2 -10   8 12140.3 708.024  12
  -2 -10  -8 12113.2 704.731   5
   2 -10   8 12915.0 780.765  10
   2 -10   9 4494.80 425.243  10
  -2 -10  -9 4356.15 367.346   5
   2  10   9 4263.91 395.419   9
   2 -10   9 4051.46 372.240  12
   2 -10  10 4361.16 371.108  10
   2 -10  10 4333.61 323.848  12
   2  10  10 4039.24 341.537   9
   2 -10  11 689.760 133.837  10
   2  10  11 693.925 119.102   9
  -2 -11  12 506.823 85.2373  12
   2 -11 -12 422.666 84.1057   5
  -2 -11  11 13693.2 602.338  10
  -2 -11  11 13853.3 618.044  12
   2 -11 -11 13140.4 669.725   5
  -2 -11  10 4434.22 358.256  10
   2 -11 -10 4405.57 411.010   5
  -2 -11  10 4803.95 377.273  12
  -2 -11  10 3886.29 313.302   6
  -2 -11   9 5350.43 425.782  10
  -2 -11   9 5796.28 450.889  12
   2 -11  -9 4768.03 425.756   3
   2 -11  -9 4824.99 463.565   5
  -2 -11   9 5042.25 413.012   6
   2 -11  -8 6214.09 539.528   5
  -2 -11   8 6602.42 507.327  12
  -2 -11   8 6356.26 505.353   6
   2 -11  -7 21445.6 1082.12   5
  -2 -11   7 21872.4 1053.41   6
  -2 -11   7 22380.8 1017.50  12
   2 -11  -7 19962.5 1051.11   4
   2 -11  -6 13909.3 808.324   5
  -2 -11   6 12881.8 719.549  12
  -2 -11   6 13952.9 801.729   6
   2 -11  -6 12607.9 807.812   4
  -2 -11   5 4654.84 389.986  12
   2 -11  -5 4303.44 971.216  16
   2 -11  -5 4733.66 431.538   5
   2 -11  -5 4991.80 481.538   4
  -2 -11   5 5776.64 944.113   1
  -2 -11   5 5182.46 458.305   6
   2 -11  -4 26692.2 1175.68   5
   2 -11  -4 27162.0 2371.49  16
   2 -11  -4 26795.9 1266.18   4
  -2 -11   4 29723.6 1226.50   6
  -2 -11   4 29025.1 2152.51   1
  -2 -11   3 1238.17 482.639   1
   2 -11  -3 2030.22 686.618  16
  -2 -11   2 48533.6 2876.71   1
   2 -11  -2 51419.0 3251.31  16
   2 -11  -1 6515.48 920.019   1
  -2 -11   1 6567.75 967.466   1
   2 -11   0 24632.0 1957.06   2
   2 -11   0 23820.8 1790.72   1
  -2 -11   0 20193.2 1773.28  16
   2 -11   1 39545.4 2459.87   2
   2 -11   1 35710.7 2283.97   1
  -2 -11  -1 33223.1 2393.00  16
   2 -11   2 12805.4 1322.19   1
  -2 -11  -2 10429.1 1313.33  16
  -2 -11  -3 20088.4 985.475   5
   2 -11   3 19798.9 1720.02   1
  -2 -11  -3 17421.1 1788.78  16
   2 -11   3 19436.3 962.182  12
   2 -11   3 19986.3 978.068   6
   2 -11   4 977.948 204.685   6
   2 -11   4 292.183 284.686   1
  -2 -11  -4 985.706 232.086   5
   2 -11   4 905.480 236.134  12
  -2 -11  -4 592.441 375.777  16
   2 -11   5 5588.81 491.684  12
   2  11   5 5288.62 452.218   9
   2 -11   5 4967.11 456.098   6
  -2 -11  -5 5695.35 499.702   5
   2 -11   6 1438.35 254.139   6
   2 -11   6 1171.98 256.994  12
  -2 -11  -6 1406.22 266.431   5
   2  11   6 1159.40 236.021   9
   2 -11   6 1324.69 271.170  10
   2 -11   7 14976.6 833.149  12
   2 -11   7 15998.9 885.846  10
   2 -11   7 14222.4 783.576   6
  -2 -11  -7 16486.8 864.755   5
   2  11   7 15593.9 839.192   9
  -2 -11  -8 1298.38 223.720   5
   2  11   8 1132.12 216.366   9
   2 -11   8 983.794 211.311  10
   2 -11   8 833.811 204.040  12
   2  11   9 10787.0 610.773   9
  -2 -11  -9 10572.0 575.774   5
   2 -11   9 11068.2 605.774  12
   2 -11   9 11641.7 662.827  10
   2  11  10 10181.1 525.476   9
   2 -11  10 11906.8 589.453  10
   2 -11  10 11285.3 522.611  12
   2 -12 -11 325.136 117.622   5
  -2 -12  11 289.271 89.9619  12
  -2 -12  10 231.717 101.664   6
   2 -12 -10 18.2013 125.163   5
  -2 -12  10 103.441 102.196  12
   2 -12  -9 1528.09 269.744   5
  -2 -12   9 1631.32 241.337  12
  -2 -12   9 1334.58 219.313   6
   2 -12  -9 1307.87 223.079   3
   2 -12  -8 9334.14 660.599   5
  -2 -12   8 9934.28 606.098  12
  -2 -12   8 9973.03 630.983   6
   2 -12  -7 1285.98 262.805   5
  -2 -12   7 1423.49 258.611   6
  -2 -12   7 1317.81 240.523  12
   2 -12  -7 1220.63 248.330   4
  -2 -12   6 1485.66 258.763   6
  -2 -12   6 1355.52 223.549  12
   2 -12  -6 1478.04 266.208   5
   2 -12  -6 1448.79 279.807   4
   2 -12  -5 52709.5 2078.21   4
   2 -12  -5 54401.6 2002.53   5
  -2 -12   5 55238.1 1899.26  12
  -2 -12   5 57315.0 2031.00   6
   2 -12  -4 3660.24 374.153   5
  -2 -12   4 3956.27 407.822   6
   2 -12  -4 4610.23 1005.52  16
  -2 -12   4 4162.72 851.029   1
   2 -12  -4 4352.22 463.568   4
   2 -12  -3 89112.4 2939.48   5
  -2 -12   3 94404.5 4497.59   1
  -2 -12   3 95994.8 2998.29   6
   2 -12  -3 94856.8 3143.05   4
   2 -12  -3 92108.4 4922.04  16
   2 -12  -2 987.109 239.876   6
  -2 -12   2 1102.02 216.003   6
   2 -12  -2 1544.10 293.290   4
  -2 -12   2 1241.63 493.479   1
   2 -12  -1 12113.8 1344.64   1
   2 -12  -1 13879.8 809.611   6
  -2 -12   1 13857.0 1513.56   1
   2 -12   0-57.4021 130.500   6
  -2 -12   0-87.0911 130.594   5
   2 -12   0-224.671 284.654   2
   2 -12   0 686.338 365.389   1
  -2 -12   0-56.2044 467.733   1
  -2 -12  -1 55425.3 1958.26   5
   2 -12   1 53607.7 3044.72   1
   2 -12   1 55385.0 2012.62   6
  -2 -12  -2 1240.17 238.724   5
   2 -12   2 970.367 232.702   6
   2 -12   2 1119.52 229.460  12
   2 -12   3 495.401 178.700   6
   2 -12   3 759.908 203.369  12
  -2 -12  -3 835.928 216.338   5
   2 -12   3 2.25579 267.812   1
  -2 -12  -3 751.676 417.275  16
  -2 -12  -4 10233.4 684.514   5
   2 -12   4 10331.1 687.141   6
   2 -12   4 9161.72 655.529  12
   2 -12   5 2051.32 297.999   6
   2 -12   5 1905.51 300.524  12
  -2 -12  -5 1812.62 294.445   5
   2 -12   6-252.923 148.367  10
  -2 -12  -6 126.309 155.155   5
   2 -12   6-94.9475 146.903   6
   2  12   6-197.835 144.374   9
   2 -12   6-104.788 173.637  12
   2  12   7 195.043 128.608   9
  -2 -12  -7 145.751 152.534   5
   2 -12   7 98.2038 151.119  12
   2 -12   7 206.129 145.115  10
   2 -12   7 304.176 136.997   6
   2  12   8 40.2339 105.144   9
  -2 -12  -8 2.55787 110.996   5
   2 -12   8 7.06529 114.789  10
   2 -12   8-71.2769 129.384  12
   2 -12   9 27369.3 1054.59  10
  -2 -12  -9 25829.0 987.947   5
   2  12   9 24047.1 973.237   9
   2 -12   9 28016.1 1030.86  12
   2 -12  10 2590.66 202.843  10
   2 -13 -11 19299.1 717.466   5
  -2 -13  11 20638.1 685.577  12
  -2 -13  10 546.540 114.347   6
   2 -13 -10 428.915 134.330   5
  -2 -13  10 375.792 111.280  12
   2 -13  -9 7211.75 503.572   5
   2 -13  -9 6423.03 435.251   3
  -2 -13   9 7410.13 460.403  12
  -2 -13   9 6892.96 447.662   6
  -2 -13   8 1390.07 240.573   6
  -2 -13   8 1221.83 214.677  12
   2 -13  -8 1063.01 231.737   5
  -2 -13   7 18375.8 867.909  12
   2 -13  -7 18366.7 954.143   5
  -2 -13   7 18899.9 942.689   6
   2 -13  -7 19104.5 961.190   4
   2 -13  -6 15972.1 867.383   5
  -2 -13   6 15186.7 774.061  12
  -2 -13   6 16034.8 862.280   6
   2 -13  -6 15402.1 891.564   4
   2 -13  -5 7206.31 543.357   5
  -2 -13   5 7112.03 488.328  12
  -2 -13   5 7304.07 561.866   6
   2 -13  -5 6431.29 569.983   4
   2 -13  -4 2201.66 343.567   4
   2 -13  -4 2310.82 301.928   5
  -2 -13   4 2281.35 317.399   6
   2 -13  -3 4919.88 426.880   5
   2 -13  -3 5408.84 517.347   4
  -2 -13   3 5456.55 463.558   6
   2 -13  -2 4691.76 880.611   1
   2 -13  -2 5576.02 437.758   5
  -2 -13   2 4588.68 871.969   1
   2 -13  -2 5301.32 500.974   6
   2 -13  -2 6194.64 553.704   4
  -2 -13   2 5479.58 462.909   6
  -2 -13   1 1117.67 212.334   6
   2 -13  -1 2056.16 602.623   2
   2 -13  -1 1395.25 266.740   6
   2 -13  -1 628.086 403.687   1
  -2 -13   1 2223.24 688.288   1
  -2 -13   1 1458.75 248.889   5
   2 -13   0 9159.47 1197.26   1
  -2 -13   0 9639.28 631.573   5
   2 -13   0 9362.76 680.311   6
  -2 -13   0 8737.83 1231.64   1
   2 -13   1 61094.0 2200.85   6
   2 -13   1 56153.3 3265.02   1
  -2 -13  -1 59669.9 2106.59   5
   2 -13   2 1841.56 317.992   6
  -2 -13  -2 2319.51 308.696   5
   2 -13   2 1589.76 258.527  12
   2 -13   3 39178.4 1574.46  12
  -2 -13  -3 38206.0 1579.22   5
   2 -13   3 40328.9 1650.07   6
   2 -13   4 338.019 181.346   6
  -2 -13  -4 479.978 194.718   5
   2 -13   4 600.660 206.451  12
  -2 -13  -5 7328.22 569.288   5
   2 -13   5 6775.21 545.120  12
   2 -13   5 6443.19 535.765   6
   2 -13   6 1198.01 227.151   6
  -2 -13  -6 962.475 225.093   5
   2 -13   6 1062.91 239.149  12
   2 -13   7 16183.2 806.767   6
  -2 -13  -7 17315.5 854.830   5
   2 -13   7 17835.5 871.326  12
  -2 -13  -8 4609.55 367.515   5
   2 -13   8 5372.65 401.263  12
  -2 -13  -9 6735.59 371.827   5
   2 -13   9 6947.18 406.153  12
  -2 -14  10 13176.6 525.343  12
   2 -14 -10 13193.5 574.161   5
  -2 -14   9-70.8231 101.333   6
   2 -14  -9-12.2084 103.685   5
  -2 -14   9-144.425 86.8800  12
   2 -14  -9-38.5292 76.6980   3
  -2 -14   8 36586.5 1332.91  12
  -2 -14   8 40274.3 1422.63   6
   2 -14  -8 36687.6 1419.51   5
  -2 -14   7 2150.42 300.899   6
   2 -14  -7 2319.09 302.827   5
  -2 -14   7 2250.39 263.633  12
   2 -14  -7 1989.96 278.201   4
   2 -14  -6 7555.51 550.165   5
  -2 -14   6 7717.30 501.350  12
   2 -14  -6 7334.66 569.763   4
  -2 -14   6 8238.93 574.761   6
   2 -14  -5 17539.0 894.886   5
   2 -14  -5 16248.1 937.205   4
  -2 -14   5 17660.4 903.875   6
   2 -14  -4 343.964 151.057   4
  -2 -14   4 208.073 165.509   6
   2 -14  -4 213.343 121.605   5
   2 -14  -3 684.234 253.349   4
  -2 -14   3 621.235 191.357   6
   2 -14  -3 349.342 139.643   5
   2 -14  -2 613.616 232.479   4
  -2 -14   2 452.412 159.111   5
  -2 -14   2 300.232 167.976   6
   2 -14  -2 490.462 149.915   5
  -2 -14   1 24342.5 1120.76   5
   2 -14  -1 23959.7 1189.97   6
  -2 -14   1 24493.2 1098.66   6
   2 -14  -1 24959.2 1225.12   4
  -2 -14   0 1253.19 234.918   5
   2 -14   0 1028.08 260.713   6
   2 -14   1 2985.53 397.329   6
  -2 -14  -1 2955.10 362.074   5
  -2 -14  -2 22885.9 1113.38   5
   2 -14   2 25081.8 1231.75   6
   2 -14   3 41.8184 179.576   6
  -2 -14  -3 128.672 160.584   5
   2 -14   3-5.22586 134.940  12
   2 -14   4 29236.7 1286.34  12
  -2 -14  -4 30583.9 1335.88   5
   2 -14   4 31572.0 1377.58   6
   2 -14   5 383.231 182.487   6
   2 -14   5 440.946 191.780  12
  -2 -14  -5 461.382 193.932   5
   2 -14   6 16889.8 871.883   6
  -2 -14  -6 19560.4 927.382   5
   2 -14   6 18848.1 901.356  12
   2 -14   7 446.672 137.786   6
  -2 -14  -7 414.504 155.691   5
   2 -14   7 430.395 167.130  12
   2 -14   8 10937.9 556.354  12
  -2 -14  -8 10880.6 541.930   5
  -2 -15   9 2696.72 220.323   6
  -2 -15   9 2439.24 192.240  12
   2 -15  -9 2860.78 238.910   5
  -2 -15   8 3096.95 294.711   6
  -2 -15   8 3299.46 260.386  12
   2 -15  -8 3304.23 300.812   5
   2 -15  -8 3352.22 297.416   3
  -2 -15   7 56.9648 137.310   6
   2 -15  -7 10.6818 123.067   5
  -2 -15   7 94.7185 79.7695  12
   2 -15  -6 16422.0 836.621   4
   2 -15  -6 15427.0 784.205   5
  -2 -15   6 14188.1 682.516   5
  -2 -15   6 15785.3 720.038  12
  -2 -15   6 16749.1 827.817   6
  -2 -15   5 2899.61 291.556   5
   2 -15  -5 3344.26 342.056   5
   2 -15  -5 3444.60 385.887   4
  -2 -15   5 3400.84 361.638   6
   2 -15  -4 29085.7 1210.72   5
  -2 -15   4 27484.6 1156.24   5
   2 -15  -4 29546.8 1324.63   4
  -2 -15   4 29920.4 1245.80   6
  -2 -15   3 5802.36 459.204   5
   2 -15  -3 6249.65 467.083   5
  -2 -15   3 5792.53 486.178   6
   2 -15  -3 5675.22 529.037   4
  -2 -15   2 25092.7 1110.70   5
  -2 -15   2 23892.0 1103.56   6
   2 -15  -2 24898.9 1070.32   5
   2 -15  -2 24810.1 1215.45   4
  -2 -15   1 905.558 218.418   6
   2 -15  -1 1147.08 277.191   4
   2 -15  -1 874.473 244.907   6
  -2 -15   1 1088.09 227.522   5
   2 -15   0 32560.7 1481.48   6
  -2 -15   0 34084.3 1416.89   5
   2 -15   0 37343.5 1547.91   4
  -2 -15  -1 234.977 172.031   5
  -2 -15  -1-160.690 132.301   4
   2 -15   1-82.1858 189.118   6
  -2 -15  -2 6971.19 546.524   5
   2 -15   2 6741.96 595.127   6
   2 -15   3 115.729 197.013   6
  -2 -15  -3 51.5708 147.925   5
   2 -15   4 1430.48 279.308   6
  -2 -15  -4 1550.82 265.023   5
  -2 -15  -5 11566.7 683.275   5
   2 -15   5 10965.9 690.300   6
   2 -15   5 11316.9 642.264  12
   2 -15   6 5203.89 406.181  12
  -2 -15  -6 6424.52 454.254   5
   2 -15   6 5570.43 433.009   6
   2 -15   7 109.673 89.7110   6
  -2 -15  -7 118.074 104.827   5
   2 -15   8 3805.68 265.600  15
  -2 -15  -8 3803.99 251.953   5
   2 -16  -8 5696.07 341.874   5
  -2 -16   8 6190.48 359.528   6
   2 -16  -8 5018.98 305.629   3
   2 -16  -7 10967.4 564.517   5
  -2 -16   7 12018.0 600.234   6
   2 -16  -6 13984.3 684.155   5
   2 -16  -6 13293.9 688.475   4
  -2 -16   6 14438.1 718.040   6
  -2 -16   5 1553.41 244.282   6
  -2 -16   5 1225.67 181.141   5
   2 -16  -5 1811.38 265.244   4
   2 -16  -5 1777.22 237.209   5
   2 -16  -4 793.383 210.887   4
  -2 -16   4 616.016 188.892   6
   2 -16  -4 1045.67 194.815   5
  -2 -16   4 737.156 163.999   5
  -2 -16   3 6772.32 477.884   5
   2 -16  -3 7322.02 488.172   5
   2 -16  -3 7589.92 582.580   4
  -2 -16   3 8130.50 549.856   6
  -2 -16   2 2907.54 321.634   5
  -2 -16   2 3226.75 353.708   6
   2 -16  -2 3436.19 398.997   4
  -2 -16   1 19807.0 946.040   6
  -2 -16   1 19319.9 938.252   5
   2 -16  -1 21095.9 1058.91   4
   2 -16   0 1075.52 260.879   4
  -2 -16   0 1027.96 219.960   4
  -2 -16   0 1055.05 221.129   5
   2 -16   0 1057.39 251.633   6
   2 -16   1 16701.2 943.276   6
   2 -16   1 17219.7 936.585   4
  -2 -16  -1 16296.8 856.590   5
   2 -16   2 14671.3 875.858   6
  -2 -16  -2 13814.4 778.146   5
   2 -16   3-50.3590 207.856   6
  -2 -16  -3 83.3735 151.080   5
   2 -16   4 15488.9 841.508   6
  -2 -16  -4 14435.1 774.697   5
   2 -16   5-38.8659 137.675   6
  -2 -16  -5 84.5303 120.156   5
   2 -16   6 2217.08 245.313   6
  -2 -16  -6 2086.85 235.307   5
   2 -16   7 3028.46 256.323  15
  -2 -16  -7 2620.11 218.780   5
   2 -17  -7 9285.67 455.675   3
   2 -17  -7 8935.46 429.553   5
  -2 -17   6 122.940 114.321   6
   2 -17  -6-68.6993 85.5549   5
  -2 -17   5 8109.73 494.854   6
   2 -17  -5 7652.49 478.091   4
   2 -17  -5 7843.40 448.380   5
  -2 -17   4 978.426 197.939   6
  -2 -17   4 903.576 150.815   5
   2 -17  -4 815.902 190.432   4
   2 -17  -4 1076.53 168.803   5
   2 -17  -3 55.7642 139.058   4
   2 -17  -3 150.548 88.6910   5
  -2 -17   3 102.142 120.748   6
  -2 -17   3 66.8474 93.3615   5
  -2 -17   2 1242.35 219.939   6
   2 -17  -2 893.522 218.573   4
  -2 -17   2 1337.55 205.931   5
   2 -17  -1 2877.40 347.407   4
  -2 -17   1 2207.93 277.072   4
  -2 -17   1 2161.62 268.550   5
  -2 -17   0 6651.08 478.282   5
   2 -17   0 7359.79 551.853   4
  -2 -17   0 6663.05 459.985   4
   2 -17   1 14237.8 734.829  15
  -2 -17  -1 13981.5 743.964   5
   2 -17   1 14721.6 810.584   4
   2 -17   2 2267.78 313.899   6
   2 -17   2 2699.68 335.420   4
  -2 -17  -2 2265.42 291.357   5
   2 -17   3 17736.4 855.130   4
  -2 -17  -3 17322.8 821.232   5
   2 -17   3 17493.7 879.742   6
   2 -17   4 568.205 175.262   6
   2 -17   4 703.253 165.253   4
  -2 -17  -4 656.014 165.130   5
  -2 -17  -5 20784.4 833.825   5
   2 -17   5 19953.8 822.273   4
   2 -17   6 0.57071 59.4289   4
  -2 -17  -6 202.275 82.8671   5
   2 -17   6-26.5852 87.8318  15
  -2 -18   6-127.367 81.9133   6
  -2 -18   5 4222.23 305.037   6
   2 -18  -5 4304.84 291.847   4
  -2 -18   4 878.132 163.724   6
   2 -18  -4 1082.23 174.852   4
  -2 -18   3 27420.0 1002.97   5
   2 -18  -3 29795.7 1139.13   4
  -2 -18   3 31041.0 1137.30   4
  -2 -18   3 29603.8 1099.83   6
   2 -18  -2 492.831 172.265   4
  -2 -18   2 542.253 141.555   4
  -2 -18   2 580.228 144.042   6
  -2 -18   2 579.293 129.046   5
  -2 -18   1 15284.3 699.513   5
   2 -18  -1 16208.1 788.922   4
  -2 -18   1 15283.1 698.821   4
  -2 -18   0 4442.11 344.754   5
  -2 -18   0 3757.68 289.435   4
   2 -18   0 4330.65 378.538   4
   2 -18   1 197.898 143.904   4
  -2 -18  -1 177.472 111.774   5
   2 -18   2 2007.29 218.219  15
   2 -18   2 2230.31 265.770   4
  -2 -18  -2 2165.55 245.238   5
  -2 -18  -3 8807.65 483.845   5
   2 -18   3 9034.95 501.028   4
   2 -18   3 8220.78 464.495  15
   2 -18   4 1764.99 196.675  15
  -2 -18  -4 1648.58 190.053   5
   2 -18   4 1923.17 203.703   4
   2 -18   5 104.238 73.6259  15
  -2 -18  -5 112.319 72.4620   5
   2 -18   5 110.059 66.5617   4
   2 -19  -4 2052.63 168.636   4
  -2 -19   4 1894.96 170.771   4
  -2 -19   3 1081.45 140.498   4
   2 -19  -3 1074.51 148.489   4
   2 -19  -2 25685.3 936.996   4
  -2 -19   2 23507.5 849.385   4
  -2 -19   1 2402.10 197.275   5
   2 -19  -1 2832.32 254.928   4
   2 -19   0 5410.02 365.143   4
  -2 -19   0 5426.44 323.982   5
   2 -19   1 1607.98 197.691   4
  -2 -19  -1 1584.78 172.173   5
   2 -19   2 1449.29 176.728   4
  -2 -19  -2 1641.98 175.596   5
   2 -19   3 638.805 111.906   4
  -2 -19  -3 981.630 128.631   5
   2 -20   0 3750.46 225.125   4
  -3   0  14 548.602 111.603  13
  -3   0  13-11.0218 114.205  13
   3   0 -12 21387.2 1083.01   5
  -3   0  12 20496.4 1004.88  13
  -3   0  11 67.4250 88.7207  12
   3   0 -11-86.4307 185.158   5
   3   0 -10 8859.10 697.671   5
  -3   0  10 8541.00 579.020  12
   3   0  -9-14.4350 129.076   5
  -3   0   9-10.7816 146.062   9
   3   0  -8 86896.0 4165.40  14
   3   0  -7-180.004 240.607  14
   3   0  -6 239581. 7947.14  14
   3   0  -5-52.1178 93.1463  16
   3   0  -5-59.4225 232.354  14
   3   0  -5 56.3581 119.383   2
   3   0  -4 42380.9 1762.16   2
   3   0  -4 44113.5 1497.46  16
   3   0  -4 43242.0 2061.68  14
   3   0  -3 145.008 144.272   2
   3   0  -3 103.858 190.190  14
   3   0  -3 79.0057 42.1264  16
   3   0  -2 5143.76 499.068  14
   3   0  -2 4669.57 495.405   2
   3   0  -1 50.0973 179.425   2
   3   0  -1 65.2112 152.018  14
   3   0   0 20752.0 1060.56  14
   3   0   0 18523.0 1130.97   2
   3   0   1 9.40127 193.287   2
   3   0   1-36.5944 153.267  14
   3   0   2 64173.5 2723.62   2
   3   0   2 60356.5 2431.85  14
  -3   0  -3-127.859 223.532  16
  -3   0  -4 56665.4 2566.52  16
  -3   0  -5 146.976 229.886  16
  -3   0  -6 63097.6 3157.98  16
  -3   0  -7 147.416 297.888  16
   3   0   7 20.9134 149.669  13
   3   0   7-101.776 156.708   7
   3   0   8 44269.9 1771.98  13
   3   0   8 38790.9 1622.23  10
   3   0   8 41931.2 1661.20   9
   3   0   9 65.3952 139.573  10
   3   0   9-154.138 188.034  13
   3   0   9-32.2846 124.819   9
   3   0  10 34154.7 1407.22  10
   3   0  10 36077.9 1455.41   9
   3   0  11 26.7581 147.941  13
   3   0  11 63.5753 98.1490   9
   3   0  12 6452.44 416.906  13
  -3  -1  14 3862.18 260.484  13
  -3   1  14 3582.70 266.154  13
  -3  -1  13-14.6081 116.850  13
  -3   1  13 77.6601 131.021  13
   3  -1 -12 10068.6 692.363   5
  -3   1  12 9372.29 623.490  13
  -3  -1  12 9471.60 633.114  13
  -3  -1  12 8969.81 507.002  12
   3  -1 -11 2611.77 384.386   5
   3   1 -11 2563.51 381.203   5
  -3  -1  11 2264.79 284.144  12
   3  -1 -10 25094.0 1276.09   5
   3   1 -10 24354.9 1220.75   5
  -3   1  10 25040.5 1092.54  12
  -3  -1  10 24443.9 1105.14  12
   3   1  -9 137375. 4368.75   5
   3  -1  -9 138596. 6027.51  14
   3   1  -9 133303. 5889.92  14
   3  -1  -9 141304. 4427.48   5
  -3   1   9 149716. 4436.61   9
   3   1  -8 4881.42 842.906  14
   3  -1  -8 4922.78 855.377  14
   3   1  -7 19316.6 1597.84  14
   3  -1  -7 16466.1 1499.99  14
  -3  -1   6 8419.72 809.350   1
   3  -1  -6 7583.67 666.282  16
   3  -1  -6 8603.92 964.521  14
   3   1  -6 8696.65 977.170  14
   3  -1  -5 9136.97 665.161  16
   3  -1  -5 9982.89 955.046  14
   3   1  -5 10616.8 978.727  14
  -3  -1   5 10367.4 804.326   1
   3   1  -4 180020. 4806.40   2
  -3  -1   4 183264. 4957.30   1
   3   1  -4 190192. 5459.13  14
   3  -1  -4 190095. 5425.92  14
   3  -1  -4 183659. 4819.45  16
   3  -1  -3 12501.3 654.000  16
   3  -1  -3 12768.3 870.266   2
   3  -1  -3 12544.6 870.916  14
   3   1  -3 12439.3 893.768  14
  -3  -1   3 12008.0 665.458   1
   3   1  -3 12117.0 730.663   2
   3  -1  -2 66110.5 2435.28   2
   3   1  -2 66548.4 2368.89  14
   3  -1  -2 63814.5 2307.28  14
  -3  -1   2 60616.3 1909.73   1
   3   1  -2 61881.9 2268.80   2
   3  -1  -1 7093.23 568.991  14
   3   1  -1 7457.48 630.202   2
  -3  -1   1 6575.35 310.525   1
   3  -1  -1 7686.91 679.461   2
  -3  -1   1 6742.21 331.953  16
   3  -1   0 46004.1 1743.56  14
   3   1   0 45448.0 1930.74   2
   3   1   0 47836.6 1834.36  14
  -3  -1  -1 2685.27 337.457  16
   3   1   1 2632.46 389.489  14
   3  -1   1 2459.43 360.907  14
   3   1   1 2476.78 458.449   2
   3  -1   1 2421.69 444.480   2
   3   1   2 67429.5 2685.45  14
   3  -1   2 72424.9 2641.77  14
  -3  -1  -2 68270.8 2605.56  16
   3  -1   2 71816.9 2915.56   2
   3  -1   3 5191.25 738.337   2
  -3  -1  -3 4608.76 593.153  16
   3   1   3 5484.38 654.569  14
  -3   1  -4 50137.1 2403.02  16
  -3  -1  -4 47762.7 2309.30  16
  -3   1  -5 41436.5 2256.42  16
  -3  -1  -5 39151.4 2209.79  16
  -3   1  -6 8750.64 1057.45  16
  -3  -1  -6 9349.14 1084.19  16
   3   1   7 28404.1 1252.43   9
  -3   1  -7 29757.7 2145.19  16
  -3  -1  -7 28427.3 2118.25  16
   3   1   7 27718.0 1305.13   7
   3   1   7 28114.0 1271.76  13
   3  -1   7 29037.3 1343.88   7
   3  -1   7 26901.8 1261.46  13
   3  -1   8 4728.28 468.591  10
   3  -1   8 5588.62 478.220   9
   3   1   8 5419.97 492.899   9
   3  -1   8 5241.13 528.245  13
   3   1   8 5024.78 509.206  13
   3  -1   9 14004.1 842.945  10
   3  -1   9 13504.6 794.930   9
   3   1   9 14057.8 840.914   9
   3  -1   9 15035.8 914.887  13
   3   1   9 15471.9 940.870  13
   3  -1  10 6390.98 499.864  10
   3   1  10 5962.89 504.055   9
   3  -1  10 6814.13 584.864  13
   3  -1  10 6055.82 479.780   9
   3   1  10 7126.08 599.250  13
   3   1  11 1624.96 234.776   9
   3  -1  11 1444.20 208.747  10
   3   1  11 1587.70 275.038  13
   3  -1  11 1299.02 186.149   9
   3  -1  11 1781.19 272.009  13
   3   1  12 10151.0 534.281  13
   3  -1  12 10101.6 530.413  13
  -3  -2  14 1297.48 142.335  10
  -3  -2  14 1039.60 122.933  13
  -3   2  14 1352.01 156.141  13
  -3  -2  13 35329.5 1283.22  13
  -3   2  13 34151.8 1290.68  13
   3  -2 -12 2040.83 322.292   5
  -3   2  12 1510.39 279.192  13
  -3  -2  12 1728.78 267.698  13
  -3  -2  12 1704.71 214.950  12
   3  -2 -11 33841.2 1536.31   5
  -3  -2  11 31969.7 1290.27  12
   3  -2 -10 11376.3 809.880   5
  -3   2  10 11147.9 754.917   9
   3   2 -10 10709.5 744.902   5
  -3  -2  10 11294.2 682.002  12
  -3   2   9 554.554 179.552   9
   3   2  -9 1192.88 439.679  14
   3  -2  -9 565.707 331.782  14
   3   2  -9 863.582 232.379   5
   3  -2  -9 711.287 243.533   5
   3   2  -8 1638.16 491.566  14
   3  -2  -8 1225.73 432.504  14
   3  -2  -7 512.333 284.498  14
   3   2  -7 913.176 383.374  14
  -3  -2   7 877.241 287.931   1
  -3  -2   6 1619.21 390.199   1
   3  -2  -6 1335.26 323.331  16
   3   2  -6 1886.65 457.976  14
   3  -2  -6 1739.82 464.025  14
  -3  -2   5 46717.7 2059.37   1
   3  -2  -5 45464.5 2268.79  14
   3   2  -5 48708.5 2334.79  14
   3  -2  -5 44513.2 1915.23  16
   3  -2  -4 19866.1 1077.96  16
   3   2  -4 20202.8 1287.39  14
   3  -2  -4 20145.4 1259.07  14
  -3  -2   4 20067.9 1102.63   1
  -3  -2   3 30446.6 1324.53   1
   3   2  -3 33210.4 1590.69  14
   3   2  -3 29061.8 1203.49   2
   3  -2  -3 32454.0 1386.40  16
   3  -2  -3 33293.4 1566.45  14
   3   2  -2 83744.8 2908.23  14
   3  -2  -2 79928.5 2998.81   2
   3  -2  -2 83687.4 2791.94  14
   3   2  -2 81894.1 2734.07   2
  -3  -2   2 79623.6 2544.80   1
   3  -2  -1 218188. 5820.52   2
   3  -2  -1 197066. 5363.88  14
  -3  -2   1 196846. 4938.69  16
   3   2  -1 209830. 5586.12  14
  -3  -2   1 199399. 5088.36   1
   3   2  -1 215351. 5613.49   2
   3  -2   0 48809.5 1796.61  14
   3  -2   0 43655.3 1446.72   1
  -3  -2   0 48326.8 1627.49  16
   3   2   0 47301.3 2071.21   2
   3   2   0 50972.0 1972.63  14
   3  -2   0 49384.5 2107.10   2
   3   2   1 114184. 3829.32  14
  -3  -2  -1 111863. 3550.63  16
   3  -2   1 112777. 3404.61   1
   3  -2   1 115991. 3648.37  14
   3  -2   1 108959. 3952.86   2
   3   2   2 11397.8 895.969  14
   3  -2   2 10707.7 702.170   1
   3  -2   2 11390.4 803.986  14
   3  -2   2 11598.7 1010.57   2
  -3  -2  -2 10380.7 780.541  16
  -3  -2  -3 96233.8 3474.32  16
   3  -2   3 90679.6 3730.12   2
   3   2   3 94291.9 3603.51  14
   3  -2   3 97659.3 3349.81   1
  -3  -2  -4 379.047 260.410  16
   3  -2   4 170.269 173.450   1
  -3  -2  -5 4867.08 721.491  16
  -3   2  -5 4481.80 725.768  16
  -3   2  -6 13783.2 1332.62  16
  -3  -2  -6 12788.5 1290.57  16
   3  -2   7 393.372 164.663  10
  -3  -2  -7 932.426 403.451  16
   3   2   7 592.134 197.448  13
   3  -2   7 420.428 176.934  13
  -3   2  -7 517.806 326.883  16
   3   2   7 684.332 183.813   9
   3   2   7 223.743 159.136   7
   3   2   8-74.1163 138.132   9
   3   2   8-58.9766 191.131  13
   3  -2   8-57.5712 144.500  10
   3  -2   8 179.577 169.844  13
   3  -2   9 309.079 179.232  10
   3   2   9 504.606 189.181   9
   3  -2   9 592.224 231.548  13
   3   2   9 540.958 224.250  13
   3  -2  10 8607.19 612.528  10
   3   2  10 8394.54 608.121   9
   3  -2  10 8695.67 650.230  13
   3   2  10 9430.93 678.320  13
   3  -2  11 9981.10 578.015  10
   3  -2  11 10362.1 635.153  13
   3   2  11 10263.6 641.893  13
   3   2  11 9741.06 595.415   9
   3   2  12 402.996 122.153  13
   3  -2  12 318.870 117.839  13
  -3  -3  14 985.321 127.627  10
  -3   3  14 1161.50 142.343  13
   3  -3 -13 6221.88 455.890   5
  -3  -3  13 6895.62 416.011  13
  -3   3  13 6289.81 435.831  13
  -3  -3  12 3272.07 300.399  12
   3  -3 -12 3930.16 435.889   5
  -3  -3  12 3808.98 362.324  13
  -3   3  12 4149.58 394.184  13
   3  -3 -11 10297.4 766.421   5
  -3  -3  11 9822.76 609.130  12
  -3  -3  11 9777.13 658.499  13
  -3   3  10 71.0711 136.093   9
  -3  -3  10 211.193 154.414  12
   3  -3 -10 118.534 201.107   5
   3  -3  -9 63177.7 3636.36  14
   3   3  -9 59390.8 2229.75   5
   3  -3  -9 64754.4 2363.50   5
   3   3  -9 59679.0 3425.39  14
   3  -3  -9 59471.9 2256.83   3
  -3  -3   9 68879.1 2254.50  12
  -3   3   9 63800.7 2271.11   9
  -3  -3   8 1985.56 510.233   1
   3   3  -8 1205.66 433.384  14
   3  -3  -8 1278.07 456.322  14
   3  -3  -7 64307.6 2979.96  16
   3   3  -7 77575.2 3537.57  14
   3  -3  -7 70984.4 3452.96  14
  -3  -3   7 75551.6 3309.55   1
  -3  -3   6 641.469 281.340   1
   3  -3  -6 1256.19 376.172  14
   3   3  -6 806.859 352.463  14
   3  -3  -6 822.252 312.682  16
  -3  -3   5 147703. 4910.02   1
   3   3  -5 153061. 5179.35  14
   3  -3  -5 139071. 4782.53  16
   3  -3  -5 143773. 5056.25  14
  -3  -3   4 25914.2 1369.47   1
   3  -3  -4 25506.1 1463.55  14
   3  -3  -4 26095.2 1384.99  16
   3   3  -4 27235.3 1527.38  14
  -3  -3   3 16248.0 925.439   1
   3   3  -3 16300.9 1077.10  14
   3  -3  -3 15726.3 1002.50  16
   3  -3  -3 16413.0 1021.15  14
   3  -3  -2 10208.9 793.840  16
   3   3  -2 12456.1 870.319  14
   3  -3  -2 11659.6 746.160  14
  -3  -3   2 11915.4 708.262   1
  -3  -3   1 8322.46 455.320  16
   3  -3  -1 8355.70 575.475  14
   3   3  -1 7717.65 683.614  14
   3  -3  -1 8034.30 768.322   2
   3  -3  -1 7872.13 430.568   1
   3  -3   0 177939. 5584.96   2
   3   3   0 163125. 5336.61  14
   3  -3   0 167601. 4830.94   1
   3  -3   0 175204. 5018.17  14
  -3  -3   0 168106. 4944.83  16
   3  -3   1 23686.3 1064.08   1
   3   3   1 23409.3 1338.52  14
   3  -3   1 24439.3 1126.82  14
  -3  -3  -1 22952.8 1141.91  16
   3  -3   1 22989.2 1419.47   2
   3  -3   2 73.2502 219.331   2
   3   3   2 203.116 247.386  14
   3  -3   2 32.6553 132.376   1
  -3  -3  -2 10.9020 180.342  16
   3  -3   3 24031.3 1307.14   1
   3  -3   3 22015.3 1498.09   2
  -3  -3  -3 21181.8 1345.44  16
   3   3   3 23132.4 1466.28  14
   3  -3   4 656.334 370.617   2
   3  -3   4 284.080 182.238   1
  -3  -3  -4 503.267 292.221  16
   3  -3   5 68823.0 3009.55   1
  -3  -3  -5 64341.6 3103.86  16
  -3   3  -6 3264.36 670.111  16
  -3  -3  -6 2980.24 661.246  16
   3   3   7 54416.0 2082.83   7
   3  -3   7 54660.5 2056.87  10
  -3   3  -7 61923.2 3301.01  16
   3   3   7 57219.6 2059.33   9
   3  -3   7 53304.1 2046.89  13
   3   3   7 58157.6 2101.22  13
  -3  -3  -7 57278.3 3259.56  16
   3  -3   8 100.725 161.495  10
   3   3   8 116.243 147.731   9
   3  -3   8-75.2996 153.976  13
   3   3   8 12.0158 147.196  13
   3  -3   9 22238.6 1133.85  10
   3  -3   9 19403.5 1057.66  13
   3   3   9 21374.9 1120.86  13
   3   3   9 20556.7 1059.67   9
   3  -3  10 4077.55 426.553  10
   3   3  10 3667.07 395.991   9
   3   3  10 4221.30 450.453  13
   3  -3  10 3851.57 410.316  13
   3  -3  11 24778.7 1053.33  13
   3   3  11 23461.2 1028.70   9
   3   3  11 25046.3 1082.87  13
   3  -3  11 24337.0 1036.59  10
   3   3  12 2260.64 210.045   9
   3  -3  12 2131.07 203.614  13
   3   3  12 2760.77 246.535  13
  -3  -4  14 2554.84 194.946  10
  -3   4  14 2412.63 191.934  13
   3  -4 -13 6242.33 443.491   5
  -3  -4  13 6597.78 378.782  13
  -3   4  13 6941.64 431.841  13
  -3  -4  13 6410.42 350.397  12
  -3   4  12 4934.64 427.396  13
  -3  -4  12 5276.41 402.472  13
  -3  -4  12 4705.60 362.171  12
   3  -4 -12 4730.42 474.146   5
   3  -4 -11 5447.10 561.606   5
  -3  -4  11 5003.66 450.112  13
  -3  -4  11 5286.45 431.697  12
   3  -4 -10 14093.7 908.941   5
  -3   4  10 13139.3 813.262   9
  -3  -4  10 13228.9 759.224  12
  -3   4   9 232.743 154.692   9
  -3  -4   9 437.160 182.143  12
   3   4  -9 337.206 244.853  14
   3  -4  -9 343.117 168.785   3
   3  -4  -9 499.421 202.484   5
   3  -4  -8 91965.3 4347.51  14
   3   4  -8 91827.0 4270.57  14
  -3  -4   8 92300.4 4147.81   1
  -3  -4   7-167.670 232.930   1
   3   4  -7 344.389 233.084  14
   3  -4  -7-10.6411 128.991  16
   3   4  -6 35245.7 2034.74  14
  -3  -4   6 34586.1 1943.72   1
   3  -4  -6 33319.4 1974.12  14
   3  -4  -5 2171.72 430.141  16
   3  -4  -5 2636.32 506.310  14
  -3  -4   5 2720.11 476.006   1
   3   4  -5 3610.41 571.067  14
   3  -4  -4 35601.4 1834.76  16
  -3  -4   4 38434.6 1792.72   1
   3  -4  -4 36083.1 1832.24  14
   3   4  -4 35621.7 1855.46  14
   3  -4  -3 4871.02 540.505  14
   3  -4  -3 5699.82 661.727  16
   3   4  -3 5462.42 611.767  14
  -3  -4   3 5076.65 548.321   1
   3   4  -2 40961.9 1852.06  14
   3  -4  -2 41895.0 1659.61  14
  -3  -4   2 41152.4 1700.82   1
   3  -4  -2 42521.8 1913.25  16
   3  -4  -1 305246. 9375.87   2
  -3  -4   1 308527. 8625.54  16
   3  -4  -1 311344. 8671.17  14
   3   4  -1 319162. 9103.08  14
   3  -4   0 1091.65 341.553   2
   3   4   0 1351.64 356.727  14
   3  -4   0 1982.61 248.966  14
   3  -4   0 954.750 204.713   1
  -3  -4   0 1009.24 220.557  16
   3  -4   1 33013.4 1424.13   1
   3  -4   1 31305.7 1776.05   2
  -3  -4  -1 33461.0 1517.08  16
   3  -4   1 33271.6 1339.04  14
   3   4   1 34297.6 1712.01  14
   3  -4   2 33156.0 1513.46   1
   3  -4   2 30655.3 1756.08   2
   3   4   2 28086.4 1637.47  14
  -3  -4  -2 30364.4 1554.32  16
   3  -4   3 648.678 335.522   2
   3   4   3 493.606 299.998  14
  -3  -4  -3 473.006 280.939  16
   3  -4   3 558.617 224.067   1
  -3  -4  -4 23042.3 1586.80  16
   3  -4   4 23600.1 1641.63   2
   3  -4   4 24550.8 1539.62   1
  -3  -4  -5 2899.99 612.653  16
   3  -4   5 2512.62 510.792   1
   3  -4   6 41652.7 2429.92   1
  -3  -4  -6 38497.7 2536.99  16
  -3  -4  -7 7734.87 1148.04  16
   3   4   7 6895.57 548.717   9
   3  -4   7 6891.81 573.445  10
   3   4   7 7071.89 576.322   7
  -3   4  -7 8695.86 1138.22  16
   3  -4   7 6060.81 526.289  13
   3   4   7 7067.91 579.058  13
   3  -4   8 50662.8 1953.24  10
   3   4   8 48855.5 1871.51   9
   3  -4   8 44503.5 1824.60  13
   3   4   8 48017.5 1914.03  13
   3  -4   9 1864.52 333.338  10
   3   4   9 1481.71 276.157   9
   3   4   9 1807.91 333.425  13
   3  -4   9 1565.30 280.223  13
   3   4  10 14419.6 816.769   9
   3  -4  10 16519.3 900.089  10
   3  -4  10 14118.6 802.984  13
   3   4  10 15848.1 871.988  13
   3  -4  11 4596.00 392.884  10
   3   4  11 4353.04 377.695   9
   3   4  11 4893.33 401.423  13
   3  -4  11 4136.30 353.707  13
   3  -4  12 1344.11 151.857  10
   3   4  12 1276.56 162.236   9
   3   4  12 1274.61 163.199  13
  -3  -5  13 546.183 104.250  12
  -3   5  13 579.792 143.052  13
   3  -5 -13 642.349 154.141   5
   3  -5 -12 15358.3 864.102   5
  -3  -5  12 15138.5 709.920  12
  -3   5  12 15071.1 766.795  13
   3  -5 -11 8033.42 665.792   5
  -3  -5  11 8153.56 539.878  13
  -3  -5  11 7601.78 529.218  12
   3  -5 -10 22896.8 1125.74   3
  -3   5  10 22742.6 1132.71   9
   3  -5 -10 22825.1 1217.01   5
  -3  -5  10 24296.4 1095.19  12
   3  -5  -9 2409.45 347.824   3
   3  -5  -9 2706.08 369.098   5
  -3   5   9 1662.42 266.682   9
  -3  -5   9 2800.57 333.784  12
   3  -5  -9 2732.78 670.806  14
  -3  -5   9 3103.21 739.224   1
   3  -5  -8-450.775 293.404  14
   3  -5  -8 77.9957 117.304   5
   3   5  -8 27.4965 199.217  14
  -3  -5   8 34.8607 125.968  12
  -3  -5   7-231.424 292.469   1
   3  -5  -7-100.294 161.118  16
   3  -5  -7-161.204 202.861  14
   3  -5  -6 6246.78 824.239  16
   3   5  -6 6934.66 866.368  14
  -3  -5   6 7372.02 890.731   1
   3  -5  -6 6568.95 839.175  14
  -3  -5   5 1496.96 377.783   1
   3   5  -5 1233.69 329.294  14
   3  -5  -5 1132.87 353.942  16
   3  -5  -5 1072.98 345.977  14
  -3  -5   4 70908.9 2842.69   1
   3  -5  -4 68607.3 2955.25  16
   3   5  -4 68104.9 2840.70  14
   3  -5  -4 67022.1 2803.34  14
  -3  -5   3 237.499 177.568   1
   3   5  -3 337.751 237.580  14
   3  -5  -3 303.986 191.248  14
   3  -5  -3 198.163 255.547  16
  -3  -5   2 160283. 5155.30   1
   3  -5  -2 176946. 5580.04  16
   3   5  -2 162284. 5288.66  14
   3  -5  -2 163760. 4919.57  14
   3  -5  -1 30537.4 1192.39  14
   3   5  -1 30386.6 1564.73  14
   3  -5  -1 30582.2 1750.89   2
  -3  -5   1 30672.4 1345.73  16
   3  -5   0 9496.98 913.783   2
   3   5   0 10012.6 861.390  14
  -3  -5   0 11085.9 758.261  16
   3  -5   0 9624.73 661.204   1
   3  -5   0 9306.60 504.037  14
  -3  -5  -1 189.392 201.904  16
   3  -5   1 329.506 171.631   1
   3  -5   1 376.522 314.637   2
   3   5   1 168.666 225.732  14
   3  -5   2 107809. 3718.38   1
  -3  -5  -2 107444. 3845.17  16
   3  -5   2 100821. 3989.43   2
   3   5   2 103291. 3973.87  14
   3  -5   3 7556.08 866.746   2
   3  -5   3 8255.11 795.428   1
  -3  -5  -3 7494.30 830.108  16
  -3  -5  -4 90615.3 3857.80  16
   3  -5   4 90096.8 3830.28   2
   3  -5   4 98484.0 3754.79   1
   3  -5   5 1414.69 430.662   1
  -3  -5  -5 1977.54 541.966  16
  -3  -5  -6 2958.47 710.308  16
   3  -5   6 2984.10 637.813   1
   3  -5   7 6310.37 555.109  10
  -3   5  -7 7036.16 1050.51  16
   3   5   7 6363.87 525.259   9
  -3  -5  -7 6280.19 1053.14  16
   3  -5   7 5758.85 496.942  13
   3   5   7 5772.78 529.228  13
   3  -5   7 6338.87 471.336  12
   3   5   7 5528.75 502.435   7
   3  -5   8 11360.5 782.728  10
   3   5   8 10166.5 694.638   9
   3  -5   8 9466.51 662.332  13
   3   5   8 10453.6 730.508  13
   3  -5   8 10753.2 640.524  12
   3   5   9 6021.86 547.854  13
   3  -5   9 5602.81 540.716  10
   3  -5   9 5516.36 479.220  13
   3   5   9 5163.61 482.760   9
   3  -5  10 7033.53 555.834  10
   3  -5  10 5851.04 459.177  13
   3   5  10 5924.44 502.826  13
   3   5  10 6435.04 503.160   9
   3  -5  11 294.436 106.272  13
   3   5  11 258.353 140.153   9
   3  -5  11 246.721 141.721  10
   3   5  11 141.748 114.366  13
   3   5  12 11150.5 490.306  13
   3   5  12 11246.8 500.339   9
   3  -5  12 12035.4 506.412  10
   3  -6 -13 6373.66 415.116   5
  -3   6  13 7100.66 394.780  13
  -3  -6  13 6416.87 341.074  12
   3  -6 -12 1424.08 268.113   5
  -3   6  12 1202.93 205.160  13
  -3  -6  12 1299.27 191.098  12
  -3  -6  11 13876.5 729.505  12
   3  -6 -11 14219.8 874.153   5
  -3   6  11 13083.6 755.985  13
  -3  -6  10 52436.1 1851.20   6
   3  -6 -10 56384.3 2122.13   5
  -3   6  10 49548.5 1975.15   9
   3  -6 -10 51573.2 1966.95   3
  -3  -6  10 54980.3 1935.76  12
  -3  -6   9-22.0188 130.214  12
   3  -6  -9-0.68572 159.775   5
   3  -6  -9 237.653 173.501   3
  -3   6   9-34.2252 119.728   9
   3   6  -8 13299.0 1364.91  14
   3  -6  -8 12418.3 828.702   3
   3  -6  -8 13658.2 819.249   5
   3  -6  -8 13114.5 1415.35  14
  -3  -6   8 13593.5 1408.88   1
  -3  -6   8 15619.1 821.976  12
  -3   6   8 11792.9 720.617   9
  -3  -6   7 1047.44 407.278   1
   3  -6  -7-139.199 199.081  16
   3   6  -7 657.421 302.346  14
   3  -6  -7 678.225 304.351  14
   3  -6  -6 53000.8 2863.66  16
  -3  -6   6 62010.2 3000.49   1
   3   6  -6 64665.7 2971.35  14
   3  -6  -6 56203.0 2817.24  14
  -3  -6   5 4538.57 662.922   1
   3  -6  -5 3988.48 652.088  16
   3  -6  -5 4416.25 623.774  14
   3   6  -5 4083.92 622.872  14
   3   6  -4 60828.0 2669.48  14
   3  -6  -4 62054.7 2923.84  16
   3  -6  -4 62797.6 2644.97  14
  -3  -6   4 62736.8 2724.46   1
   3  -6  -3 63048.8 2955.07  16
   3   6  -3 61620.5 2632.95  14
   3  -6  -3 69675.9 2489.51  14
  -3  -6   3 60584.0 2637.39   1
   3   6  -2 10525.8 881.956  14
   3  -6  -2 10057.7 625.380  14
  -3  -6   2 9539.30 814.550   1
   3  -6  -2 9664.42 1003.88  16
   3  -6  -1 4871.38 733.001   2
  -3  -6   1 4791.62 517.097  16
   3   6  -1 4618.56 602.473  14
   3  -6   0 6167.68 775.207   2
  -3  -6   0 6168.23 619.016  16
   3   6   0 6532.46 713.730  14
   3  -6   0 6235.40 584.455   1
   3   6   1 60303.9 2619.29  14
   3  -6   1 60287.0 2362.32   1
  -3  -6  -1 58449.7 2479.54  16
   3  -6   1 57128.1 2716.09   2
   3  -6   2 939.268 359.383   2
   3  -6   2 928.513 285.822   1
   3   6   2 1080.93 378.705  14
  -3  -6  -2 948.546 322.428  16
  -3  -6  -3 20181.2 1493.75  16
   3  -6   3 21951.9 1407.92   1
   3  -6   3 20654.4 1497.12   2
  -3  -6  -4 16643.2 1440.87  16
   3  -6   4 18342.9 1397.75   1
   3  -6   4 17055.7 1383.67   2
   3  -6   5 3915.45 668.782   1
  -3  -6  -5 3495.37 751.519  16
   3  -6   6 95951.0 3161.01  10
   3   6   6 98679.6 3108.22   9
  -3  -6  -6 96266.1 4609.08  16
   3  -6   6 102723. 4292.52   1
   3  -6   6 90315.2 2975.56  12
   3  -6   7 6784.18 591.610  10
   3   6   7 6717.47 549.221   9
   3  -6   7 6994.59 514.785  12
   3   6   7 7099.88 581.773  13
   3  -6   7 6076.49 934.756   1
   3   6   8 12515.9 781.218   9
   3   6   8 12330.3 793.101  13
   3  -6   8 13036.2 843.569  10
   3  -6   8 12202.2 715.467  12
   3   6   9 16192.1 912.670  13
   3  -6   9 19075.5 1014.67  10
   3   6   9 16713.8 906.477   9
   3  -6   9 16487.8 817.482  12
   3  -6  10 6351.28 521.332  10
   3   6  10 6068.54 475.897   9
   3   6  10 5497.92 462.672  13
   3   6  11 6206.82 433.221   9
   3   6  11 6956.88 436.222  13
   3  -6  12 2932.27 205.309  10
   3   6  12 2938.94 206.862   9
  -3  -7  13 297.422 100.895  10
   3  -7 -13 167.930 100.367   5
  -3  -7  13 270.343 80.5815  12
   3  -7 -12 169.430 141.462   5
  -3   7  12 117.642 91.9571  13
  -3  -7  12 274.533 119.599  12
   3  -7 -11 31392.3 1383.80   5
  -3  -7  11 30829.1 1215.66  12
  -3   7  11 29841.2 1236.67  13
   3  -7 -10 6130.37 512.017   3
  -3  -7  10 5828.40 450.464   6
   3  -7 -10 5556.26 547.647   5
  -3   7  10 5558.06 498.330   9
  -3  -7  10 6063.61 488.924  12
   3  -7  -9 42308.4 1765.47   5
   3  -7  -9 41330.5 1746.09   3
  -3   7   9 41894.1 1678.05   9
  -3  -7   9 44059.7 1676.30  12
   3  -7  -8 3711.80 415.060   5
  -3  -7   8 4166.73 805.098   1
   3  -7  -8 3276.21 696.486  14
  -3  -7   8 4308.93 423.054  12
   3  -7  -7 32948.2 1391.62   5
   3  -7  -7 32403.4 2185.55  14
   3  -7  -7 27533.2 2166.69  16
  -3  -7   7 31697.5 2219.16   1
   3  -7  -6 20689.9 1743.86  16
  -3  -7   6 23699.3 1767.02   1
   3  -7  -6 24852.8 1708.30  14
   3   7  -6 26052.1 1721.10  14
  -3  -7   5 104975. 4197.02   1
   3  -7  -5 107283. 4003.30  14
   3   7  -5 105087. 4036.65  14
   3  -7  -4 158.655 276.359  16
  -3  -7   4 332.264 264.008   1
   3   7  -4 151.357 145.387  14
   3  -7  -3 4512.54 742.858  16
   3   7  -3 3994.62 561.446  14
  -3  -7   3 3225.65 536.252   1
   3  -7  -2 24019.6 1701.36  16
   3   7  -2 22313.1 1394.41  14
  -3  -7   2 21838.5 1397.83   1
   3  -7  -1 4181.35 703.111   2
  -3  -7   1 3475.65 506.284  16
   3   7  -1 3914.82 586.293  14
   3  -7  -1 3752.56 497.624   1
   3  -7   0 618.183 317.175   2
  -3  -7   0 889.848 305.503  16
   3  -7   0 957.615 285.679   1
   3   7   0 656.287 288.833  14
   3  -7   1 5410.63 757.580   2
  -3  -7  -1 5308.88 677.380  16
   3  -7   1 5795.90 631.302   1
   3   7   1 5787.07 720.482  14
  -3  -7  -2 31.6883 192.503  16
   3   7   2 385.376 288.538  14
   3  -7   2 18.2085 216.929   2
   3  -7   2 63.9356 151.431   1
  -3  -7  -3 38796.9 2263.33  16
   3  -7   3 40600.0 2105.75   1
   3  -7   3 37033.9 2176.38   2
  -3  -7  -4 9203.53 1108.50  16
   3  -7   4 8953.02 1022.27   1
   3  -7   5 13124.3 1312.60   1
  -3  -7  -5 12886.2 1426.50  16
   3  -7   6 5891.60 546.620  10
   3  -7   6 4049.31 761.265   1
  -3  -7  -6 6657.88 1100.43  16
   3  -7   6 5996.10 479.810  12
   3   7   6 6190.75 513.593   9
   3  -7   7 78660.8 2805.57  10
   3   7   7 82447.4 2747.93   9
   3   7   7 77510.1 2711.41  13
   3  -7   7 82328.4 2669.37  12
   3   7   8 5503.95 495.458   9
   3  -7   8 5491.31 539.022  10
   3   7   8 5382.28 489.448  13
   3  -7   8 5629.08 473.468  12
   3  -7   9 34254.4 1426.83  10
   3   7   9 30795.6 1331.89   9
   3   7   9 29226.1 1296.03  13
   3  -7   9 32060.6 1260.87  12
   3   7  10 361.129 163.529   9
   3  -7  10 154.169 150.538  10
   3   7  10 155.655 106.177  13
   3   7  11 9125.44 514.741   9
   3  -7  11 11134.3 571.841  10
   3  -8 -13 10767.2 494.926   5
  -3  -8  13 11395.3 485.213  10
  -3  -8  13 11246.4 444.479  12
  -3  -8  12 1664.60 194.719  12
   3  -8 -12 1404.08 234.661   5
   3  -8 -11 20654.3 1014.67   5
  -3   8  11 18863.4 855.003  13
  -3  -8  11 20303.5 877.696  12
  -3  -8  11 18511.0 788.892   6
   3  -8 -10 7318.69 609.755   5
   3  -8 -10 7342.05 552.562   3
  -3   8  10 7296.11 520.320  13
  -3  -8  10 7251.78 529.312  12
  -3  -8  10 7538.01 511.557   6
  -3  -8   9 1220.35 246.737   6
   3  -8  -9 1285.43 276.313   5
   3  -8  -9 1037.75 250.719   3
  -3  -8   9 1484.66 264.224  12
   3  -8  -8 3331.66 405.018   5
  -3  -8   8 3903.57 404.061  12
   3   8  -7 25.6690 111.751  11
   3  -8  -7 154.670 146.685   5
  -3  -8   7 136.152 133.255  12
   3  -8  -7 249.055 229.315  16
  -3  -8   7-44.5507 209.346   1
   3  -8  -7 159.214 161.448   4
   3  -8  -6 18192.6 1732.76  16
  -3  -8   6 22688.9 1757.68   1
  -3  -8   5 44918.6 2510.19   1
   3  -8  -5 45061.2 2723.10  16
  -3  -8   4 44.7299 189.269   1
   3  -8  -4 25.6997 246.207  16
   3  -8  -3 34609.7 2268.21  16
   3   8  -3 34679.6 1854.22  14
  -3  -8   3 32802.2 1929.97   1
  -3  -8   2 2800.66 527.550   1
   3  -8  -2 3530.08 688.104  16
   3   8  -2 2800.58 482.744  14
   3  -8  -1 67038.3 3303.11   2
  -3  -8   1 64693.5 2814.41  16
   3   8  -1 63049.6 2766.42  14
   3  -8  -1 62746.1 2696.29   1
   3   8   0 8413.53 847.505  14
   3  -8   0 8257.92 990.711   2
  -3  -8   0 7107.81 818.934  16
   3  -8   0 8258.58 803.391   1
   3  -8   1 54335.4 2887.13   2
  -3  -8  -1 54247.9 2682.11  16
   3   8   1 62396.1 2762.59  14
   3  -8   1 59018.7 2585.03   1
   3  -8   2 1243.57 399.896   2
   3  -8   2 1511.48 380.114   1
  -3  -8  -2 1707.19 453.839  16
   3  -8   3 45961.6 2371.33   1
  -3  -8  -3 42254.7 2530.41  16
   3  -8   3 45708.0 2511.31   2
   3  -8   4 5317.70 817.166   1
  -3  -8  -4 5600.41 910.203  16
   3  -8   5 7330.99 601.437  10
  -3  -8  -5 7768.26 1149.60  16
   3   8   5 8166.16 586.101   9
   3  -8   5 7922.36 1034.18   1
   3  -8   5 8070.13 561.834  12
  -3  -8  -6 27044.0 2316.56  16
   3  -8   6 29103.3 1368.85  10
   3   8   6 30503.5 1336.31   9
   3  -8   6 30718.0 2142.74   1
  -3  -8  -6 30571.0 1251.56   5
   3  -8   6 29451.8 1274.86  12
   3  -8   7 3709.00 441.406  10
   3   8   7 3872.88 425.128   9
   3  -8   7 4205.03 409.052  12
   3  -8   8 11696.4 779.427  10
   3   8   8 12793.1 769.971   9
   3  -8   8 12040.8 718.219  12
   3   8   9 7159.24 504.885  13
   3  -8   9 9219.81 639.947  10
   3   8   9 8305.97 584.046   9
   3  -8   9 8187.55 526.150  12
   3  -8  10 220.384 83.1199  12
   3  -8  10 473.745 177.849  10
   3   8  10 486.171 163.017   9
   3  -8  11 17683.2 726.552  10
   3   8  11 15003.5 665.703   9
   3  -9 -12 24873.4 1015.83   5
  -3  -9  12 25967.8 958.432  10
  -3  -9  12 25923.5 927.032  12
  -3  -9  11 7438.25 459.365  12
   3  -9 -11 7230.12 534.612   5
  -3  -9  11 6665.83 396.568   6
  -3  -9  10 40.5959 102.443   6
   3  -9 -10 174.489 171.547   5
   3  -9 -10-34.2691 130.674   3
  -3  -9  10-66.8045 139.873  12
   3  -9  -9 19683.6 1065.43   3
   3  -9  -9 21560.4 1105.65   5
  -3  -9   9 22092.9 1026.23  12
  -3  -9   9 21817.5 1021.60   6
  -3  -9   8 893.740 218.987   6
   3  -9  -8 633.514 211.609   5
  -3  -9   8 1102.25 234.224  12
   3  -9  -7 4521.66 437.309   5
  -3  -9   7 4458.90 836.431   1
   3  -9  -7 4109.90 446.877   4
  -3  -9   7 4755.95 421.828  12
   3  -9  -7 4228.37 879.704  16
  -3  -9   6 6515.68 960.575   1
   3  -9  -6 6559.14 514.036   5
   3  -9  -6 7752.72 1160.49  16
   3  -9  -6 6687.35 560.186   4
  -3  -9   6 7958.36 525.706  12
   3   9  -6 6919.91 531.864  11
  -3  -9   5 17099.0 1497.26   1
   3  -9  -5 15250.4 1607.01  16
   3  -9  -4 24230.2 2006.34  16
  -3  -9   4 26353.5 1823.95   1
  -3  -9   3 4914.67 755.840   1
   3  -9  -3 5928.99 941.290  16
  -3  -9   2 11110.9 1117.60   1
  -3  -9   1 144.500 313.039   1
   3  -9  -1-55.0897 171.257   1
   3  -9  -1-86.7607 268.444   2
  -3  -9   1 290.204 250.123  16
   3  -9   0 67094.4 3334.89   2
  -3  -9   0 60154.2 2997.63  16
   3  -9   0 66570.8 2905.48   1
   3   9   0 63993.8 2844.64  14
   3  -9   1 1580.11 394.405   1
  -3  -9  -1 1105.45 400.707  16
   3   9   1 1974.16 460.876  14
   3  -9   1 1269.35 473.214   2
   3  -9   2 66155.2 3014.01   1
  -3  -9  -2 62101.9 3213.42  16
   3  -9   2 68405.2 3352.31   2
   3  -9   3 16757.9 1395.47   1
  -3  -9  -3 16624.5 1578.89  16
   3  -9   4 9065.41 604.852  12
  -3  -9  -4 8198.49 1141.34  16
   3  -9   4 7822.71 991.176   1
   3   9   5 8229.50 602.248   9
   3  -9   5 8087.88 632.101  10
  -3  -9  -5 6450.52 1073.77  16
  -3  -9  -5 8460.91 573.232   5
   3  -9   5 7633.95 544.446   6
   3  -9   5 7655.48 571.998  12
   3  -9   5 7480.54 1004.51   1
   3  -9   6 11619.2 789.098  10
  -3  -9  -6 13282.5 741.832   5
   3   9   6 12809.2 791.077   9
   3  -9   6 12331.4 747.283  12
  -3  -9  -7 8308.65 553.065   5
   3  -9   7 7660.37 626.178  10
   3   9   7 8367.43 617.053   9
   3  -9   7 7805.71 578.430  12
   3  -9   8 6830.46 567.835  10
   3   9   8 6968.29 552.484   9
   3  -9   8 6862.65 517.432  12
   3  -9   9 10276.7 652.816  10
   3   9   9 9545.91 617.640   9
   3  -9   9 9937.99 576.215  12
   3   9  10 12080.2 631.965   9
   3  -9  10 13348.6 677.272  10
   3  -9  11 4523.05 293.829  10
   3   9  11 4002.00 263.986   9
   3 -10 -12 7144.59 414.191   5
  -3 -10  12 6316.12 338.139  10
  -3 -10  12 7008.32 355.058  12
   3 -10 -11 2495.83 297.649   5
  -3 -10  11 2421.66 243.303  10
  -3 -10  11 2556.02 249.492  12
  -3 -10  11 2397.07 211.837   6
   3 -10 -10 26023.4 1166.30   5
   3 -10 -10 23158.2 1049.57   3
  -3 -10  10 25483.2 1044.50  12
  -3 -10  10 24290.7 1010.31   6
   3 -10  -9 5044.39 481.992   5
  -3 -10   9 5349.77 442.241  12
   3 -10  -9 4895.48 478.331   3
  -3 -10   9 5382.52 450.735   6
   3 -10  -8 29573.6 1353.14   5
  -3 -10   8 30686.2 1279.98  12
  -3 -10   8 31585.7 1339.06   6
   3 -10  -7-80.0765 127.264   5
  -3 -10   7 111.124 154.453   6
  -3 -10   7 58.5628 134.425  12
   3 -10  -7 46.3247 149.507   4
  -3 -10   6 73585.6 2395.54   6
   3 -10  -6 66901.5 2337.48   5
  -3 -10   6 65466.9 3518.32   1
   3 -10  -6 57633.6 3692.19  16
   3 -10  -6 63247.5 2408.04   4
  -3 -10   6 68479.8 2254.41  12
   3 -10  -5 1168.25 248.648   4
   3 -10  -5 448.998 326.809  16
  -3 -10   5 811.213 382.043   1
   3 -10  -5 1133.65 221.053   5
   3 -10  -4 22494.5 2061.05  16
  -3 -10   4 25739.6 1914.38   1
  -3 -10   3 835.166 392.882   1
   3 -10  -3 17.2028 256.905  16
  -3 -10   2 117.780 279.238   1
   3 -10  -1 13385.8 1470.48   2
  -3 -10   1 13090.6 1333.37   1
   3 -10  -1 13969.7 1231.90   1
   3 -10   0 1931.04 475.250   1
   3 -10   0 2610.88 650.972   2
  -3 -10   0 3299.41 635.288  16
   3 -10   1 2556.27 634.901   2
   3 -10   1 2247.71 497.812   1
  -3 -10  -1 3338.02 708.815  16
   3 -10   2 1034.48 400.030   2
  -3 -10  -2 891.626 422.951  16
   3 -10   2 622.030 296.338   1
   3 -10   3 79.7453 138.751   6
   3 -10   3 533.317 248.815   1
  -3 -10  -3 428.508 160.681   5
   3 -10   3 261.818 150.931  12
  -3 -10  -4 37561.5 2737.84  16
  -3 -10  -4 42625.6 1610.85   5
   3  10   4 43147.2 1638.87   9
   3 -10   4 37823.3 1635.47  10
   3 -10   4 40820.3 1627.24  12
   3 -10   4 41389.0 2526.72   1
   3 -10   4 40479.6 1594.77   6
   3 -10   5 10542.5 682.154   6
   3 -10   5 10628.8 738.407  10
  -3 -10  -5 11168.2 694.651   5
   3  10   5 11703.9 731.739   9
   3 -10   5 10642.4 702.043  12
   3 -10   6 52507.7 2066.54  10
  -3 -10  -6 55982.7 1979.12   5
   3  10   6 57837.2 2061.76   9
   3 -10   6 54249.2 2014.88  12
   3 -10   6 51756.5 1956.64   6
   3 -10   7 2755.01 364.803  10
  -3 -10  -7 3229.30 337.502   5
   3  10   7 3257.01 381.522   9
   3 -10   7 2847.79 350.435  12
   3 -10   8 30800.1 1310.44  10
  -3 -10  -8 29363.8 1159.81   5
   3  10   8 29830.0 1270.28   9
   3 -10   8 29587.7 1226.27  12
   3 -10   9-40.7191 163.215  10
   3  10   9-65.1197 134.757   9
   3 -10   9 2.75770 109.855  12
   3  10  10 15722.1 700.845   9
   3 -10  10 17064.7 743.081  10
   3 -11 -12 7442.82 381.608   5
  -3 -11  12 8120.72 352.325  12
   3 -11 -11 21211.1 893.157   5
  -3 -11  11 19322.0 756.312  10
  -3 -11  11 20875.6 797.040  12
  -3 -11  10 1430.36 201.446   6
   3 -11 -10 1533.28 266.445   5
  -3 -11  10 1386.11 195.998  10
   3 -11 -10 1169.88 191.715   3
  -3 -11  10 1629.10 223.729  12
   3 -11  -9 3789.80 397.826   5
   3 -11  -9 3698.67 393.762   3
  -3 -11   9 3934.02 357.391  12
  -3 -11   9 3754.49 361.632   6
  -3 -11   8 96.4348 146.626   6
   3 -11  -8-34.6139 155.491   5
  -3 -11   8-11.5114 118.864  12
   3 -11  -7 9213.31 639.978   5
   3 -11  -7 8672.54 663.716   4
  -3 -11   7 8981.33 574.004  12
  -3 -11   7 9774.72 662.632   6
  -3 -11   6 490.498 200.227   6
   3 -11  -6 404.401 156.870   5
  -3 -11   6 655.158 163.137  12
   3 -11  -6 339.411 188.717   4
  -3 -11   5 14246.1 1475.17   1
   3 -11  -5 14092.1 787.264   5
   3 -11  -5 13716.3 1684.92  16
   3 -11  -5 14121.6 873.813   4
  -3 -11   5 14580.9 728.016  12
  -3 -11   5 15887.4 843.887   6
  -3 -11   4 28460.5 2137.79   1
   3 -11  -4 26921.7 1174.38   5
   3 -11  -4 26663.0 2327.29  16
   3 -11  -4 28402.2 1314.84   4
  -3 -11   4 29837.6 1232.93   6
  -3 -11   3 23263.1 1896.37   1
   3 -11  -3 24130.9 1163.46   4
   3 -11  -2 16073.8 1721.30   2
  -3 -11   2 13452.3 1444.70   1
   3 -11  -2 13835.0 1326.61   1
  -3 -11   1 690.598 388.685   1
   3 -11  -1 603.570 265.070   1
   3 -11  -1 892.415 457.401   2
   3 -11   0 32390.3 2376.10   2
   3 -11   0 28193.3 1948.07   1
  -3 -11  -1 3922.02 809.551  16
  -3 -11  -1 4622.23 419.803   5
   3 -11   1 4370.35 733.391   1
   3 -11   1 4659.38 446.947   6
   3 -11   2 42993.6 2592.88   1
   3 -11   2 48961.7 1834.98   6
  -3 -11  -2 49823.0 1780.25   5
  -3 -11  -2 41985.2 2852.01  16
   3 -11   2 45597.2 1752.18  12
   3 -11   3 21526.3 1771.09   1
  -3 -11  -3 21710.0 2053.32  16
  -3 -11  -3 24370.9 1118.41   5
   3 -11   3 23992.6 1144.63   6
   3  11   3 24065.1 1103.47   9
   3 -11   3 24094.3 1129.90  12
   3  11   4 442.265 172.938   9
  -3 -11  -4 540.727 174.364   5
   3 -11   4 240.017 143.509   6
   3 -11   4 579.682 215.629  12
   3 -11   5 1130.85 243.962   6
   3 -11   5 1415.89 279.549  10
   3  11   5 1911.89 285.269   9
   3 -11   5 1660.00 289.654  12
  -3 -11  -5 1247.89 241.058   5
  -3 -11  -6 10967.9 681.521   5
   3 -11   6 10660.0 720.850  10
   3  11   6 11276.6 703.467   9
   3 -11   6 10299.7 694.428  12
   3 -11   6 10434.3 677.367   6
   3 -11   7 23476.7 1145.69  10
  -3 -11  -7 25104.1 1082.62   5
   3  11   7 25996.5 1144.03   9
   3 -11   7 24518.0 1114.56  12
   3  11   8 530.677 170.932   9
  -3 -11  -8 347.781 115.708   5
   3 -11   8 457.075 165.237  10
   3 -11   8 431.370 152.081  15
   3 -11   8 435.376 169.730  12
   3  11   9 6465.08 425.792   9
   3 -11   9 6476.52 398.099  12
   3 -11   9 5674.51 426.709  10
   3 -11  10 4166.17 284.916  10
   3  11  10 3609.22 246.473   9
   3 -12 -11 4973.88 340.431   5
  -3 -12  11 4988.08 297.521  12
  -3 -12  10 352.108 114.352   6
   3 -12 -10 163.188 137.765   5
   3 -12 -10 381.980 121.932   3
  -3 -12  10 353.028 118.698  12
   3 -12  -9 6248.63 491.845   5
   3 -12  -9 6370.67 489.170   3
  -3 -12   9 6440.20 435.672  12
  -3 -12   9 6617.99 461.469   6
  -3 -12   8 1269.44 235.475   6
   3 -12  -8 1352.79 252.215   5
  -3 -12   8 1562.00 228.584  12
  -3 -12   7 887.044 204.641   6
   3 -12  -7 950.891 209.142   5
  -3 -12   7 760.641 168.513  12
   3 -12  -7 1101.99 250.164   4
   3 -12  -6 8589.78 597.620   5
   3 -12  -6 8014.63 650.504   4
  -3 -12   6 8872.31 547.102  12
  -3 -12   6 8808.69 623.622   6
   3 -12  -5 38295.9 1525.16   5
   3 -12  -5 37862.5 1658.33   4
  -3 -12   5 40690.1 1570.26   6
   3 -12  -4 260.405 109.663   5
  -3 -12   4 273.075 143.574   6
   3 -12  -4 432.675 176.140   4
   3 -12  -3 4407.48 775.947   1
  -3 -12   3 3117.58 722.640   1
   3 -12  -3 4916.36 486.079   4
  -3 -12   3 4905.70 437.065   6
  -3 -12   2 1834.21 267.689   6
   3 -12  -2 2330.52 333.499   4
   3 -12  -2 1853.28 541.961   1
  -3 -12   2 2231.55 650.382   1
   3 -12  -2 2026.44 645.054   2
   3 -12  -1 42408.0 2930.59   2
  -3 -12   1 39232.7 2693.32   1
   3 -12  -1 38111.6 2433.31   1
   3 -12  -1 40056.9 1664.51   6
   3 -12  -1 43171.6 1689.75   4
  -3 -12   0 5051.66 931.018   1
   3 -12   0 4126.56 736.054   1
  -3 -12   0 6382.38 501.327   5
   3 -12   0 5353.80 977.917   2
   3 -12   0 5423.28 514.150   6
   3 -12   1 60956.8 2245.05   6
  -3 -12  -1 62311.4 2167.12   5
   3 -12   1 56304.4 3125.36   1
  -3 -12  -2 1887.29 284.563   5
   3 -12   2 1698.39 296.250   6
   3 -12   2 1459.48 269.907  12
  -3 -12  -3 16287.3 889.588   5
   3 -12   3 16194.3 893.534  12
   3 -12   3 16559.9 931.167   6
   3 -12   4 168.560 146.534   6
   3  12   4 142.746 133.771   9
   3 -12   4 82.7117 148.729  12
  -3 -12  -4 150.300 154.087   5
   3 -12   5 17565.4 959.186  10
  -3 -12  -5 19365.4 979.065   5
   3  12   5 19511.5 962.724   9
   3 -12   5 19616.1 999.020  12
   3 -12   5 19253.5 983.475   6
   3 -12   6 1792.92 274.224   6
   3 -12   6 1938.15 294.702  10
  -3 -12  -6 1978.84 281.447   5
   3  12   6 2437.53 312.694   9
   3 -12   6 2001.66 301.008  12
   3 -12   7-73.7752 143.948  10
   3  12   7 312.876 145.052   9
   3 -12   7 222.124 166.399  12
  -3 -12  -7 313.303 154.586   5
   3 -12   8 4817.64 393.417  10
  -3 -12  -8 5317.03 363.645   5
   3  12   8 5146.94 387.518   9
   3 -12   8 5213.27 388.435  12
   3 -12   8 5118.20 382.788  15
   3 -12   9 5779.04 365.761  10
   3  12   9 4976.23 322.677   9
   3 -13 -11 7713.76 369.766   5
   3 -13 -10 3074.05 276.990   5
   3 -13 -10 2451.66 212.683   3
  -3 -13  10 3053.00 238.092  12
  -3 -13  10 3010.97 235.071   6
   3 -13  -9 29204.7 1194.41   3
   3 -13  -9 30488.2 1214.82   5
  -3 -13   9 31380.0 1129.75  12
  -3 -13   9 31521.3 1164.06   6
  -3 -13   8 129.771 144.419   6
   3 -13  -8 122.972 124.102   5
  -3 -13   8 66.7785 95.4991  12
   3 -13  -7 22987.4 1060.31   5
   3 -13  -7 22838.1 1109.60   4
  -3 -13   7 22401.0 962.027  12
  -3 -13   7 23885.1 1073.86   6
  -3 -13   6 615.784 188.771   6
   3 -13  -6 420.055 169.830   5
  -3 -13   6 717.730 160.308  12
   3 -13  -6 651.334 207.178   4
   3 -13  -5 13496.1 863.520   4
   3 -13  -5 13933.7 767.592   5
  -3 -13   5 13921.4 787.728   6
   3 -13  -4 6.79215 170.355   4
  -3 -13   4 220.404 156.908   6
   3 -13  -4 13.6986 102.498   5
   3 -13  -3-24.0557 169.624   4
  -3 -13   3-125.570 143.169   6
   3 -13  -2 19741.8 1037.29   4
  -3 -13   2 17838.6 898.929   6
   3 -13  -1 31958.9 1411.12   4
  -3 -13   1 31654.4 1341.98   5
   3 -13  -1 32315.7 2614.08   2
   3 -13  -1 30238.6 1400.61   6
  -3 -13   0 14504.6 819.573   5
   3 -13   0 14241.4 881.515   6
   3 -13   1 3487.54 430.610   6
  -3 -13  -1 3842.31 401.141   5
  -3 -13  -2 3378.96 376.816   5
   3 -13   2 3862.30 454.331   6
  -3 -13  -3 23966.2 1142.93   5
   3 -13   3 24602.0 1206.93   6
   3 -13   3 23741.8 1126.67  12
   3 -13   4 13.4118 178.690   6
  -3 -13  -4 126.735 154.028   5
   3 -13   4-39.3664 179.865  12
  -3 -13  -5 7974.79 580.029   5
   3  13   5 7797.56 533.446   9
   3 -13   5 7164.30 559.241   6
   3 -13   5 7888.47 576.421  12
  -3 -13  -6 663.721 182.304   5
   3  13   6 897.722 186.489   9
   3 -13   6 654.461 185.246   6
   3 -13   6 655.516 197.197  12
   3 -13   7 40917.0 1515.55  10
  -3 -13  -7 44216.8 1536.94   5
   3  13   7 43178.8 1508.02   9
   3 -13   7 45468.5 1565.66  12
   3 -13   8 680.132 133.339  10
   3 -13   8 558.037 130.741  15
   3  13   8 717.233 127.966   9
  -3 -13  -8 557.916 116.488   5
   3 -14 -10 3564.54 253.138   5
  -3 -14  10 3642.99 222.119  12
  -3 -14  10 3662.23 225.343   6
  -3 -14   9 1486.39 187.717   6
   3 -14  -9 1611.14 208.728   5
  -3 -14   9 1466.44 170.637  12
   3 -14  -9 1443.43 198.132   3
   3 -14  -8 19567.9 944.053   3
   3 -14  -8 19813.5 900.792   5
  -3 -14   8 20984.1 841.535  12
  -3 -14   8 21715.7 910.388   6
  -3 -14   7 3351.03 348.102   6
   3 -14  -7 3135.98 358.357   4
  -3 -14   7 3865.76 315.339  12
   3 -14  -7 3706.91 354.377   5
   3 -14  -6 38200.3 1477.29   5
   3 -14  -6 37342.8 1561.35   4
  -3 -14   6 39779.5 1497.49   6
  -3 -14   5 7914.60 563.130   6
   3 -14  -5 8691.10 563.272   5
   3 -14  -5 7922.40 625.399   4
   3 -14  -4 3764.34 439.513   4
   3 -14  -4 3941.88 363.251   5
  -3 -14   4 4046.05 399.512   6
   3 -14  -3 197.496 187.635   4
  -3 -14   3-143.111 137.404   6
   3 -14  -2 3974.98 441.147   4
  -3 -14   2 4014.33 411.607   5
  -3 -14   2 3651.60 366.965   6
  -3 -14   1 12128.1 744.730   5
   3 -14  -1 12180.0 792.845   4
   3 -14   0 596.803 224.146   6
   3 -14   0 692.337 225.567   4
  -3 -14   0 659.937 201.912   5
   3 -14   1 742.832 251.754   6
  -3 -14  -1 585.651 204.361   5
   3 -14   2 3298.65 433.488   6
  -3 -14  -2 3742.15 400.071   5
  -3 -14  -3 15105.2 852.327   5
   3 -14   3 15479.7 914.259   6
  -3 -14  -4 6557.35 525.464   5
   3 -14   4 6134.46 537.608   6
   3 -14   5 6742.34 502.707  12
  -3 -14  -5 6844.38 509.673   5
   3 -14   5 6070.71 497.908   6
  -3 -14  -6 39318.6 1390.11   5
   3 -14   6 33184.9 1316.79   6
  -3 -14  -7 141.708 96.2011   5
   3 -14   7 310.795 137.664  15
   3 -14   8 7490.55 373.796  15
  -3 -14  -8 6466.91 324.531   5
  -3 -15   9 138.764 78.1714   6
   3 -15  -9 109.448 76.9624   5
   3 -15  -9 127.747 64.7357   3
   3 -15  -8 3050.72 270.492   5
  -3 -15   8 2941.78 230.330  12
   3 -15  -8 2990.09 291.965   3
  -3 -15   8 3316.70 285.973   6
   3 -15  -7 5136.83 378.794   5
  -3 -15   7 4313.84 308.238   5
  -3 -15   7 5091.73 391.468   6
   3 -15  -6 3514.80 329.941   5
   3 -15  -6 3528.50 375.632   4
  -3 -15   6 3139.14 323.907   6
  -3 -15   5 197.987 148.833   6
   3 -15  -5-78.1590 96.4475   5
   3 -15  -5-112.943 174.807   4
   3 -15  -4 32216.9 1274.06   5
  -3 -15   4 32678.2 1312.25   5
   3 -15  -4 34389.9 1448.57   4
  -3 -15   4 33345.5 1327.36   6
   3 -15  -3 1192.57 267.695   4
  -3 -15   3 801.943 191.158   6
  -3 -15   3 900.437 211.606   5
  -3 -15   2 7829.42 570.111   5
   3 -15  -2 8655.25 654.923   4
  -3 -15   2 8052.84 550.254   6
   3 -15  -1 902.622 221.675   4
  -3 -15   1 818.715 216.568   5
   3 -15   0 34502.4 1472.22  15
   3 -15   0 37115.3 1535.64   4
  -3 -15   0 34787.2 1437.64   5
   3 -15   1 618.027 242.762   6
   3 -15   1 552.455 199.396   4
  -3 -15  -1 523.411 205.110   5
  -3 -15  -2 31786.6 1345.38   5
   3 -15   2 31899.3 1434.38   6
   3 -15   3 266.644 195.936   6
  -3 -15  -3 401.871 186.768   5
  -3 -15  -4 6027.36 475.405   5
   3 -15   4 5796.47 493.907   6
  -3 -15  -5 4065.02 369.124   5
   3 -15   5 3959.44 369.756   6
   3 -15   6 5264.73 410.607  15
  -3 -15  -6 4966.58 364.433   5
   3 -15   7 81.6947 96.9891  15
  -3 -15  -7 18.7460 74.3783   5
   3 -16  -8 19503.5 742.068   5
   3 -16  -8 20400.6 784.838   3
  -3 -16   7 3692.68 305.318   6
   3 -16  -7 3734.39 283.063   5
   3 -16  -6 9078.43 494.191   5
   3 -16  -6 9190.44 553.674   4
  -3 -16   6 9449.16 533.209   6
  -3 -16   6 8708.27 456.582   5
   3 -16  -5 98.2366 101.418   5
  -3 -16   5 9.36079 134.661   6
  -3 -16   5 84.6829 101.927   5
   3 -16  -5 44.5726 144.718   4
   3 -16  -4 338.661 171.702   4
  -3 -16   4 302.502 137.239   5
  -3 -16   4 490.677 161.901   6
  -3 -16   3 14098.6 738.143   5
  -3 -16   3 14959.1 757.473   6
   3 -16  -3 14038.6 814.441   4
  -3 -16   2 4958.84 427.437   5
  -3 -16   2 5681.32 432.248   6
   3 -16  -2 5245.81 484.821   4
   3 -16  -1 10380.6 698.428   4
  -3 -16   1 10807.1 614.886   4
  -3 -16   1 11117.2 668.260   5
   3 -16   0-48.4709 150.510   4
  -3 -16   0-10.7679 135.704   5
   3 -16   0 335.141 159.133  15
  -3 -16  -1 12367.8 718.145   5
   3 -16   1 12697.4 736.757  15
   3 -16   1 12428.4 758.120   4
   3 -16   2 2317.16 348.384   6
   3 -16   2 2551.74 324.646   4
  -3 -16  -2 2342.77 314.479   5
  -3 -16  -3 15387.2 781.775   5
   3 -16   3 14618.0 818.680   6
   3 -16   3 14996.9 787.554   4
   3 -16   4 1104.04 193.615   4
  -3 -16  -4 1319.83 219.388   5
   3 -16   5 72.1058 87.4995   4
  -3 -16  -5 73.7609 111.114   5
   3 -16   5-78.8127 128.644  15
   3 -16   6 17908.1 740.842  15
  -3 -16  -6 16317.7 675.684   5
   3 -16   7 122.591 62.8363  15
   3 -17  -7 7130.35 392.154   3
  -3 -17   7 7554.77 390.018   6
  -3 -17   6 1913.37 217.339   6
  -3 -17   5 18872.8 785.629   6
   3 -17  -5 19037.3 819.630   4
  -3 -17   4 1143.48 189.039   6
  -3 -17   4 963.202 160.816   5
   3 -17  -4 1001.91 199.328   4
  -3 -17   3 7809.78 485.030   5
   3 -17  -3 9083.25 577.685   4
  -3 -17   3 8408.65 510.206   6
  -3 -17   2 362.367 120.082   4
   3 -17  -2 203.767 152.866   4
  -3 -17   2 317.914 134.283   5
   3 -17  -1-103.216 167.575   4
  -3 -17   1 85.5651 122.296   5
   3 -17   0 2767.20 329.827   4
  -3 -17   0 2469.08 292.387   5
   3 -17   1 373.607 175.679   4
   3 -17   1 336.570 138.330  15
  -3 -17  -1 372.502 152.576   5
   3 -17   2 203.861 143.092   4
   3 -17   2 143.268 122.728  15
  -3 -17  -2 340.792 151.677   5
  -3 -17  -3 13332.6 661.964   5
   3 -17   3 13578.0 691.215  15
   3 -17   3 12588.7 650.600   4
   3 -17   4 107.602 91.2825   4
   3 -17   4 74.1252 107.549  15
  -3 -17  -4 43.0033 96.0894   5
  -3 -17  -5 17102.5 689.792   5
   3 -17   5 18580.0 743.547  15
   3 -17   6 3573.13 231.458  15
  -3 -18   6 289.415 83.6311   6
   3 -18  -6 371.388 91.8605   3
  -3 -18   5 3459.48 256.659   6
   3 -18  -5 3386.89 258.012   4
  -3 -18   5 3317.17 249.914   4
   3 -18  -4 5550.73 338.321  11
  -3 -18   4 6266.05 336.390   5
   3 -18  -4 7156.18 419.865   4
  -3 -18   4 6495.48 378.562   6
  -3 -18   4 6864.43 378.999   4
  -3 -18   3 13915.9 603.982   5
   3 -18  -3 14451.0 684.369   4
  -3 -18   3 13726.8 602.491   6
  -3 -18   3 13877.9 596.695   4
   3 -18  -2 1399.59 216.918   4
  -3 -18   2 1191.40 176.843   5
  -3 -18   1 10367.6 545.574   5
   3 -18  -1 10713.1 594.887   4
   3 -18   0-10.5415 113.188   4
  -3 -18   0 166.227 122.372   5
  -3 -18  -1 16918.6 743.476   5
   3 -18   1 16378.7 756.439   4
  -3 -18  -2 8440.51 463.388   5
   3 -18   2 7138.26 403.890  15
   3 -18   2 8438.05 469.927   4
  -3 -18  -3 4342.51 301.433   5
   3 -18   3 4123.07 288.529   4
   3 -18   3 4160.94 285.298  15
  -3 -18  -4 4008.45 257.022   5
   3 -18   4 3883.35 256.955  15
   3 -19  -4 7180.91 344.889   4
   3 -19  -3-97.2278 82.8977   4
  -3 -19   2 9298.00 424.139   5
   3 -19  -2 11111.7 502.506   4
  -3 -19   1 2291.18 198.636   5
   3 -19  -1 2379.59 222.830   4
  -3 -19   0 13667.3 581.213   5
   3 -19   0 14786.6 620.417   4
   3 -19   1 1457.43 163.558   4
  -3 -19  -1 1649.23 167.541   5
   3 -19   2 3580.96 233.222   4
  -3 -19  -2 3658.91 238.192   5
  -4   0  14 626.051 114.363  13
  -4   0  13 1.91370 125.849  13
  -4   0  12 2140.96 246.739  12
   4   0 -11-84.4902 185.235   5
   4   0 -11-92.1841 136.756   3
  -4   0  11 17.8177 114.366  12
   4   0 -10 13482.5 819.186   3
   4   0 -10 13828.0 883.180   5
   4   0  -9-245.228 201.600   3
   4   0  -9-300.573 267.934  14
   4   0  -9-130.976 166.695   5
   4   0  -8 64544.9 3552.18  14
   4   0  -7 455.994 323.259  14
   4   0  -6 29697.3 1968.18  14
   4   0  -5-0.90199 108.749   2
   4   0  -5 225.987 243.539  14
   4   0  -4 132270. 4607.84  14
   4   0  -4 122848. 4276.65   2
   4   0  -3-0.96463 211.880  14
   4   0  -3 112.621 185.257   2
   4   0  -2 254700. 6482.43  14
   4   0  -2 259640. 6632.99   2
   4   0  -1 147.904 257.506   2
   4   0  -1-5.01293 184.201  14
   4   0   0 745.125 323.888   2
   4   0   0 679.436 268.819  14
   4   0   1-30.3554 293.028   2
  -4   0  -1-95.2729 166.321  16
   4   0   1 1.88152 218.146  14
   4   0   2 817.101 385.671   2
   4   0   2 650.952 308.219  14
  -4   0  -2 668.319 258.951  16
   4   0   3 287.308 267.557  14
  -4   0  -3 67.8945 178.151  16
  -4   0  -4 14841.1 1212.38  16
  -4   0  -5-107.379 230.016  16
  -4   0  -6 55948.2 3023.38  16
   4   0   7-172.713 134.358  10
   4   0   7 18.9496 157.253   7
   4   0   7 309.424 213.381  13
   4   0   7-91.1228 107.432   9
   4   0   8 8462.58 627.063  10
   4   0   8 8654.48 604.374   9
   4   0   8 8541.62 694.582  13
   4   0   9-97.9011 193.300  13
   4   0   9 49.3715 126.754  10
   4   0   9 24.8657 104.462   9
   4   0  10 62861.9 2159.34   9
   4   0  10 72682.2 2420.43  13
   4   0  11-58.8040 122.138  13
   4   0  12 15973.5 625.609  13
  -4  -1  14 16251.2 633.548  13
  -4   1  14 16448.8 652.823  13
  -4  -1  13 138.546 119.502  13
  -4   1  13 32.5273 114.804  13
  -4  -1  12 11688.9 615.694  12
  -4   1  12 11192.4 573.845  12
   4  -1 -11 416.247 164.461   3
   4   1 -11 511.431 171.690   3
  -4  -1  11 488.575 166.021  12
   4  -1 -11 394.335 232.368   5
  -4   1  11 357.290 146.838  12
   4   1 -11 339.689 216.899   5
   4   1 -10 32647.4 1474.27   5
   4  -1 -10 32262.3 1483.66   5
   4   1 -10 30588.6 1365.77   3
   4  -1 -10 30969.5 1397.32   3
   4   1  -9 7181.44 611.756   5
   4  -1  -9 8209.96 633.812   5
   4   1  -9 7234.68 572.602   3
   4  -1  -9 7183.17 591.976   3
   4  -1  -9 8397.70 1218.44  14
   4   1  -9 6261.72 1058.17  14
   4  -1  -8 12498.8 1411.70  14
   4   1  -8 10331.7 1292.54  14
   4   1  -7 50111.1 2881.45  14
   4  -1  -7 50351.1 2849.13  14
   4   1  -6 5927.62 860.578  14
   4  -1  -6 5957.15 843.918  14
   4  -1  -5 85303.5 3319.12   2
   4   1  -5 92485.6 3707.83  14
   4  -1  -5 83604.9 3592.55  14
   4  -1  -4 6538.09 704.238   2
   4   1  -4 7387.02 809.648  14
   4  -1  -4 7565.15 800.497  14
   4   1  -4 7016.52 627.722   2
  -4  -1   4 7305.71 524.844   1
  -4  -1   3 895.298 142.558   1
   4   1  -3 944.155 329.010  14
   4  -1  -3 734.299 272.955  14
   4   1  -3 871.938 268.344   2
   4  -1  -3 1104.88 329.846   2
   4  -1  -2 142012. 4591.97  14
   4   1  -2 142837. 4692.16  14
   4   1  -2 138588. 4647.52   2
   4  -1  -2 142949. 4836.15   2
  -4  -1   1 21808.4 853.275  16
   4  -1  -1 21100.9 1202.70  14
   4   1  -1 22662.4 1291.41  14
   4   1  -1 22024.6 1330.35   2
   4  -1  -1 21509.2 1401.84   2
   4  -1   0 332.871 215.887  14
   4   1   0 163.403 261.497   2
   4  -1   0 351.506 305.067   2
  -4  -1   0 406.881 139.323  16
   4   1   0 433.471 231.025  14
   4   1   1 890.995 391.584   2
   4  -1   1 718.357 347.777   2
  -4  -1  -1 735.495 231.491  16
   4  -1   1 1505.37 333.761  14
   4   1   1 1449.57 372.804  14
   4  -1   2 99249.7 4064.22   2
   4   1   2 101735. 3780.02  14
  -4  -1  -2 100061. 3621.68  16
   4  -1   2 101023. 3699.45  14
   4  -1   3 3266.68 658.517   2
  -4  -1  -3 2678.87 476.807  16
   4   1   3 3401.22 595.127  14
  -4   1  -3 3048.24 529.849  16
  -4   1  -4 92773.3 3686.32  16
  -4  -1  -4 84782.9 3585.28  16
  -4  -1  -5 17692.2 1456.81  16
  -4   1  -5 17918.1 1478.06  16
  -4  -1  -6 14490.8 1413.04  16
  -4   1  -6 13801.6 1417.39  16
   4  -1   7 14174.8 866.349  10
  -4  -1  -7 16364.2 1613.24  16
   4   1   7 15954.3 959.860   7
   4   1   7 15882.9 858.682   9
  -4   1  -7 15707.7 1583.62  16
   4  -1   7 15173.9 910.000  13
   4   1   7 14943.9 904.066  13
   4  -1   7 15675.9 967.940   7
   4  -1   8 7051.22 582.261  10
   4   1   8 6243.39 521.018   9
   4  -1   8 6625.23 605.235  13
   4   1   8 6990.23 610.986  13
   4  -1   9 22030.4 1087.65  10
   4   1   9 21325.9 1047.31   9
   4  -1   9 24949.2 1223.08  13
   4   1   9 25173.3 1234.92  13
   4  -1  10 1281.82 217.260  10
   4   1  10 1433.01 293.448  13
   4  -1  10 1597.96 295.126  13
   4   1  10 1494.68 232.342   9
   4   1  11 6319.02 454.406  13
   4  -1  11 6052.66 440.915  13
   4   1  12 5106.34 292.009  13
   4  -1  12 4261.37 267.181  13
  -4  -2  14 534.387 92.3289  13
  -4   2  14 679.515 114.079  13
  -4  -2  13 26023.8 990.175  13
  -4   2  13 25715.9 1012.19  13
   4  -2 -12-57.3270 178.877   5
  -4  -2  12 19.4940 126.400  13
  -4  -2  12 30.2313 96.0315  12
   4  -2 -11 13640.9 892.002   5
   4  -2 -11 12815.9 757.858   3
  -4  -2  11 12751.1 717.887  12
  -4   2  11 11873.8 666.258  12
   4   2 -10 11768.4 744.979   3
   4  -2 -10 11453.7 780.194   3
   4  -2 -10 13332.9 859.045   5
   4   2 -10 12160.1 815.007   5
  -4  -2  10 12780.4 766.581  12
   4   2  -9 79546.2 2757.69   5
   4  -2  -9 80844.4 2783.72   5
   4   2  -9 78903.6 2679.86   3
   4  -2  -9 77842.7 2768.24   3
   4  -2  -9 81737.1 4288.95  14
   4   2  -9 79513.0 4175.71  14
   4  -2  -8 2166.85 575.125  14
   4   2  -8 2014.96 614.886  14
   4   2  -7 639.229 343.200  14
   4  -2  -7 601.432 347.165  14
   4   2  -6 336.575 243.156  14
   4  -2  -6 324.849 227.197   2
  -4  -2   6 156.586 139.286   1
   4  -2  -6 264.682 296.691  14
   4  -2  -5 51.5037 209.361   2
   4   2  -5-7.24468 229.388  14
   4  -2  -5-186.905 201.857  14
  -4  -2   5-172.379 130.120   1
   4  -2  -4 26999.8 1635.35   2
   4   2  -4 28542.2 1670.20  14
   4  -2  -4 24174.4 1219.91  16
  -4  -2   4 29198.0 1280.31   1
   4  -2  -4 26569.1 1594.07  14
   4  -2  -3 24925.2 1545.61   2
   4   2  -3 24258.0 1455.23  14
  -4  -2   3 24573.6 1048.19   1
   4   2  -3 22949.2 1232.30   2
   4  -2  -3 25784.0 1410.73  14
   4  -2  -2 4907.58 715.645   2
  -4  -2   2 5076.04 339.706   1
   4  -2  -2 5083.02 558.910  14
   4   2  -2 4783.81 610.985  14
   4   2  -2 4760.76 559.239   2
  -4  -2   1 59553.9 1817.16  16
   4  -2  -1 58495.3 2306.70  14
   4   2  -1 59801.7 2445.67  14
  -4  -2   1 55106.8 1801.88   1
   4   2  -1 57649.6 2466.20   2
   4  -2  -1 59202.6 2626.81   2
   4   2   0 2877.73 532.750   2
  -4  -2   0 2699.48 320.639  16
   4  -2   0 2694.13 564.371   2
   4  -2   0 2651.76 399.773  14
   4   2   0 3008.32 498.551  14
  -4  -2  -1 104667. 3470.63  16
   4   2   1 101716. 3783.12  14
   4  -2   1 105685. 3615.07  14
   4  -2   1 98071.7 3961.79   2
   4  -2   2 853.567 371.432   2
  -4  -2  -2 621.727 249.208  16
   4  -2   2 937.071 293.336  14
   4   2   2 765.851 329.442  14
  -4  -2  -3 204729. 6483.11  16
   4   2   3 199467. 6666.60  14
   4  -2   3 188484. 6889.24   2
  -4   2  -4 20643.9 1540.59  16
  -4  -2  -4 19611.7 1449.35  16
  -4   2  -5 8878.54 1063.58  16
  -4  -2  -5 7012.05 930.451  16
   4  -2   6 817.443 224.385   7
   4   2   6 738.505 205.053  13
   4   2   6 760.541 219.621   7
  -4  -2  -6 1543.54 516.780  16
  -4   2  -6 731.267 371.513  16
   4  -2   7 12054.7 840.905   7
   4  -2   7 11441.8 766.661  10
  -4   2  -7 12911.2 1448.41  16
  -4  -2  -7 12367.9 1434.36  16
   4   2   7 12370.9 757.371   9
   4  -2   7 11282.3 781.402  13
   4   2   7 12004.6 792.765  13
   4   2   7 11871.0 811.315   7
   4  -2   8 3767.81 433.324  10
   4   2   8 3725.54 399.662   9
   4  -2   8 3461.45 433.645  13
   4   2   8 3671.78 453.960  13
   4  -2   9 9830.01 678.038  10
   4   2   9 10496.1 667.386   9
   4  -2   9 9778.93 723.653  13
   4   2   9 9869.39 730.048  13
   4  -2  10 8481.48 566.358  10
   4   2  10 8745.57 568.734   9
   4  -2  10 9589.65 644.651  13
   4   2  10 9969.88 662.865  13
   4   2  11 5725.62 381.671   9
   4  -2  11 6599.12 446.137  13
   4   2  11 6751.78 461.190  13
   4   2  12 54.8382 66.3030  13
  -4  -3  14 2804.59 208.072  10
  -4   3  14 3125.35 226.117  13
  -4  -3  13-16.9982 89.9818  13
   4  -3 -13 81.2169 143.725   5
  -4   3  13 28.0211 103.386  13
  -4  -3  13 93.5885 82.7513  12
  -4  -3  12 3910.26 346.719  12
  -4  -3  12 4475.56 396.405  13
   4  -3 -11 840.309 224.795   3
   4  -3 -11 975.960 275.124   5
  -4  -3  11 759.187 204.535  12
   4   3 -10 851.164 221.308   3
   4  -3 -10 1162.86 288.653   5
   4  -3 -10 1135.12 267.336   3
  -4  -3  10 1051.92 231.636  12
   4   3  -9 76464.8 2680.24   5
   4   3  -9 77328.4 2615.20   3
   4  -3  -9 78370.2 2709.27   5
   4  -3  -9 75433.3 2734.14   3
   4   3  -9 75393.9 4025.55  14
   4  -3  -9 77462.8 4128.90  14
   4  -3  -8-343.335 252.433  14
   4   3  -8-57.5845 152.213  14
   4   3  -7 44938.3 2682.41  14
   4  -3  -7 41740.3 2545.81  14
  -4  -3   7 46032.5 2355.81   1
   4   3  -6 15158.5 1367.48  14
   4  -3  -6 15282.4 1323.83  14
  -4  -3   6 15493.0 1146.92   1
   4   3  -5 75867.6 3282.80  14
   4  -3  -5 74789.5 3166.42  14
  -4  -3   5 78414.6 2859.55   1
   4   3  -4 865.204 337.096  14
   4  -3  -4 539.060 303.894   2
  -4  -3   4 378.861 186.937   1
   4  -3  -4 539.134 195.911  16
   4  -3  -4 594.432 269.999  14
   4  -3  -3 106026. 4031.38   2
   4   3  -3 98331.0 3759.58  14
   4  -3  -3 107481. 3683.22  14
  -4  -3   3 98795.8 3275.46   1
   4  -3  -2 3634.94 620.470   2
   4   3  -2 3630.71 522.617  14
   4  -3  -2 3491.03 452.034  14
  -4  -3   2 3229.56 339.894   1
   4  -3  -1 26428.4 1635.40   2
   4   3  -1 23746.3 1443.32  14
  -4  -3   1 23698.8 1047.19   1
  -4  -3   1 23961.8 953.796  16
   4  -3  -1 24967.4 1274.05  14
   4  -3   0 34056.8 1540.42  14
  -4  -3   0 32479.8 1375.29  16
   4   3   0 30618.7 1730.35  14
   4  -3   0 31298.3 1868.05   2
  -4  -3  -1 23677.8 1264.08  16
   4   3   1 23474.0 1463.13  14
   4  -3   1 23836.1 1270.36  14
   4  -3   1 23619.4 1050.59   1
   4  -3   1 23340.6 1586.14   2
  -4  -3  -2 30698.8 1616.36  16
   4   3   2 30414.4 1777.99  14
   4  -3   2 30663.1 1589.45  14
   4  -3   2 29255.1 1894.84   2
   4  -3   2 31323.1 1415.27   1
   4   3   3 607.056 281.548  14
   4  -3   3 56.6036 223.810   2
   4  -3   3 504.399 198.876   1
  -4  -3  -3 556.990 271.550  16
   4  -3   4 6627.29 936.931   2
  -4  -3  -4 5224.18 758.817  16
  -4   3  -5 49643.4 2764.13  16
  -4  -3  -5 44075.3 2588.04  16
  -4  -3  -6 547.248 323.756  16
   4   3   6 459.331 163.654   9
   4  -3   6 282.431 154.187  10
  -4   3  -6 923.127 397.456  16
   4   3   6 510.457 186.678  13
   4  -3   6 445.637 171.297   7
   4   3   6 577.426 204.497   7
   4  -3   6 276.231 154.224  13
   4  -3   7 31756.7 1449.40  10
   4  -3   7 30938.0 1447.15  13
   4   3   7 34487.6 1508.67  13
   4   3   7 33944.9 1506.02   7
   4   3   7 35524.2 1449.28   9
   4  -3   8 1139.39 275.445  10
   4   3   8 1344.29 266.797   9
   4   3   8 1376.83 294.209  13
   4  -3   8 1009.53 251.129  13
   4  -3   9 26735.5 1248.18  10
   4   3   9 25242.1 1164.37   9
   4  -3   9 25352.0 1223.06  13
   4   3   9 26385.9 1267.06  13
   4  -3  10 91.7525 130.953  10
   4   3  10 311.762 163.556   9
   4  -3  10 227.737 152.195  13
   4   3  10 489.167 210.793  13
   4  -3  11 12706.6 632.627  13
   4  -3  11 12592.2 603.381  10
   4   3  11 13219.3 625.610   9
  -4  -4  14 1874.15 163.326  10
  -4   4  14 1854.74 162.865  13
   4  -4 -13 11406.4 636.346   5
  -4  -4  13 11082.9 506.774  13
  -4   4  13 11029.3 573.906  13
  -4  -4  13 10614.3 497.422  12
  -4   4  12 1785.54 270.458  13
   4  -4 -12 1573.05 313.005   5
  -4  -4  12 2311.67 264.856  12
  -4  -4  12 2000.09 248.824  13
   4  -4 -11 28415.0 1334.93   5
   4  -4 -11 24974.6 1173.80   3
  -4  -4  11 26030.3 1129.27  12
   4  -4 -10 8065.08 666.601   5
   4  -4 -10 8075.71 654.313   3
  -4  -4  10 8153.13 590.039  12
   4   4  -9 1426.07 254.974   3
   4  -4  -9 1313.74 278.575   5
   4   4  -9 303.235 255.093  14
   4  -4  -9 1585.13 518.080  14
   4  -4  -9 1013.98 255.813   3
  -4  -4   9 1506.15 267.236  12
  -4  -4   8 30407.4 2033.14   1
   4   4  -8 30451.4 1292.11   3
   4  -4  -8 30459.5 1325.32   5
   4  -4  -8 30978.3 1416.05   3
   4   4  -8 28978.3 2217.92  14
   4  -4  -8 28218.4 2168.42  14
   4   4  -7 8298.08 1075.16  14
   4  -4  -7 8403.19 1055.12  14
  -4  -4   7 8291.93 943.149   1
   4  -4  -6 22591.7 1654.03  14
   4   4  -6 24078.2 1757.02  14
  -4  -4   6 24169.2 1539.58   1
   4  -4  -5 30237.6 1775.66  16
   4   4  -5 35573.5 2061.43  14
   4  -4  -5 35144.7 1992.85  14
  -4  -4   5 36946.6 1836.78   1
  -4  -4   4 127854. 4228.61   1
   4  -4  -4 134355. 4566.73  14
   4   4  -4 124768. 4592.62  14
  -4  -4   3 3972.68 460.736   1
   4  -4  -3 4209.10 527.686  14
   4  -4  -3 3408.83 625.460   2
   4   4  -3 3858.13 588.413  14
   4  -4  -2 62534.7 2888.08   2
   4  -4  -2 59755.0 2351.73  14
   4   4  -2 62179.9 2657.22  14
  -4  -4   2 63160.2 2281.68   1
   4  -4  -1 230199. 7638.63   2
   4  -4  -1 235785. 6929.33  14
   4   4  -1 234708. 7357.10  14
   4  -4   0 26623.2 1271.69  14
   4   4   0 26701.4 1581.37  14
   4  -4   0 24774.1 1063.72   1
  -4  -4   0 26631.4 1262.18  16
   4  -4   0 24582.4 1667.63   2
   4  -4   1 1943.98 318.005  14
  -4  -4  -1 1954.71 352.142  16
   4  -4   1 1771.47 284.873   1
   4  -4   1 1845.17 497.550   2
   4   4   1 1881.56 427.669  14
   4  -4   2 444.007 173.491   1
   4  -4   2 58.8650 268.480   2
  -4  -4  -2 183.359 199.926  16
   4   4   2 341.901 277.155  14
  -4  -4  -3 51199.8 2529.89  16
   4  -4   3 55621.7 2340.43   1
   4   4   3 49862.7 2626.11  14
   4  -4   3 50069.5 2711.41   2
  -4  -4  -4 33313.7 2078.82  16
   4  -4   4 32840.8 2189.47   2
   4  -4   4 34543.9 1879.46   1
  -4  -4  -5 9811.49 1161.59  16
   4   4   6 13590.9 839.347   7
   4  -4   6 13098.1 823.189  10
  -4   4  -6 16126.1 1587.28  16
  -4  -4  -6 14625.1 1527.47  16
   4   4   6 16078.2 849.544   9
   4  -4   6 14018.6 889.624   7
   4  -4   6 13431.2 827.603  13
   4   4   6 14325.5 870.655  13
   4  -4   7-18.2993 149.510  10
   4   4   7 234.736 170.816   9
   4   4   7 21.9967 142.147   7
   4  -4   7 139.366 154.003  13
   4   4   7 336.653 191.941  13
   4  -4   8 21753.4 1161.04  10
   4   4   8 22154.8 1080.08   9
   4  -4   8 19776.9 1064.09  13
   4   4   8 22514.7 1161.48  13
   4  -4   9 8330.27 635.129  10
   4   4   9 7407.33 559.452   9
   4  -4   9 6931.14 557.389  13
   4   4   9 7748.68 618.412  13
   4  -4  10 15381.8 796.132  13
   4  -4  10 16761.6 857.114  10
   4   4  10 15678.1 795.991   9
   4   4  10 16901.6 863.188  13
   4  -4  11 235.050 102.677  10
   4  -4  11 5.48107 86.9271  13
   4   4  11 74.0515 103.155  13
   4   4  11 193.144 107.024   9
   4  -5 -13-44.5276 124.000   5
  -4   5  13-68.1748 97.3175  13
  -4  -5  13 55.7457 79.0202  12
  -4   5  12 23469.9 1034.48  13
  -4  -5  12 22335.1 952.653  12
   4  -5 -11-96.0538 146.300   3
  -4  -5  11 143.921 111.965  13
   4  -5 -11 281.792 220.024   5
  -4  -5  11 243.358 160.840  12
  -4  -5  10 27281.3 1201.46  12
   4  -5 -10 28349.5 1345.29   5
   4  -5 -10 25579.5 1288.15   3
   4  -5  -9-175.744 199.303   3
  -4  -5   9-60.5810 153.108  12
   4  -5  -9 36.0794 156.459   5
   4  -5  -8 19534.9 1766.77  14
   4  -5  -8 21231.5 1053.20   5
   4  -5  -8 20069.5 1112.96   3
   4   5  -8 21867.1 1878.23  14
  -4  -5   8 20927.8 1681.99   1
  -4  -5   7-334.389 244.914   1
   4   5  -7-104.166 180.843  14
   4  -5  -7 180.284 212.622  14
   4  -5  -6 3425.68 617.937  14
   4   5  -6 3425.86 653.272  14
  -4  -5   6 3229.73 568.077   1
  -4  -5   5 906.949 302.095   1
   4  -5  -5 795.349 307.916  16
   4   5  -5 652.894 284.314  14
   4  -5  -5 1588.42 402.935  14
  -4  -5   4 5290.28 613.047   1
   4  -5  -4 4751.97 668.999  16
   4  -5  -4 4925.46 627.491  14
   4   5  -4 4936.54 681.189  14
   4  -5  -3 112.542 290.240   2
   4   5  -3 417.448 305.677  14
  -4  -5   3 114.024 163.635   1
   4  -5  -3-74.5860 168.068  14
   4  -5  -2 73252.0 3328.67   2
   4  -5  -2 73385.3 2623.07  14
   4   5  -2 70935.1 3010.08  14
  -4  -5   2 69499.5 2650.43   1
   4  -5  -1 57068.8 2835.24   2
   4  -5  -1 57001.8 2106.59  14
   4   5  -1 56380.8 2565.42  14
   4  -5   0 69280.9 2488.84   1
  -4  -5   0 76446.5 2726.96  16
   4   5   0 77249.8 3152.58  14
   4  -5   0 74049.6 3330.84   2
   4  -5   1 11104.9 782.109   1
  -4  -5  -1 11164.7 901.622  16
   4   5   1 10203.7 1003.24  14
   4  -5   1 9316.26 1036.00   2
   4   5   2 98846.0 4062.73  14
  -4  -5  -2 101718. 3909.86  16
   4  -5   2 96285.3 4142.06   2
   4  -5   2 105423. 3628.29   1
  -4  -5  -3 7851.83 925.281  16
   4  -5   3 6824.15 921.941   2
   4  -5   3 7927.16 791.403   1
   4   5   3 6357.95 859.354  14
  -4  -5  -4 44529.2 2584.90  16
   4  -5   4 42561.9 2592.88   2
   4  -5   4 47340.4 2366.05   1
  -4  -5  -5 2335.65 622.453  16
   4  -5   5 2279.94 506.438   1
  -4  -5  -6 52699.2 3186.38  16
   4  -5   6 51747.0 1994.93  10
   4   5   6 52035.5 1986.64   7
   4   5   6 55718.0 1958.54   9
   4  -5   6 47590.2 1906.09  13
   4   5   6 52160.1 1999.81  13
   4  -5   6 47041.9 1778.08  12
   4  -5   7 2091.42 346.384  10
   4   5   7 2835.23 361.432   9
   4  -5   7 1793.19 294.760  13
   4   5   7 2147.23 342.332  13
   4   5   7 2425.12 354.332   7
   4  -5   8 623.127 239.597  10
   4   5   8 961.648 236.728   9
   4  -5   8 575.665 204.087  13
   4   5   8 953.427 256.994  13
   4  -5   9 915.622 201.057  13
   4  -5   9 1110.55 274.566  10
   4   5   9 786.904 229.253  13
   4   5   9 952.201 225.510   9
   4  -5  10 381.321 134.486  13
   4  -5  10 321.641 164.130  10
   4   5  10 238.975 151.047  13
   4   5  10 302.391 157.968   9
   4   5  11 969.424 155.246   9
   4   5  11 1274.13 174.655  13
   4  -5  11 1055.67 165.830  10
   4  -6 -13 17774.5 787.750   5
  -4  -6  13 17797.1 677.797  12
  -4   6  13 18352.8 724.786  13
   4  -6 -12 702.069 212.348   5
  -4   6  12 529.610 153.944  13
  -4  -6  12 637.906 151.826  12
  -4  -6  11 1851.38 232.106   6
  -4  -6  11 1906.77 258.872  12
   4  -6 -11 2330.54 354.867   5
   4  -6 -11 2274.57 301.194   3
  -4  -6  10 6109.06 501.441  12
   4  -6 -10 6466.19 578.027   5
   4  -6 -10 6045.79 549.801   3
   4  -6  -9 13732.9 853.561   5
   4  -6  -9 12911.2 870.850   3
  -4  -6   9 14208.6 807.720  12
   4  -6  -8 16737.0 984.083   3
   4  -6  -8 16666.5 907.076   5
   4   6  -8 14304.2 1496.99  14
   4  -6  -8 14821.7 1530.55  14
  -4  -6   8 17032.9 1531.77   1
  -4  -6   8 17658.1 914.549  12
   4   6  -8 15179.3 828.131  11
   4   6  -7 11514.2 1261.81  14
   4  -6  -7 11456.7 1238.53  14
  -4  -6   7 12632.7 1257.75   1
   4  -6  -6 33713.1 2218.68  16
  -4  -6   6 39416.9 2252.69   1
   4   6  -6 39849.5 2356.69  14
   4  -6  -6 41367.4 2332.14  14
  -4  -6   5 1866.87 431.341   1
   4  -6  -5 1483.01 442.996  16
   4   6  -5 1954.51 475.684  14
   4  -6  -5 1994.29 438.060  14
  -4  -6   4 52082.2 2446.72   1
   4  -6  -4 56009.6 2830.26  16
   4   6  -4 50955.5 2589.44  14
   4  -6  -4 58123.3 2480.14  14
   4   6  -3 1114.36 353.298  14
   4  -6  -3 785.387 376.593   2
  -4  -6   3 578.192 233.552   1
   4  -6  -3 873.380 247.887  14
   4  -6  -2 147204. 5591.71   2
  -4  -6   2 140052. 4780.26   1
   4   6  -2 146549. 5126.26  14
   4  -6  -1 38501.9 2268.22   2
   4   6  -1 37375.8 1990.25  14
   4  -6  -1 32398.0 1481.44   1
   4  -6   0 43844.4 2455.54   2
  -4  -6   0 44262.3 1983.83  16
   4   6   0 46792.6 2326.68  14
   4  -6   0 41602.1 1801.17   1
   4   6   1 59905.5 2867.81  14
  -4  -6  -1 63097.1 2692.96  16
   4  -6   1 61237.0 2441.61   1
   4  -6   1 61832.7 3061.55   2
   4   6   2 9040.50 1005.59  14
  -4  -6  -2 7439.91 856.703  16
   4  -6   2 8028.42 768.373   1
   4  -6   2 7491.35 983.738   2
  -4  -6  -3 26277.8 1836.95  16
   4  -6   3 25367.5 1569.20   1
   4  -6   3 24535.7 1832.70   2
   4  -6   4-5.82157 214.429   2
  -4  -6  -4-16.2184 279.803  16
   4  -6   4 386.789 181.412   1
   4  -6   5 21079.0 1082.17  10
  -4  -6  -5 21976.0 1905.60  16
   4   6   5 22877.7 1050.10   9
   4  -6   5 19219.5 941.460  12
   4   6   6 24210.1 1192.52   7
   4  -6   6 25357.6 1243.70  10
  -4  -6  -6 24312.6 2173.30  16
   4   6   6 25995.6 1192.68   9
   4   6   6 25558.8 1211.42  13
   4  -6   6 22849.6 1076.61  12
   4  -6   7 2109.55 357.891  10
   4   6   7 1936.88 307.352   9
   4   6   7 1788.69 312.840  13
   4   6   7 1669.43 290.914   7
   4  -6   7 1711.19 261.820  12
   4  -6   8 22882.9 1164.50  10
   4   6   8 20666.8 1033.88   9
   4   6   8 20989.6 1077.62  13
   4  -6   8 19775.4 935.146  12
   4  -6   9 967.738 265.100  10
   4   6   9 704.831 203.551  13
   4   6   9 1058.26 233.333   9
   4   6  10 29710.1 1191.50  13
   4   6  10 30560.7 1204.27   9
   4  -6  11 103.591 87.7986  10
   4   6  11-33.5389 76.9949   9
   4  -7 -13 133.222 97.6681   5
  -4  -7  13 72.0645 58.9004  12
   4  -7 -12 853.478 208.216   5
  -4   7  12 641.708 140.210  13
  -4  -7  12 633.327 148.613  12
  -4  -7  11 8274.65 497.984   6
   4  -7 -11 8765.61 646.050   5
   4  -7 -11 8423.50 561.838   3
  -4   7  11 7568.22 529.079  13
  -4  -7  11 8701.98 540.527  12
   4  -7 -10 7637.31 623.377   5
   4  -7 -10 7283.64 597.323   3
  -4  -7  10 7585.86 542.852  12
   4  -7  -9 11063.3 755.641   5
   4  -7  -9 10488.4 766.407   3
  -4  -7   9 11118.6 697.043  12
   4   7  -8 64.4383 118.063  11
   4  -7  -8-123.000 120.987   5
   4  -7  -8-211.764 207.394   3
  -4  -7   8-0.54640 144.690  12
   4   7  -7 21887.3 1785.40  14
   4  -7  -7 21928.1 1056.15   5
  -4  -7   7 21540.7 1741.05   1
   4  -7  -7 22432.8 1149.65   4
  -4  -7   7 25511.0 1095.81  12
   4   7  -7 20475.4 1029.79  11
   4   7  -6 446.344 266.475  14
   4  -7  -6 1516.56 469.248  16
  -4  -7   6 768.921 331.330   1
  -4  -7   5 123102. 4647.39   1
   4  -7  -5 113440. 4919.53  16
   4   7  -5 119253. 4690.49  14
   4  -7  -4 90.7577 208.952  16
   4   7  -4 154.191 188.101  14
  -4  -7   4-228.179 200.850   1
   4  -7  -3 44549.9 2667.17   2
  -4  -7   3 38932.5 2028.77   1
   4   7  -3 39184.1 2169.27  14
  -4  -7   2 30713.9 1726.91   1
   4  -7  -2 36718.2 2345.70   2
   4   7  -2 32485.5 1896.87  14
   4  -7  -1 103622. 4477.30   2
   4   7  -1 104775. 4100.88  14
   4  -7   0 783.333 436.764   2
   4  -7   0 586.469 201.933   1
  -4  -7   0 44.5936 128.689  16
   4   7   0 714.553 329.652  14
   4  -7   1 8345.70 779.746   1
  -4  -7  -1 10254.8 978.795  16
   4   7   1 9080.21 1007.45  14
   4  -7   1 8988.55 1091.18   2
   4  -7   2 755.432 274.897   1
   4  -7   2 512.259 299.483   2
   4   7   2 1087.01 406.583  14
  -4  -7  -2 904.612 407.495  16
  -4  -7  -3 45380.9 2661.12  16
   4  -7   3 49850.0 2416.71   1
   4  -7   3 45034.7 2669.90   2
  -4  -7  -4 142.496 284.104  16
   4  -7   5 10175.3 727.841  10
   4   7   5 11161.1 705.265   9
   4  -7   5 10458.0 656.709  12
  -4  -7  -5 9126.16 1279.43  16
   4  -7   6 38696.4 1655.77  10
   4   7   6 38620.6 1568.37   9
   4  -7   6 38205.9 1498.98  12
   4   7   6 35894.0 1535.57  13
   4  -7   7 13288.7 869.388  10
   4   7   7 13297.3 808.895   9
   4   7   7 13379.1 808.324  13
   4  -7   7 13901.9 780.069  12
   4  -7   8 7906.98 623.249  10
   4   7   8 7220.84 556.516   9
   4   7   8 6904.17 542.298  13
   4  -7   8 6672.50 489.834  12
   4  -7   9 32895.4 1344.62  10
   4   7   9 30011.8 1230.10   9
   4  -7  10-17.3371 134.383  10
   4   7  10 285.348 116.024  13
   4   7  10 103.078 123.143   9
   4  -7  11 15409.2 621.664  10
   4   7  11 14519.4 592.633   9
   4  -8 -13 12716.5 564.712   5
  -4  -8  13 13747.1 535.069  10
  -4  -8  13 13826.0 511.268  12
   4  -8 -12-47.4968 135.517   5
  -4  -8  12 41.7031 90.0241  12
   4  -8 -11 15563.0 790.365   3
   4  -8 -11 18280.2 914.731   5
  -4   8  11 15743.8 757.189  13
  -4  -8  11 17120.3 780.889  12
  -4  -8  11 15821.8 726.964   6
  -4  -8  10 115.694 144.543   6
   4  -8 -10 231.479 190.575   5
   4  -8 -10 36.3333 150.751   3
  -4  -8  10 223.683 158.795  12
   4  -8  -9 16274.7 926.099   5
  -4  -8   9 16425.9 859.720  12
   4  -8  -9 15233.7 943.632   3
   4   8  -8 674.725 192.280  11
   4  -8  -8 904.322 215.719   5
   4  -8  -8 731.902 252.010   3
  -4  -8   8 700.065 190.942  12
   4  -8  -7 9749.91 660.468   5
   4  -8  -7 9839.32 720.926   4
  -4  -8   7 10835.9 661.191  12
  -4  -8   7 9218.29 1135.91   1
   4   8  -7 9685.60 663.821  11
   4   8  -6 31597.3 1328.34  11
  -4  -8   6 30232.6 2057.61   1
   4  -8  -6 25501.5 2130.72  16
   4  -8  -6 30412.9 1375.33   4
  -4  -8   5 464.458 308.630   1
   4   8  -5 474.080 254.847  14
   4  -8  -5-54.4095 199.662  16
  -4  -8   4 16071.1 1312.49   1
   4   8  -4 16943.7 1364.55  14
   4  -8  -4 15276.7 1553.83  16
   4   8  -3 6637.65 824.345  14
   4  -8  -3 7617.24 1123.87   2
  -4  -8   3 6006.71 767.106   1
  -4  -8   2 733.948 317.127   1
   4  -8  -2 284.943 337.653   2
   4   8  -2 312.623 216.671  14
   4  -8  -1 54709.2 3098.05   2
   4   8  -1 55305.0 2689.73  14
  -4  -8   1 49058.8 2493.28   1
   4  -8   0-4.06555 250.194   2
   4   8   0 574.202 292.804  14
  -4  -8  -1 72312.8 3382.43  16
   4  -8   1 77623.6 3779.66   2
  -4  -8  -2 3823.10 684.872  16
   4  -8   2 3006.87 639.095   2
   4   8   2 3352.19 660.739  14
  -4  -8  -3 85706.1 4099.08  16
   4  -8   3 88202.5 4101.77   2
   4  -8   4 10340.1 727.301  10
   4   8   4 11165.6 695.306   9
   4  -8   4 10616.0 675.740  12
   4  -8   5 6129.97 557.564  10
  -4  -8  -5 5009.82 988.628  16
   4   8   5 6700.94 548.084   9
   4  -8   5 5738.47 492.344  12
   4  -8   6 10309.7 752.944  10
   4   8   6 10942.1 718.435   9
   4  -8   6 10316.5 671.046  12
   4  -8   7 13566.7 861.086  10
   4   8   7 14357.9 828.790   9
   4  -8   7 14314.3 797.896  12
   4  -8   7 12844.7 775.096  15
   4  -8   8 32913.6 1410.38  10
   4   8   8 30386.7 1313.55   9
   4  -8   8 30978.9 1258.68  12
   4  -8   9-126.038 166.742  10
   4   8   9 45.1994 136.796   9
   4  -8  10 275.666 124.582  10
   4   8  10 432.685 128.667   9
   4  -9 -12 10060.5 553.303   5
  -4  -9  12 10462.3 494.259  10
  -4  -9  12 10569.4 485.339  12
  -4  -9  11 599.745 135.379   6
   4  -9 -11 781.945 206.401   5
   4  -9 -11 432.860 146.438   3
  -4  -9  11 665.138 153.215  12
   4  -9 -10 9868.29 667.984   5
   4  -9 -10 8825.25 623.670   3
  -4  -9  10 9548.96 576.662  12
  -4  -9  10 9122.31 565.334   6
   4  -9  -9 6806.75 564.144   5
   4  -9  -9 6097.93 564.651   3
  -4  -9   9 6757.90 505.038  12
  -4  -9   9 6453.36 515.615   6
   4  -9  -8 12362.6 771.138   5
  -4  -9   8 12256.6 718.341  12
   4  -9  -7 5579.17 485.493   5
   4  -9  -7 4853.12 503.685   4
  -4  -9   7 5888.18 467.565  12
   4   9  -7 5327.56 489.310  11
   4  -9  -6 3215.92 355.556   5
  -4  -9   6 2205.58 509.495   1
   4  -9  -6 3618.88 808.353  16
  -4  -9   6 3239.49 328.711  12
   4   9  -6 3237.72 386.774  11
   4  -9  -6 2895.48 384.748   4
  -4  -9   5 21410.0 1697.54   1
   4  -9  -5 19744.5 1886.91  16
   4  -9  -5 23766.1 1139.97   4
   4   9  -5 22723.1 1099.80  11
  -4  -9   4 1190.65 405.281   1
  -4  -9   3 7148.78 887.285   1
   4  -9  -3 8974.70 1274.13   2
   4   9  -2 44664.4 2378.19  14
   4  -9  -2 46071.1 2991.66   2
  -4  -9   2 39797.5 2302.11   1
   4  -9  -1 15975.2 1637.03   2
   4   9  -1 14897.1 1286.43  14
  -4  -9   1 13956.3 1277.08   1
   4  -9   0 90172.8 4319.59   2
   4   9   0 89933.2 3878.12  14
   4   9   1 5454.97 807.334  14
   4  -9   1 4301.39 822.507   2
  -4  -9  -2 28789.6 2120.30  16
   4  -9   2 33402.4 2337.42   2
   4   9   3 6338.07 504.890   9
   4  -9   3 5972.95 523.508  10
  -4  -9  -3 5376.40 928.401  16
   4  -9   3 6012.81 495.654  12
   4  -9   3 5905.17 484.958   6
   4  -9   4 6677.72 580.110  10
  -4  -9  -4 6634.36 489.956   5
   4   9   4 7196.50 557.976   9
   4  -9   4 6562.23 531.842  12
  -4  -9  -4 6042.19 1052.00  16
   4  -9   4 5703.61 486.364   6
   4  -9   5 1776.35 317.825  10
   4   9   5 1348.73 261.924   9
  -4  -9  -5 1696.27 251.559   5
   4  -9   5 1461.51 271.336  12
   4  -9   6 49050.3 1971.52  10
   4   9   6 49828.0 1913.09   9
   4  -9   6 50788.5 1875.67  12
   4  -9   7 13769.8 835.629  10
   4   9   7 13740.6 804.471   9
   4  -9   7 13520.9 767.695  12
   4  -9   7 13720.5 794.199  15
   4  -9   8 2.76407 165.220  10
   4   9   8 69.7719 169.241   9
   4  -9   8-13.7447 110.676  12
   4  -9   9 2585.70 298.819  10
   4   9   9 2206.12 265.682   9
   4  -9  10 1791.52 207.988  10
   4   9  10 1745.75 192.392   9
   4 -10 -12 5585.84 352.998   5
  -4 -10  12 5344.16 297.316  12
   4 -10 -11 7738.76 503.124   5
   4 -10 -11 6515.64 416.217   3
  -4 -10  11 7676.82 426.339  12
  -4 -10  11 6561.90 381.460   6
  -4 -10  10 332.286 147.254   6
   4 -10 -10 31.5643 142.969   3
   4 -10 -10 568.054 181.029   5
  -4 -10  10 436.557 148.778  12
  -4 -10   9 2594.88 314.298   6
   4 -10  -9 2338.64 330.504   5
   4 -10  -9 2147.50 335.879   3
  -4 -10   9 2467.12 286.111  12
   4 -10  -8 10970.9 723.288   5
  -4 -10   8 11599.3 671.279  12
  -4 -10   8 11953.9 729.660   6
   4 -10  -7 229.386 151.779   5
  -4 -10   7 525.662 182.795  12
   4 -10  -7 262.767 198.177   4
   4 -10  -6 94566.6 3040.14   5
  -4 -10   6 95232.2 2944.53  12
   4 -10  -6 92037.6 3162.00   4
   4  10  -6 92093.0 3122.96  11
  -4 -10   5 2691.36 606.729   1
   4 -10  -5 3172.40 337.138   5
   4 -10  -5 2121.10 632.984  16
   4 -10  -5 3962.95 432.671   4
   4  10  -5 3827.65 432.425  11
  -4 -10   4 25924.2 1920.81   1
   4  10  -4 29733.8 1317.57  11
   4 -10  -4 27285.1 1273.06   4
   4 -10  -3 11475.5 1487.27   2
  -4 -10   3 7224.55 958.947   1
   4 -10  -2 61973.7 3622.16   2
  -4 -10   2 48032.9 2736.05   1
  -4 -10   1 478.774 226.312   1
   4 -10  -1 1424.13 540.691   2
   4 -10   0 25899.1 2187.95   2
   4 -10   1 1312.32 489.155   2
   4 -10   2 28.0034 138.103   6
   4 -10   2-2.37705 196.029   2
   4  10   2 34.2067 125.574   9
  -4 -10  -2 13.2669 113.883   5
   4 -10   2-168.120 150.440  12
   4 -10   3 160.811 147.704   6
   4 -10   3 268.737 204.232  10
   4  10   3-67.5644 122.017   9
  -4 -10  -3-11.5730 116.710   5
   4 -10   3-135.915 149.072  12
   4 -10   4 28722.1 1354.30  10
  -4 -10  -4 29338.8 1243.36   5
   4  10   4 30541.6 1326.71   9
   4 -10   4 30383.2 1315.86  12
   4 -10   4 26488.0 1256.44   6
   4 -10   5 949.624 201.603   6
   4 -10   5 731.968 218.806  10
   4  10   5 1107.12 240.548   9
  -4 -10  -5 1237.09 220.600   5
   4 -10   5 916.393 234.101  12
   4 -10   6 6390.42 564.502  10
   4  10   6 6702.30 553.107   9
  -4 -10  -6 6307.94 465.572   5
   4 -10   6 6441.07 531.686  12
   4 -10   7 503.124 194.995  10
   4  10   7 789.475 221.021   9
   4 -10   7 514.012 174.960  12
   4 -10   7 687.424 195.244  15
   4 -10   8 25323.2 1091.65  10
   4  10   8 25678.7 1069.80   9
   4 -10   8 24587.5 998.984  12
   4 -10   9 1116.99 189.958  10
   4  10   9 1382.48 199.299   9
   4 -10  10 19359.1 724.380  10
   4  10  10 18188.9 687.125   9
   4 -11 -12 10003.7 442.714   5
  -4 -11  12 10553.5 411.498  12
   4 -11 -11 1756.57 220.359   5
   4 -11 -11 1257.91 153.793   3
  -4 -11  11 1719.79 183.944  12
  -4 -11  11 1600.60 160.851   6
  -4 -11  10 1144.55 191.414   6
   4 -11 -10 1179.43 221.191   5
   4 -11 -10 864.696 185.966   3
  -4 -11  10 1334.82 190.438  12
   4 -11  -9 11306.7 688.021   5
   4 -11  -9 10256.7 689.809   3
  -4 -11   9 11104.4 607.581  12
  -4 -11   9 11488.7 651.947   6
   4 -11  -8 4290.80 421.458   5
  -4 -11   8 4178.74 369.207  12
  -4 -11   8 4884.50 437.574   6
   4 -11  -7 9678.04 647.048   5
  -4 -11   7 9963.22 591.315  12
   4 -11  -7 9090.45 694.605   4
  -4 -11   7 10471.9 678.224   6
   4 -11  -6 5511.78 461.597   5
   4 -11  -6 4882.14 507.671   4
  -4 -11   6 5352.63 412.867  12
  -4 -11   6 5493.96 485.765   6
   4 -11  -5 255.958 157.462   4
  -4 -11   5 62.2368 136.634   6
   4 -11  -5 128.377 98.0792   5
   4 -11  -4 52.1691 186.681   4
  -4 -11   4 12.1584 130.613   6
  -4 -11   4 416.842 319.902   1
   4 -11  -3 112645. 5431.54   2
   4 -11  -3 105833. 3381.68   4
  -4 -11   3 102917. 3239.36   6
   4 -11  -2 14490.9 1699.77   2
  -4 -11   2 10569.2 1229.56   1
   4 -11  -2 12750.1 772.177   4
   4 -11  -1 2809.71 341.410   4
   4 -11  -1 2340.49 684.565   2
  -4 -11   1 2314.63 611.296   1
   4 -11  -1 2156.11 312.492  15
   4 -11   0 34962.7 1496.06   6
   4 -11   0 38215.7 2757.23   2
   4 -11   1 939.633 243.963   6
   4 -11   1 1830.99 612.022   2
  -4 -11  -1 1170.87 235.291   5
   4  11   1 1131.25 230.090   9
  -4 -11  -2 71991.8 2387.05   5
   4  11   2 67492.7 2372.13   9
   4 -11   2 68407.0 2376.91  12
   4 -11   2 67251.4 2447.29   6
   4 -11   3 121.033 171.130   6
   4 -11   3 242.670 154.958  10
   4  11   3 293.114 150.367   9
  -4 -11  -3 176.467 122.299   5
   4 -11   3 326.065 182.427  12
   4 -11   4 3584.61 424.567  10
  -4 -11  -4 4205.61 408.196   5
   4  11   4 4615.57 453.816   9
   4 -11   4 3392.73 403.513  12
   4 -11   4 3960.73 427.808   6
   4 -11   5 24365.1 1199.58  10
  -4 -11  -5 26312.4 1133.02   5
   4  11   5 26259.2 1193.14   9
   4 -11   5 24558.7 1163.33  12
   4 -11   5 23278.0 1134.78   6
   4  11   6 4006.13 403.713   9
   4 -11   6 3928.88 421.838  10
  -4 -11  -6 4095.11 362.950   5
   4 -11   6 4170.12 412.995  12
   4 -11   7 1786.05 273.896  10
   4 -11   7 2146.18 287.127  15
   4  11   7 1635.52 256.014   9
   4 -11   7 1853.63 267.005  12
   4 -11   8 240.959 126.590  10
   4  11   8 311.382 130.673   9
   4 -11   9 3252.59 275.635  10
   4  11   9 3178.20 255.791   9
   4 -12 -11 13975.8 592.684   5
  -4 -12  11 14330.4 542.720  12
  -4 -12  10 381.533 109.820   6
   4 -12 -10 485.318 137.540   5
   4 -12 -10 370.587 130.478   3
  -4 -12  10 623.163 131.291  12
   4 -12  -9 19120.9 899.010   5
   4 -12  -9 18400.3 923.544   3
  -4 -12   9 19448.6 819.897  12
  -4 -12   9 19341.0 864.398   6
  -4 -12   8 527.428 178.111   6
   4 -12  -8 433.463 160.277   5
  -4 -12   8 713.626 161.481  12
   4 -12  -7 9108.36 601.723   5
   4 -12  -7 8541.19 658.684   4
  -4 -12   7 8448.04 521.275  12
  -4 -12   7 8814.92 608.422   6
  -4 -12   6 1663.72 282.122   6
   4 -12  -6 1717.77 258.517   5
   4 -12  -6 1863.21 326.631   4
   4 -12  -5 4655.57 404.764   5
   4 -12  -5 4078.22 465.105   4
  -4 -12   5 4371.78 433.114   6
   4 -12  -4 4899.73 492.265   4
  -4 -12   4 4994.62 444.245   6
   4 -12  -3 2010.36 312.448   4
  -4 -12   3 2033.23 284.099   6
  -4 -12   2 2473.57 659.728   1
   4 -12  -2 4899.65 1020.95   2
   4 -12  -2 4413.57 456.512   4
   4 -12  -1 31273.2 2596.53   2
  -4 -12   1 26473.9 2114.10   1
   4 -12  -1 26956.6 1283.26  15
   4 -12  -1 31692.2 1345.64   4
   4 -12   0 131.903 167.756   6
   4 -12   0-47.0900 111.422   4
  -4 -12   0-482.242 383.812   1
   4 -12   0-671.493 437.282   2
  -4 -12   0 62.4719 120.296   5
   4  12   1 48091.5 1793.10   9
  -4 -12  -1 49233.7 1823.81   5
   4 -12   1 48322.5 1926.74   6
   4 -12   2-102.500 173.863   6
  -4 -12  -2-95.3136 137.687   5
   4  12   2-94.7023 125.984   9
  -4 -12  -3 37729.4 1495.32   5
   4  12   3 36688.6 1485.12   9
   4 -12   3 35483.8 1489.94  12
   4 -12   3 34554.5 1532.94   6
   4 -12   4 217.018 146.382   6
   4 -12   4 2.42048 176.776  10
   4 -12   4 277.235 163.765  12
   4  12   4 265.022 158.608   9
  -4 -12  -4 464.810 184.205   5
   4 -12   5 29962.8 1330.97  10
  -4 -12  -5 32635.3 1302.62   5
   4  12   5 32593.9 1336.88   9
   4 -12   5 31387.0 1321.03  12
   4 -12   5 28905.4 1293.72   6
   4  12   6 1172.54 228.844   9
   4 -12   6 765.421 191.368  10
   4 -12   6 1303.09 270.900  15
   4 -12   6 1089.75 240.690  12
  -4 -12  -6 1027.38 188.480   5
  -4 -12  -7 918.473 154.384   5
   4 -12   7 932.293 193.400  10
   4 -12   7 1100.57 204.251  15
   4  12   7 932.253 189.765   9
   4 -12   8 576.213 138.829  10
   4  12   8 684.294 144.498   9
   4 -13 -10 2760.70 241.438   3
   4 -13 -10 3283.73 267.229   5
  -4 -13  10 3316.06 235.871  12
  -4 -13  10 3351.00 240.845   6
   4 -13  -9 5035.94 377.537   5
  -4 -13   9 5056.47 333.030  12
   4 -13  -9 4421.48 383.922   3
  -4 -13   9 4491.30 345.783   6
  -4 -13   8 35.2891 134.275   6
   4 -13  -8 83.3102 119.950   5
   4 -13  -8-99.5396 185.584   3
  -4 -13   8 86.7372 98.1638  12
   4 -13  -7 31010.2 1257.45   5
   4 -13  -7 31398.9 1364.83   4
  -4 -13   7 30473.5 1161.21  12
  -4 -13   7 31520.7 1270.88   6
  -4 -13   6 105.327 147.683   6
   4 -13  -6-50.6318 148.713  11
   4 -13  -6-6.16066 102.759   5
   4 -13  -6 92.7345 180.157   4
   4 -13  -5 25226.1 1084.54   5
   4 -13  -5 24442.5 1216.89   4
  -4 -13   5 25197.2 1121.17   6
   4 -13  -4 656.991 220.137   4
  -4 -13   4 589.926 180.736   6
   4 -13  -3 25096.7 1232.62   4
  -4 -13   3 25705.8 1123.92   6
   4 -13  -2 6407.62 551.869   4
   4 -13  -1 24898.8 1189.32  15
  -4 -13   1 27033.9 1201.04   5
   4 -13  -1 25849.5 1229.00   4
   4 -13   0 7574.97 595.152   4
   4 -13   0 7243.34 603.926  15
  -4 -13   0 7514.86 568.597   5
   4 -13   1 1127.33 283.404   6
   4 -13   1 1341.42 266.575   4
  -4 -13  -1 1328.18 259.756   5
   4 -13   2 1707.93 326.838   6
  -4 -13  -2 2015.50 300.934   5
  -4 -13  -3 6019.53 498.747   5
   4  13   3 6104.15 485.369   9
   4 -13   3 5408.66 518.454   6
  -4 -13  -4 14379.8 788.097   5
   4  13   4 14377.1 772.932   9
   4 -13   4 13232.9 797.372   6
  -4 -13  -5 13893.5 734.416   5
   4  13   5 13158.9 716.383   9
   4 -13   6 395.033 124.005  10
   4 -13   6 481.728 179.278  15
  -4 -13  -6 626.802 155.084   5
   4  13   6 478.875 147.680   9
   4 -13   7 2734.68 262.908  10
  -4 -13  -7 2996.18 236.007   5
   4  13   7 2726.25 254.826   9
   4 -13   7 3268.07 291.132  15
   4  13   8 88.8471 61.1582   9
  -4 -14  10 5650.32 285.812   6
   4 -14  -9 9664.69 498.990   5
   4 -14  -9 10226.7 543.366   3
  -4 -14   9 10909.5 473.650  12
  -4 -14   9 10832.1 511.395   6
   4 -14  -8 5484.28 387.161   5
   4 -14  -8 5662.72 449.396   3
  -4 -14   8 6029.85 358.613  12
  -4 -14   8 5328.10 388.382   6
  -4 -14   7 695.953 188.214   6
   4 -14  -7 864.673 177.609   5
   4 -14  -7 541.966 192.969   4
   4 -14  -6 17166.6 872.203  11
   4 -14  -6 18183.4 849.661   5
   4 -14  -6 19494.2 983.010   4
  -4 -14   6 18717.9 879.467   6
  -4 -14   5 421.106 168.536   6
   4 -14  -5 388.846 196.729   4
   4 -14  -4 41764.7 1690.58   4
  -4 -14   4 40721.9 1548.76   6
  -4 -14   3 3923.53 375.227   6
   4 -14  -3 4292.43 447.677   4
  -4 -14   2 8170.28 593.278   5
   4 -14  -2 7612.06 600.483   4
   4 -14  -1 4961.73 452.779  15
  -4 -14   1 5022.12 464.733   5
   4 -14  -1 4916.31 481.521   4
   4 -14   0 4942.16 480.293  15
  -4 -14   0 5529.09 482.819   5
   4 -14   0 5408.36 501.098   4
   4 -14   1 5289.99 511.063  15
  -4 -14  -1 5586.38 480.077   5
   4 -14   1 5177.82 486.766   4
   4 -14   2 176.394 150.170   4
   4 -14   2 274.445 190.434   6
  -4 -14  -2 304.451 159.733   5
  -4 -14  -3 15203.2 817.699   5
   4 -14   3 14600.4 859.948   6
   4 -14   3 15547.9 813.617   4
  -4 -14  -4 2714.05 318.841   5
   4 -14   4 2854.61 301.092   4
   4  14   5 986.062 169.887   9
   4 -14   5 1010.20 236.361  15
  -4 -14  -5 1215.85 208.482   5
  -4 -14  -6 11844.8 578.040   5
   4  14   6 11712.2 550.463   9
   4 -14   6 12197.3 639.456  15
   4 -14   7 1175.13 161.700  15
  -4 -15   9 1131.05 139.376   6
   4 -15  -9 1024.84 137.948   3
   4 -15  -8 7786.38 415.540   5
   4 -15  -8 8320.03 488.459   3
  -4 -15   8 8788.81 459.410   6
  -4 -15   7 7212.68 450.333   6
   4 -15  -7 6960.97 416.139   5
  -4 -15   6-80.6879 127.830   6
   4 -15  -6 27.6853 97.5326  11
   4 -15  -6 121.003 88.2673   5
   4 -15  -6 87.4310 150.052   4
   4 -15  -5 3314.38 383.122   4
  -4 -15   5 3303.31 329.440   6
   4 -15  -4 1737.01 292.217   4
  -4 -15   4 1738.28 251.934   6
  -4 -15   4 1941.68 282.709   5
   4 -15  -3 3001.80 371.886   4
  -4 -15   3 3188.93 354.700   5
  -4 -15   3 3172.52 326.608   6
   4 -15  -2 27954.2 1283.55   4
  -4 -15   2 29547.3 1247.07   5
   4 -15  -1 963.828 233.551   4
  -4 -15   1 802.731 214.237   5
   4 -15   0 20140.6 998.376  15
  -4 -15   0 21130.5 1004.14   5
   4 -15   0 20585.7 1034.29   4
  -4 -15  -1 3650.52 378.452   5
   4 -15   1 3460.96 381.259   4
   4 -15   1 3673.38 404.739  15
   4 -15   2 33981.9 1415.88  15
  -4 -15  -2 32192.9 1311.88   5
   4 -15   2 31305.4 1316.66   4
   4 -15   3 747.387 174.697   4
   4 -15   3 435.634 186.449  15
  -4 -15  -3 356.525 149.904   5
  -4 -15  -4 29559.6 1151.69   5
   4 -15   4 32464.3 1255.25  15
   4 -15   5 1606.41 231.213  15
  -4 -15  -5 1493.07 197.080   5
   4 -15   6 27.8131 88.3291  15
  -4 -15  -6 106.242 80.3740   5
   4 -16  -8 4580.63 294.015   3
  -4 -16   8 4880.14 291.013   6
  -4 -16   7 1463.73 153.213   5
   4 -16  -7 1684.60 223.007   3
  -4 -16   7 1851.05 205.359   6
  -4 -16   6 7657.06 429.712   5
   4 -16  -6 8023.07 500.960   4
  -4 -16   6 7730.31 455.601   6
  -4 -16   5 473.982 145.611   6
   4 -16  -5 415.141 135.117  11
  -4 -16   5 634.112 152.917   5
   4 -16  -5 599.052 178.348   4
  -4 -16   4 12911.0 661.073   6
  -4 -16   4 13451.3 684.188   5
   4 -16  -4 12952.1 734.410   4
  -4 -16   3 6766.36 480.254   5
   4 -16  -3 7463.34 550.787   4
  -4 -16   3 7288.73 464.601   6
  -4 -16   2 13042.1 709.618   5
   4 -16  -2 12315.2 734.031   4
  -4 -16   1 4385.81 401.577   5
   4 -16  -1 4226.10 414.467   4
   4 -16   0 1789.59 269.071   4
  -4 -16   0 1770.36 269.014   5
   4 -16   0 1220.18 202.383  15
   4 -16   1 6174.97 475.255  15
   4 -16   1 6372.73 489.164   4
  -4 -16  -1 6694.02 487.222   5
   4 -16   2 264.172 140.816   4
   4 -16   2 162.592 139.457  15
  -4 -16  -2 157.084 128.003   5
  -4 -16  -3 11193.3 600.231   5
   4 -16   3 11651.2 646.393  15
   4 -16   3 10078.4 557.202   4
   4 -16   4 356.833 152.608  15
  -4 -16  -4 231.142 114.180   5
  -4 -16  -5 4617.35 296.743   5
   4 -16   5 4776.70 335.257  15
   4 -16   6 6954.56 352.375  15
   4 -17  -7 11629.5 510.708   3
  -4 -17   7 12232.5 504.890   6
  -4 -17   6 1162.07 157.310   6
  -4 -17   6 874.518 114.702   5
   4 -17  -5 10632.4 520.451  11
  -4 -17   5 11804.2 536.689   5
   4 -17  -5 12138.0 603.002   4
  -4 -17   5 12652.1 572.178   6
  -4 -17   4 2099.75 228.210   5
  -4 -17   4 2344.73 229.996   6
   4 -17  -4 2052.19 253.949   4
  -4 -17   3 12862.2 640.681   5
   4 -17  -3 13193.0 693.727   4
  -4 -17   2 3484.33 323.386   5
   4 -17  -2 3178.50 329.992   4
  -4 -17   1 13649.1 684.596   5
   4 -17  -1 13201.3 708.380   4
   4 -17   0 1782.21 252.135   4
  -4 -17   0 1896.30 248.767   5
   4 -17   1 887.785 178.873   4
   4 -17   1 569.092 139.312  15
  -4 -17  -1 1008.65 186.773   5
   4 -17   2 384.803 119.761   4
  -4 -17  -2 291.510 121.213   5
   4 -17   2 366.434 133.824  15
   4 -17   3 583.678 119.564   4
  -4 -17  -3 514.385 124.517   5
   4 -17   3 590.459 142.192  15
  -4 -17  -4-27.7949 72.1768   5
   4 -17   4 82.7747 87.4979  15
   4 -17   5 6161.14 320.089  15
   4 -18  -5 38.0209 77.0259   3
   4 -18  -4 1744.32 175.771  11
  -4 -18   4 1795.03 173.805   5
   4 -18  -4 2108.67 209.976   4
  -4 -18   3 1052.94 154.095   5
   4 -18  -3 1067.35 171.646   4
   4 -18  -2 1076.54 176.154   4
  -4 -18   2 917.645 154.397   5
  -4 -18   1 2843.98 256.641   5
   4 -18  -1 2743.29 262.123   4
  -4 -18   0 3058.35 264.335   5
   4 -18   0 2867.81 262.114   4
  -4 -18  -1 28158.0 1008.14   5
   4 -18   1 27439.1 999.170   4
   4 -18   2-31.0331 69.5018   4
   4 -18   2-125.603 67.6229  15
  -4 -18  -2 35.7650 73.4417   5
  -4 -18  -3 10141.8 432.106   5
   4 -19  -3 4748.89 265.453   4
   4 -19  -2 774.907 114.887  11
  -4 -19   2 1033.65 117.078   5
   4 -19  -2 1211.61 136.844   4
  -4 -19   1 2722.44 199.191   5
   4 -19  -1 2855.78 208.550   4
  -4 -19   0 7008.93 336.797   5
   4 -19   0 6669.78 329.868   4
  -4 -19  -1-18.8650 45.5710   5
  -5   0  14 13265.1 540.280  13
  -5   0  13-44.9550 102.258  13
   5   0 -12 4916.62 407.480   3
  -5   0  12 4245.96 348.740  12
   5   0 -11-168.548 187.974   5
   5   0 -11-86.2525 168.923   3
   5   0 -10 729.575 228.673   3
   5   0 -10 532.311 231.053   5
   5   0  -9 149.275 141.619   5
   5   0  -9-208.810 265.912  14
   5   0  -9-31.4892 184.827   3
   5   0  -8 23610.8 1132.53   5
   5   0  -8 21607.3 1099.24   3
   5   0  -8 23760.6 2076.27  14
   5   0  -7 316.364 275.064  14
   5   0  -6 34415.8 2256.40  14
   5   0  -5-45.5553 197.334  14
   5   0  -4 31778.9 1893.59  14
   5   0  -4 32177.0 1803.98   2
   5   0  -3 199.741 232.018   2
   5   0  -3-104.689 194.315  14
   5   0  -2 190068. 6284.16  14
   5   0  -2 199644. 6494.59   2
   5   0  -1 97.7890 203.645  14
   5   0  -1 160.453 279.698   2
   5   0   0 87021.8 3467.42  14
  -5   0   0 89544.8 3059.79  16
   5   0   0 88113.1 3722.63   2
   5   0   1-240.512 272.407   2
  -5   0  -1 46.4532 99.3860  16
   5   0   1 152.955 227.329  14
  -5   0  -2 30850.6 1653.33  16
   5   0   2 30285.2 1836.38  14
   5   0   2 34476.2 2230.67   2
   5   0   3 340.942 240.935  14
  -5   0  -3 27.2985 186.852  16
  -5   0  -4 11.9140 158.080  16
  -5   0  -5 205.309 236.365  16
   5   0   5 122.253 164.066  13
   5   0   5 65.2734 138.808   7
   5   0   6 7997.06 633.586  10
  -5   0  -6 9219.53 1151.56  16
   5   0   6 7986.94 575.642   9
   5   0   6 10360.0 748.674   7
   5   0   6 8492.19 669.545  13
   5   0   7 105.385 128.725  10
   5   0   7-129.229 117.687   9
   5   0   7 49.9267 173.482  13
   5   0   7-21.4762 165.696   7
   5   0   8 8737.40 622.546  10
   5   0   8 9440.79 596.595   9
   5   0   8 10559.9 759.151  13
   5   0   9 139.647 186.360  13
   5   0  10 41732.2 1578.38  13
   5   0  11 70.0605 93.8668  13
  -5  -1  14 3085.95 211.572  13
  -5   1  14 3246.96 229.164  13
  -5  -1  13 3758.29 318.538  13
  -5   1  13 4013.18 343.721  13
  -5  -1  13 3083.03 237.982  12
   5  -1 -12 11815.6 670.438   3
  -5  -1  12 11672.1 629.815  12
  -5   1  12 11267.4 596.455  12
   5  -1 -11 5538.87 563.861   5
   5   1 -11 5633.34 505.838   3
   5  -1 -11 5862.96 524.518   3
  -5  -1  11 5670.00 469.838  12
   5   1 -10 42169.7 1803.30   5
   5  -1 -10 45613.0 1822.53   5
   5   1 -10 43644.0 1764.64   3
   5  -1 -10 42221.4 1789.52   3
   5  -1  -9 6614.55 1124.41  14
   5   1  -9 5244.60 512.850   5
   5  -1  -9 5431.39 528.672   5
   5   1  -9 5243.42 505.972   3
   5  -1  -9 4965.11 521.437   3
   5   1  -9 6699.47 1096.81  14
   5   1  -8 31538.5 1352.94   5
   5  -1  -8 29388.7 1311.94   5
   5  -1  -8 26380.9 2181.81  14
   5   1  -8 27861.9 1282.18   3
   5  -1  -8 28904.5 1326.23   3
   5   1  -8 29944.4 2369.77  14
   5   1  -7 382.104 282.469  14
   5  -1  -7 942.314 375.045  14
   5   1  -6 42568.0 2588.57  14
   5  -1  -6 40468.5 2452.35  14
   5  -1  -5 129123. 4898.54  14
   5   1  -5 127988. 4921.36  14
   5  -1  -5 118321. 4566.49   2
   5   1  -4 1136.72 322.393   2
   5  -1  -4 933.985 337.893   2
   5   1  -4 1686.75 453.251  14
   5  -1  -4 1621.41 431.661  14
   5   1  -3 56824.6 2619.81  14
   5  -1  -3 56971.3 2564.33  14
   5   1  -3 57066.6 2551.66   2
   5  -1  -3 57406.4 2688.16   2
   5   1  -2 1469.13 391.393   2
   5  -1  -2 772.479 333.665   2
   5   1  -2 1278.49 353.487  14
   5  -1  -2 1695.86 384.472  14
   5   1  -1 3614.34 583.710  14
   5  -1  -1 3179.71 508.842  14
   5   1  -1 2453.95 495.949   2
   5  -1  -1 3827.70 682.141   2
   5   1   0 9132.04 911.425  14
  -5  -1   0 10238.4 707.884  16
   5  -1   0 10243.4 929.199  14
   5   1   0 8146.87 973.005   2
   5  -1   0 9601.18 1045.82   2
   5   1   1 13600.3 1141.29  14
  -5  -1  -1 13718.0 955.369  16
   5  -1   1 13762.5 1099.17  14
   5   1   1 14121.3 1324.39   2
   5  -1   1 14506.3 1342.91   2
   5   1   2 42756.3 2285.41  14
  -5   1  -2 43432.0 2080.59  16
  -5  -1  -2 43783.7 2060.07  16
   5  -1   2 42887.0 2232.40  14
   5  -1   2 44790.4 2594.70   2
  -5   1  -3 28423.3 1715.26  16
  -5  -1  -3 28554.2 1696.37  16
   5   1   3 28346.5 1882.79  14
  -5   1  -4 48437.8 2533.64  16
  -5  -1  -4 46581.6 2456.34  16
  -5   1  -5 11978.3 1293.22  16
  -5  -1  -5 12245.6 1237.96  16
   5   1   5 13571.0 776.115   8
   5  -1   5 12764.6 798.281  13
   5   1   5 13029.4 807.076  13
   5  -1   5 14471.7 875.565   7
   5   1   5 13478.4 839.071   7
   5  -1   6 68238.7 2385.11   7
   5  -1   6 58052.1 2206.45  10
  -5   1  -6 66033.2 3395.55  16
  -5  -1  -6 62382.9 3272.71  16
   5   1   6 62889.9 2141.11   9
   5   1   6 56140.5 2102.19   8
   5  -1   6 55770.4 2069.39   8
   5  -1   6 60050.9 2250.91  13
   5   1   6 58845.7 2238.76  13
   5   1   6 62788.7 2331.02   7
   5  -1   7 350.425 180.389  10
   5   1   7 614.253 186.653   9
   5  -1   7 711.468 257.595  13
   5   1   7 547.481 223.707  13
   5  -1   7 505.287 222.382   7
   5   1   7 240.136 181.537   7
   5  -1   8 6928.66 568.809  10
   5   1   8 8414.57 565.047   9
   5  -1   8 7242.64 630.010  13
   5   1   8 7464.72 638.689  13
   5  -1   9 3007.55 323.654  10
   5   1   9 3137.74 322.106   9
   5  -1   9 3314.70 416.022  13
   5   1   9 3628.07 440.341  13
   5   1  10 283.249 177.607  13
   5  -1  10 268.328 160.611  13
   5  -1  11 16336.6 693.208  13
   5   1  11 16962.4 708.292  13
  -5   2  14 2259.72 188.826  13
  -5  -2  13 16336.0 702.470  13
  -5   2  13 15787.2 720.099  13
   5  -2 -12 1136.96 266.978   5
   5  -2 -12 864.321 179.495   3
  -5  -2  12 1091.22 194.613  12
  -5   2  12 889.761 157.607  12
   5   2 -11 24564.2 1134.73   3
   5  -2 -11 23775.1 1218.53   5
   5  -2 -11 23942.5 1171.53   3
  -5  -2  11 22007.5 1045.64  12
   5   2 -10 8592.62 642.086   3
   5  -2 -10 9696.51 705.630   5
   5  -2 -10 8145.76 675.959   3
   5   2  -9 51326.3 2003.22   5
   5  -2  -9 50583.0 1952.12   5
   5  -2  -9 48479.7 1985.74   3
   5  -2  -9 53268.3 3301.79  14
   5   2  -9 48024.0 1896.20   3
   5   2  -9 49174.6 3236.70  14
   5   2  -8 493.747 194.060   5
   5  -2  -8 379.759 155.461   5
   5  -2  -8 337.313 243.805  14
   5   2  -8 647.137 209.124   3
   5  -2  -8 228.806 170.373   3
   5   2  -7 47730.6 2894.05  14
   5  -2  -7 42369.8 2654.96  14
   5  -2  -6 63.6334 173.905  14
   5   2  -6-147.013 235.280  14
   5  -2  -5 35848.2 2121.07   2
   5   2  -5 36522.3 2212.78  14
   5  -2  -5 35368.3 2135.84  14
   5   2  -4 15849.9 1311.14  14
   5  -2  -4 16145.7 1346.45   2
   5  -2  -4 16062.9 1271.47  14
   5  -2  -3 5556.76 778.585   2
   5  -2  -3 5479.91 667.527  14
   5   2  -3 5035.94 630.948   2
   5   2  -3 4995.25 696.433  14
   5   2  -2 111.862 210.210   2
   5  -2  -2 140.853 238.144   2
   5  -2  -2 499.443 237.229  14
   5   2  -2 248.304 270.995  14
   5   2  -1 2751.13 548.245   2
   5  -2  -1 3459.25 644.518   2
   5   2  -1 3677.98 595.694  14
   5  -2  -1 3941.41 554.583  14
   5  -2   0 41523.5 2034.34  14
  -5  -2   0 42612.6 1726.99  16
   5   2   0 40845.4 2162.92  14
   5   2   0 40053.4 2319.36   2
   5  -2   0 44230.0 2428.72   2
  -5  -2  -1 122242. 4036.51  16
   5   2   1 109139. 4364.65  14
   5  -2   1 117172. 4214.62  14
   5  -2   1 114129. 4700.89   2
  -5  -2  -2 7009.10 785.262  16
   5  -2   2 8598.31 872.267  14
   5   2   2 8123.91 932.621  14
   5  -2   2 7531.21 1039.20   2
  -5   2  -3 70305.0 3253.47  16
  -5  -2  -3 72065.2 3108.26  16
   5   2   3 73258.3 3401.80  14
   5  -2   3 71988.4 3683.98   2
  -5   2  -4 16392.1 1404.03  16
  -5  -2  -4 15182.3 1312.09  16
   5  -2   5 38594.6 1621.00  10
  -5   2  -5 44858.1 2585.72  16
  -5  -2  -5 40795.8 2426.98  16
   5   2   5 35685.4 1536.74   8
   5  -2   5 38427.7 1538.00   8
   5  -2   5 40770.7 1662.65  13
   5   2   5 41132.6 1669.41  13
   5  -2   5 45205.5 1761.04   7
   5   2   5 42023.0 1693.65   7
   5  -2   6 2843.98 391.618  10
  -5   2  -6 3879.72 775.800  16
   5   2   6 2890.53 360.227   9
  -5  -2  -6 3149.95 697.029  16
   5  -2   6 13750.9 765.142   8
   5   2   6 3000.12 417.101   7
   5  -2   6 3495.42 445.863   7
   5  -2   6 2581.02 382.359  13
   5   2   6 2789.06 385.960  13
   5   2   6 14624.6 766.087   8
   5  -2   7 27932.3 1344.17  10
   5   2   7 30428.9 1301.49   9
   5  -2   7 29097.5 1388.57  13
   5   2   7 30554.5 1419.99  13
   5  -2   7 30138.5 1448.91   7
   5   2   7 29635.6 1416.33   7
   5  -2   8 5846.07 521.784  10
   5   2   8 6483.70 510.976   9
   5  -2   8 6931.33 601.892  13
   5   2   8 6464.39 588.654  13
   5  -2   9 14325.4 796.484  10
   5   2   9 14696.8 764.075   9
   5  -2   9 14821.7 871.945  13
   5   2   9 16515.6 910.967  13
   5  -2  10 261.363 101.132  10
   5  -2  10 454.938 177.729  13
   5   2  10 497.163 132.840   9
   5   2  10 306.324 163.434  13
   5   2  11 62.6798 92.5957  13
   5  -2  11 26.6838 76.5220  13
  -5   3  14 2058.24 171.842  13
  -5  -3  13 7270.61 408.485  13
  -5   3  13 7007.82 445.510  13
  -5  -3  13 6372.27 367.780  12
   5  -3 -12 890.122 209.941   3
   5  -3 -12 1084.93 273.147   5
  -5  -3  12 1046.25 196.151  12
   5  -3 -11 21950.5 1110.17   5
   5  -3 -11 19370.7 1039.18   3
  -5  -3  11 19412.1 943.780  12
   5   3 -10 10077.8 688.170   3
   5  -3 -10 10049.2 724.475   5
   5  -3 -10 9720.31 739.709   3
  -5  -3  10 9117.54 646.948  12
   5   3  -9 16762.2 930.429   3
   5  -3  -9 17598.4 967.870   5
   5  -3  -9 17126.0 1022.48   3
   5   3  -8 10959.9 705.625   3
   5  -3  -8 11463.9 725.447   5
   5  -3  -8 11003.5 754.823   3
   5   3  -8 11838.1 1444.89  14
   5  -3  -8 9853.43 1269.33  14
   5   3  -8 10854.7 699.812  11
   5   3  -7 24944.7 2019.08  14
   5  -3  -7 24625.0 1915.99  14
   5   3  -6 1093.94 434.276  14
   5  -3  -6 156.283 228.974   2
   5  -3  -6 802.310 342.155  14
   5  -3  -5 73579.4 3502.24   2
   5   3  -5 73879.4 3459.56  14
   5  -3  -5 74967.8 3394.29  14
   5   3  -4 83.0560 198.703  14
   5  -3  -4 53.0524 261.901   2
   5  -3  -4 264.958 229.141  14
   5  -3  -3 70678.9 3385.97   2
   5   3  -3 68825.3 3105.23  14
   5  -3  -3 71963.4 2946.06  14
   5  -3  -2 286.941 277.081   2
   5   3  -2 267.746 230.546  14
   5  -3  -2 435.154 215.677  14
   5   3  -1 18346.0 1358.26  14
   5  -3  -1 20002.8 1258.15  14
   5  -3  -1 19367.4 1583.76   2
   5  -3   0 423.955 354.435   2
   5  -3   0 778.334 264.168  14
   5   3   0 1021.22 349.272  14
  -5  -3  -1 97880.7 3437.64  16
   5  -3   1 89671.3 3449.23  14
   5   3   1 87701.5 3772.13  14
   5  -3   1 93259.7 4084.93   2
   5  -3   2 5424.42 856.370   2
  -5  -3  -2 6650.29 749.644  16
   5  -3   2 5677.63 683.118  14
   5   3   2 5899.25 789.595  14
  -5  -3  -3 30141.1 1897.31  16
   5   3   3 30897.2 2064.72  14
   5  -3   3 31392.0 2238.31   2
  -5   3  -4 8347.85 1051.03  16
  -5  -3  -4 7896.96 987.457  16
   5   3   5 3825.48 466.046   8
  -5  -3  -5 2369.69 614.889  16
   5  -3   5 1799.83 303.706  10
  -5   3  -5 2583.49 640.717  16
   5   3   5 2906.31 337.860   9
   5  -3   5 3633.34 401.932   8
   5  -3   5 2718.19 369.885   7
   5  -3   5 2700.11 369.890  13
   5   3   5 2579.82 358.884  13
   5   3   5 2762.98 366.649   7
   5  -3   6 7063.25 610.745  10
   5   3   6 7618.18 585.434   9
   5  -3   6 7273.03 617.263  13
   5   3   6 7458.02 634.734  13
   5  -3   6 7535.82 647.611   7
   5   3   6 7144.31 625.367   7
   5  -3   7 22690.6 1171.38  10
   5   3   7 24330.2 1137.14   9
   5  -3   7 23271.0 1192.03  13
   5   3   7 24450.5 1232.29  13
   5   3   7 23461.4 1211.39   7
   5  -3   8 882.804 223.547  10
   5  -3   8 1255.55 267.291  13
   5   3   8 1405.18 290.183  13
   5   3   8 925.666 201.459   9
   5  -3   9 22762.4 1072.99  10
   5   3   9 22645.2 1018.02   9
   5  -3   9 22622.0 1081.99  13
   5   3   9 24153.2 1138.98  13
   5  -3  10 109.045 105.973  10
   5   3  10-77.4381 107.768   9
   5   3  10-14.4799 130.223  13
   5  -3  10-90.1583 111.115  13
   5   3  11 9583.00 460.135  13
  -5   4  13 5554.09 367.464  13
  -5  -4  13 4813.68 309.151  12
   5  -4 -12 3872.16 421.924   5
   5  -4 -12 3168.71 318.134   3
  -5  -4  12 3305.13 303.639  13
  -5  -4  12 2955.21 295.668  12
   5  -4 -11 28521.6 1325.14   3
  -5  -4  11 28490.9 1215.55  12
   5  -4 -10 164.725 176.528   5
   5  -4 -10 74.2860 190.467   3
  -5  -4  10 144.553 152.600  12
   5   4  -9 4923.91 466.855   3
   5  -4  -9 4360.49 468.535   5
   5  -4  -9 4477.27 513.289   3
   5   4  -8 7251.70 561.518   3
   5  -4  -8 7443.87 573.003   5
   5  -4  -8 7648.00 632.990   3
   5   4  -8 7572.29 1118.52  14
   5  -4  -8 6953.10 1019.79  14
   5   4  -8 6886.85 548.409  11
   5   4  -7 5987.09 943.001  14
   5  -4  -7 5114.70 826.372  14
   5  -4  -6 52418.6 2942.66   2
   5   4  -6 47749.0 2798.61  14
   5  -4  -6 48278.8 2722.29  14
   5  -4  -5 10537.3 1200.68   2
   5   4  -5 9071.24 1064.71  14
   5  -4  -5 10656.6 1101.79  14
   5  -4  -4 58026.7 3075.71   2
   5   4  -4 54985.1 2815.70  14
   5  -4  -4 59146.1 2724.96  14
   5  -4  -3 3128.08 500.202  14
   5  -4  -3 3415.07 675.787   2
   5   4  -3 2841.99 591.975  14
   5   4  -2 28608.0 1808.68  14
   5  -4  -2 29236.1 1601.65  14
   5  -4  -2 31452.5 2072.53   2
   5   4  -1 6931.31 846.795  14
   5  -4  -1 6829.32 689.722  14
   5  -4  -1 7268.02 966.884   2
   5   4   0 40261.0 2256.43  14
   5  -4   0 41588.0 1904.48  14
   5  -4   0 41466.1 2454.00   2
   5  -4   1 1519.07 325.416  14
   5  -4   1 939.278 415.041   2
  -5  -4  -1 923.876 278.145  16
   5   4   1 1058.97 360.706  14
  -5  -4  -2 35863.4 1988.98  16
   5   4   2 32016.1 2076.56  14
   5  -4   2 34250.0 2306.29   2
  -5  -4  -3 40170.0 2260.41  16
   5   4   3 36173.7 2319.19  14
   5  -4   3 38108.2 2514.58   2
   5  -4   4 2807.54 702.199   2
  -5  -4  -4 3009.55 617.752  16
   5   4   5 31583.0 1394.73   8
   5  -4   5 35124.7 1519.57  10
  -5  -4  -5 33724.0 2320.24  16
   5   4   5 38213.4 1486.56   9
   5  -4   5 31062.0 1352.82   8
   5  -4   5 34584.2 1518.57  13
   5   4   5 37519.2 1568.90  13
   5  -4   5 37237.1 1568.08   7
   5   4   5 37035.3 1549.96   7
   5   4   6 14824.7 928.297   7
   5  -4   6 15190.8 927.335  10
   5   4   6 15889.4 891.206   9
   5  -4   6 13832.0 895.165  13
   5   4   6 15333.1 946.339  13
   5  -4   6 16192.1 956.794   7
   5  -4   7 1081.70 276.501  10
   5   4   7 1099.05 230.783   9
   5  -4   7 686.759 218.451  13
   5   4   7 539.415 212.083  13
   5   4   7 862.818 236.359   7
   5  -4   8 5909.03 539.020  10
   5   4   8 5782.12 488.798   9
   5  -4   8 6198.70 527.153  13
   5   4   8 5911.12 543.958  13
   5  -4   9 3125.55 365.483  10
   5   4   9 2987.33 326.507   9
   5   4   9 2978.00 363.350  13
   5  -4   9 2822.47 327.578  13
   5  -4  10 11714.3 610.929  10
   5   4  10 11902.2 591.405   9
   5   4  10 12513.1 645.510  13
   5  -4  10 10670.0 570.730  13
   5   4  11-12.6941 54.8034  13
   5  -5 -13 35.2636 109.867   5
  -5   5  13 24.0449 84.0425  13
  -5  -5  13 20.5338 67.5668  12
   5  -5 -12 22540.4 1031.82   5
  -5  -5  12 21156.1 875.798  12
   5  -5 -11 362.539 190.630   5
   5  -5 -11 121.268 156.741   3
  -5  -5  11 50.7694 135.986  12
   5  -5 -10 59098.5 2208.17   5
   5  -5 -10 56874.3 2243.41   3
  -5  -5  10 60314.4 2094.88  12
   5   5  -9 852.933 219.072  11
   5  -5  -9 956.140 246.114   5
   5  -5  -9 1042.45 273.584   3
  -5  -5   9 906.195 236.870  12
   5  -5  -8 31611.0 1409.29   5
   5  -5  -8 34493.0 1530.23   3
   5   5  -8 32497.9 2429.30  14
   5  -5  -8 35623.0 2457.89  14
   5   5  -8 33804.1 1433.27  11
   5  -5  -7 360.832 262.295   2
   5   5  -7 434.209 398.369  14
   5  -5  -7 1010.62 374.322  14
   5  -5  -7 401.028 177.301   3
   5   5  -7 746.283 191.380   3
   5  -5  -6 26368.6 2117.89   2
   5   5  -6 27350.5 2034.83  14
   5  -5  -6 31972.2 2074.02  14
   5   5  -5 860.662 324.538  14
   5  -5  -5 133.059 260.652   2
   5  -5  -5 536.473 303.535  14
   5  -5  -4 5594.49 880.347   2
   5  -5  -4 6265.51 749.089  14
   5   5  -4 5563.02 817.513  14
   5   5  -3 857.254 343.158  14
   5  -5  -3 1080.73 299.148  14
   5  -5  -3 829.430 449.462   2
   5   5  -2 639.325 265.926  14
   5  -5  -2 216.429 128.392  14
   5  -5  -2 600.486 343.914   2
   5   5  -1 1275.12 421.791  14
   5  -5  -1 896.033 401.725   2
   5   5   0 42821.4 2367.56  14
   5  -5   0 42414.0 2563.62   2
   5  -5   1 80.1915 215.391   2
   5   5   1 42.3389 194.141  14
  -5  -5  -2 51015.5 2607.82  16
   5   5   2 55699.2 2873.25  14
   5  -5   2 49912.2 2916.04   2
   5  -5   3-389.351 294.260   2
  -5  -5  -3 37.4536 195.320  16
   5  -5   4 40323.3 1666.06  10
  -5  -5  -4 40904.6 2548.49  16
   5  -5   4 41771.5 2735.08   2
   5  -5   5 1248.56 278.607  10
  -5   5  -5 1738.62 539.746  16
  -5  -5  -5 1016.25 489.445  16
   5   5   5 1727.82 266.175   9
   5  -5   5 1789.50 298.688  13
   5   5   5 1594.80 287.710  13
   5  -5   5 1694.37 286.374   7
   5   5   5 1720.60 298.629   7
   5  -5   5 1181.85 195.975  12
   5  -5   6 52373.8 2069.64  13
   5  -5   6 53675.4 2117.80  10
   5   5   6 57514.0 2067.72   9
   5   5   6 56535.3 2145.30  13
   5   5   6 55678.7 2120.78   7
   5  -5   7 1120.97 282.695  10
   5   5   7 1304.17 257.024   9
   5  -5   7 1444.50 273.797  13
   5   5   7 880.694 239.486  13
   5   5   7 941.631 240.517   7
   5  -5   8 24864.6 1193.86  10
   5   5   8 23651.8 1079.48   9
   5  -5   8 20647.6 1039.19  13
   5   5   8 22423.5 1130.50  13
   5  -5   9 518.078 203.133  10
   5   5   9 312.728 129.737   9
   5   5   9 702.476 201.670  13
   5  -5   9 324.455 122.070  13
   5  -5  10 7325.91 459.236  10
   5   5  10 6838.29 412.055   9
   5   5  10 7371.28 442.897  13
   5  -6 -13 7817.56 453.198   5
  -5  -6  13 7260.17 366.992  12
  -5   6  13 7795.16 397.904  13
   5  -6 -12 7407.23 513.308   5
   5  -6 -12 6057.95 411.534   3
  -5  -6  12 6367.51 406.599  12
  -5   6  12 5902.91 430.622  13
   5  -6 -11 6194.84 530.000   5
   5  -6 -11 5143.58 476.255   3
  -5  -6  11 5323.44 433.282  12
   5  -6 -10 9815.69 698.168   5
   5  -6 -10 8801.13 700.537   3
  -5  -6  10 9752.73 621.987  12
   5  -6  -9 31146.1 1407.86   5
   5  -6  -9 31767.3 1491.75   3
  -5  -6   9 32687.3 1367.01  12
   5   6  -9 31987.9 1370.02  11
   5   6  -8 297.637 143.322  11
   5  -6  -8 148.136 124.754   5
   5  -6  -8 238.128 196.355   3
   5   6  -8-294.079 283.793  14
  -5  -6   8 165.491 147.217  12
   5  -6  -7 34755.2 2560.49   2
   5  -6  -7 33360.7 1411.65   5
   5  -6  -7 34415.6 1500.10   3
   5   6  -7 33592.8 2381.23  14
   5   6  -7 35309.5 1470.36  11
   5  -6  -6 19732.8 1874.18   2
   5  -6  -6 22471.4 1697.29  14
   5   6  -6 19372.1 1687.67  14
   5  -6  -5 1320.18 522.853   2
   5   6  -5 1788.89 499.805  14
   5  -6  -4 17945.9 1715.52   2
   5   6  -4 19310.1 1547.48  14
   5  -6  -3 74.4234 227.554   2
   5   6  -3 80.5892 233.232  14
   5  -6  -2 212184. 7670.30   2
   5   6  -2 204708. 7113.67  14
   5   6  -1 7138.03 931.472  14
   5  -6  -1 7175.01 1086.12   2
   5   6   0 8542.28 1003.06  14
   5  -6   0 7064.04 1033.77   2
   5   6   1 8976.57 1070.83  14
   5  -6   1 9543.45 1177.48   2
   5   6   2 3087.97 674.599  14
   5  -6   2 3004.10 669.383   2
  -5  -6  -2 2790.37 571.142  16
   5  -6   3 2356.75 621.509   2
  -5  -6  -3 2080.38 560.911  16
   5  -6   4 42.8764 244.389   2
   5  -6   4 611.699 211.165  10
  -5  -6  -4 67.5368 231.929  16
   5  -6   4 302.684 153.425  15
   5   6   4 312.483 124.863   9
   5   6   4 316.784 152.835   8
   5   6   4 638.822 190.884   7
   5  -6   4 467.674 148.808  12
   5  -6   5 72081.4 2596.65  10
   5  -6   5 68874.1 2490.29  15
  -5  -6  -5 68127.0 3776.16  16
   5   6   5 77612.5 2519.11   9
   5   6   5 72108.7 2534.49  13
   5   6   5 72875.4 2550.68   7
   5  -6   5 67476.7 2367.51  12
   5  -6   6 415.980 204.238  10
   5   6   6 549.811 193.013   9
   5  -6   6 462.117 185.297  13
   5   6   6 405.047 198.824  13
   5   6   6 445.018 192.728   7
   5  -6   6 311.090 145.425  12
   5  -6   7 5856.25 557.609  10
   5   6   7 5060.80 481.201   9
   5  -6   7 4653.51 447.840  13
   5   6   7 5740.95 523.476  13
   5   6   7 5411.87 499.711   7
   5  -6   8 10111.8 693.960  10
   5   6   8 8855.74 592.056   9
   5   6   8 8477.03 610.063  13
   5  -6   9 801.468 215.879  10
   5   6   9 712.699 174.503   9
   5   6   9 808.290 178.315  13
   5  -6  10 21109.7 848.046  10
   5   6  10 20456.2 797.842   9
   5  -7 -13 4192.61 295.951   5
  -5  -7  13 4276.24 249.090  12
   5  -7 -12 103.647 102.996   3
   5  -7 -12 187.197 146.403   5
  -5   7  12 30.2886 93.3286  13
  -5  -7  12 70.2912 96.3500  12
  -5  -7  11 1353.87 203.143   6
   5  -7 -11 1577.18 285.150   5
   5  -7 -11 1537.15 270.637   3
  -5  -7  11 1371.94 221.578  12
   5  -7 -10 15601.9 883.834   5
   5  -7 -10 14531.6 887.976   3
  -5  -7  10 15572.3 801.977  12
   5   7  -9 451.822 181.083  11
   5  -7  -9 272.879 196.809   3
   5  -7  -9 43.8582 132.096   5
  -5  -7   9 279.370 169.654  12
   5   7  -8 2484.18 341.210  11
   5  -7  -8 2963.72 365.788   5
   5  -7  -8 2984.14 388.911   3
  -5  -7   8 2893.52 351.506  12
   5  -7  -7 42141.9 3015.51   2
   5  -7  -7 44497.7 1765.35   5
   5   7  -7 45245.8 2839.32  14
  -5  -7   7 50125.7 1790.49  12
   5   7  -7 49891.3 1866.85  11
   5  -7  -7 44878.9 1843.44  11
   5  -7  -6 12059.0 1477.39   2
   5   7  -6 14096.9 1399.89  14
   5  -7  -6 12609.6 793.223   4
   5   7  -6 13399.4 809.925  11
   5   7  -5 50630.3 2824.66  14
   5  -7  -5 50878.3 3159.50   2
   5   7  -4 6024.73 857.143  14
   5  -7  -4 6154.08 1030.57   2
   5   7  -3 28610.6 1945.07  14
   5  -7  -3 30323.4 2326.06   2
   5  -7  -2 43287.4 2800.30   2
   5   7  -2 40185.9 2374.28  14
   5   7  -1 107766. 4558.57  14
   5  -7  -1 118045. 5111.47   2
   5   7   0 12961.8 1286.27  14
   5  -7   0 13590.1 1468.21   2
   5   7   1 17929.8 1549.06  14
   5  -7   1 16152.4 1604.48   2
   5  -7   2 869.993 415.318   2
   5   7   2 1068.06 421.578  14
   5  -7   3 1368.34 499.873   2
   5  -7   3 1318.40 257.708  10
   5   7   3 1533.93 248.559   9
  -5  -7  -3 1854.12 526.353  16
   5  -7   3 1486.89 249.495  12
   5  -7   4 17592.7 999.498  10
  -5  -7  -4 16064.9 1648.60  16
   5  -7   4 17067.6 964.400  15
   5   7   4 17203.1 935.334   7
   5  -7   4 15621.5 850.439  12
   5   7   4 18032.5 927.294   9
   5  -7   5 5001.61 520.545  10
   5   7   5 5357.06 488.652   9
   5  -7   5 4921.37 485.058  15
   5   7   5 5140.84 488.163   7
   5  -7   5 4484.08 414.664  12
   5  -7   6 887.340 257.075  10
   5   7   6 940.046 229.682   9
   5  -7   6 841.357 204.764  15
   5   7   6 1043.87 248.732   7
   5   7   6 1110.87 243.865  13
   5  -7   6 1007.28 199.470  12
   5  -7   7 17693.1 993.105  10
   5   7   7 16920.6 900.705   9
   5   7   7 15704.1 888.051  13
   5   7   7 17320.3 908.041   7
   5  -7   8 101.946 182.148  10
   5   7   8 60.5717 140.882   9
   5   7   8 70.3820 107.985  13
   5  -7   9 22901.9 1009.95  10
   5   7   9 21954.3 920.044   9
   5   7   9 19780.2 865.265  13
   5  -7  10 3485.65 281.407  10
   5   7  10 3012.03 244.428   9
  -5  -8  13 7793.45 334.458  12
   5  -8 -12 122.143 118.800   5
   5  -8 -12 26.1191 69.8293   3
  -5  -8  12-63.8826 87.2228  12
   5  -8 -11 16744.3 840.879   5
   5  -8 -11 15265.1 793.692   3
  -5   8  11 14668.9 715.262  13
  -5  -8  11 16633.0 738.321  12
  -5  -8  11 15016.2 704.598   6
   5  -8 -10 1248.36 267.169   3
   5  -8 -10 1776.42 293.196   5
  -5  -8  10 1596.09 252.870  12
   5  -8  -9 44542.4 1777.41   5
   5  -8  -9 47820.8 1896.47   3
  -5  -8   9 46726.8 1705.47  12
   5   8  -9 43965.2 1743.53  11
   5   8  -8 2098.28 329.968  11
   5  -8  -8 2308.66 328.938   5
   5  -8  -8 2207.55 361.347   3
  -5  -8   8 2215.17 309.298  12
   5  -8  -7 38130.8 1653.70  11
   5  -8  -7 39019.9 2904.34   2
   5  -8  -7 40837.4 1616.22   5
   5  -8  -7 40068.2 1707.75   4
   5   8  -7 42175.4 1699.02  11
  -5  -8   7 42403.9 1577.25  12
   5  -8  -6 3828.34 429.331  11
   5  -8  -6 3786.61 379.933   5
   5  -8  -6 5064.24 963.537   2
   5  -8  -6 3894.34 428.106   4
  -5  -8   6 4010.08 371.268  12
   5   8  -6 4369.84 451.896  11
   5   8  -5-41.7193 123.862  11
   5   8  -5-29.4151 81.5572  14
   5  -8  -5 142.656 124.424   4
   5  -8  -4 26182.1 2227.95   2
   5   8  -4 23139.9 1779.44  14
   5  -8  -3 3435.85 785.527   2
   5   8  -3 3919.86 706.828  14
   5  -8  -2 20879.8 1992.03   2
   5   8  -2 20008.2 1624.61  14
   5  -8  -1 11690.1 1445.40   2
   5   8  -1 10313.0 1146.76  14
   5   8   0-9.34472 262.076  14
   5  -8   0 871.102 426.097   2
   5   8   1 23727.9 1861.15  14
   5  -8   1 22518.2 1991.45   2
   5  -8   2 40.6941 213.057   2
   5   8   2 86.6791 133.684   9
   5   8   3 20048.1 991.558   9
   5  -8   3 18707.6 1039.13  10
   5  -8   3 19052.6 952.032  12
   5  -8   3 16930.8 1715.27   2
   5   8   4 4635.15 453.578   9
   5  -8   4 4349.29 481.742  10
   5  -8   4 4421.94 466.878  15
   5  -8   4 3949.81 397.836  12
   5  -8   5 67803.3 2416.76  15
   5  -8   5 64738.7 2459.93  10
   5   8   5 67530.0 2367.99   9
   5  -8   5 64739.7 2270.73  12
   5  -8   6 257.056 188.730  10
   5  -8   6 512.988 190.357  15
   5   8   6 606.918 212.555   9
   5  -8   6 446.871 170.575  12
   5  -8   7 23662.4 1168.23  10
   5   8   7 23045.3 1081.69   9
   5  -8   8 4636.07 446.845  10
   5   8   8 4711.35 408.110   9
   5  -8   9 3985.92 353.501  10
   5   8   9 4051.43 327.883   9
   5  -8  10 4217.30 281.851  10
   5   8  10 3974.05 256.201   9
   5  -9 -12 17914.8 743.742   5
  -5  -9  12 16706.0 655.497  12
   5  -9 -11 2904.47 314.027   5
   5  -9 -11 2587.35 286.090   3
  -5  -9  11 2985.65 269.364  12
  -5  -9  11 2694.22 247.288   6
   5  -9 -10 22685.9 1049.63   5
   5  -9 -10 21951.8 1066.91   3
  -5  -9  10 22397.3 954.339  12
  -5  -9  10 21991.6 962.146   6
   5  -9  -9 682.707 195.433   5
   5  -9  -9 788.611 243.093   3
  -5  -9   9 757.603 190.700  12
   5  -9  -8 9486.24 714.034   3
   5  -9  -8 10066.6 672.185   5
  -5  -9   8 9432.99 606.905  12
   5   9  -8 9769.16 689.233  11
   5  -9  -7 9662.52 688.733  11
   5  -9  -7 10140.5 666.847   5
   5  -9  -7 10045.0 736.185   4
  -5  -9   7 10324.5 628.525  12
   5   9  -7 10648.7 732.041  11
   5  -9  -6 22926.6 1175.96  11
   5  -9  -6 24531.7 2277.09   2
   5  -9  -6 24591.7 1111.40   5
   5  -9  -6 24630.7 1209.23   4
  -5  -9   6 23902.0 1051.61  12
   5   9  -6 25881.2 1234.24  11
   5  -9  -5 15046.7 1745.48   2
   5  -9  -5 15002.6 882.603   4
   5   9  -5 16153.8 946.076  11
   5  -9  -4 7418.97 1286.85   2
   5  -9  -4 7998.32 596.838   4
   5   9  -4 9569.71 671.617  11
   5  -9  -3 8019.24 1310.25   2
   5   9  -3 8231.04 1036.37  14
   5   9  -2 6082.74 876.099  14
   5  -9  -2 5774.42 1101.25   2
   5  -9  -1 12556.3 1556.45   2
   5   9  -1 9937.72 1147.71  14
   5   9   0 27514.8 2002.72  14
   5  -9   0 26927.7 2285.53   2
   5  -9   1 4985.47 939.306   2
   5  -9   1 6873.45 573.165  15
   5   9   1 6348.02 509.023   9
   5   9   1 5527.89 914.622  14
   5  -9   2 31602.5 1424.00  10
   5   9   2 32666.4 1376.96   9
  -5  -9  -2 31822.1 1283.88   5
   5  -9   2 34708.3 2530.02   2
   5  -9   2 31035.7 1355.97   6
   5  -9   3 4452.03 497.966  10
   5   9   3 5252.63 477.364   9
   5  -9   3 4586.95 435.870  12
   5  -9   4 6472.99 592.695  10
   5   9   4 6402.13 535.239   9
   5  -9   4 6058.13 560.744  15
   5  -9   4 6059.32 502.333  12
   5  -9   5 1408.34 314.962  10
   5   9   5 1325.12 267.302   9
   5  -9   5 1177.77 240.696  12
   5  -9   5 1525.08 307.926  15
   5  -9   6 28632.0 1344.53  10
   5   9   6 28697.0 1275.41   9
   5  -9   6 28793.3 1282.17  15
   5  -9   7 15215.5 851.415  10
   5   9   7 15452.2 813.886   9
   5  -9   7 13524.0 718.477  15
   5  -9   8 14197.9 766.624  10
   5   9   8 14554.6 725.132   9
   5  -9   9 764.049 161.030  10
   5   9   9 817.105 149.990   9
   5 -10 -12 4488.10 287.081   5
  -5 -10  12 4664.57 259.421  12
  -5 -10  11 1260.13 162.824   6
   5 -10 -11 1565.84 218.920   5
   5 -10 -11 1409.66 200.186   3
  -5 -10  11 1375.04 177.528  12
  -5 -10  10-8.10549 116.751   6
   5 -10 -10-160.468 156.091   5
   5 -10 -10-149.629 164.263   3
  -5 -10  10 97.6206 105.682  12
  -5 -10   9 1011.12 230.060   6
   5 -10  -9 1207.49 236.949   5
   5 -10  -9 1271.93 270.191   3
  -5 -10   9 977.660 189.090  12
   5 -10  -8 2619.69 330.073   5
   5 -10  -8 2814.23 394.179   3
  -5 -10   8 2150.10 276.728  12
   5  10  -7 616.756 214.511  11
   5 -10  -7 754.705 220.773  11
   5 -10  -7 705.534 185.254   5
  -5 -10   7 850.766 185.674  12
   5 -10  -7 695.753 226.944   4
   5 -10  -6 96545.8 3282.07  11
   5 -10  -6 101325. 3166.16   5
   5 -10  -6 100159. 3322.57   4
   5  10  -6 98315.6 3338.71  11
   5  10  -5 3374.39 426.467  11
   5 -10  -5 2141.62 772.500   2
   5 -10  -5 3325.79 397.981   4
   5 -10  -4 9973.16 1477.83   2
   5 -10  -4 10072.8 689.433   4
   5  10  -4 8750.51 710.924  11
   5  10  -3 1049.64 256.800  11
   5 -10  -3 1087.78 226.538   4
   5 -10  -3 1737.35 680.135   2
   5 -10  -2 45497.7 1698.09   4
   5  10  -2 43676.0 1775.51  11
   5  10  -1 520.171 195.604  11
   5 -10  -1 390.028 127.205   4
   5 -10  -1 693.134 428.715   2
   5 -10  -1 551.340 193.608  15
   5  10  -1 375.623 177.059   9
   5 -10   0 40268.7 1670.53  15
   5  10   0 41167.5 1616.93   9
   5 -10   0 38867.3 1550.65   4
   5 -10   1 654.087 202.856  10
   5 -10   1 477.524 189.348  15
   5  10   1 525.572 173.507   9
  -5 -10  -1 554.428 160.369   5
   5 -10   2 5345.39 506.844  10
  -5 -10  -2 5298.26 445.611   5
   5  10   2 5206.44 484.030   9
   5 -10   3 1997.25 342.927  10
   5  10   3 2454.75 335.922   9
  -5 -10  -3 2305.61 287.906   5
   5 -10   4 4198.03 465.385  10
   5  10   4 4598.72 455.291   9
   5 -10   4 4343.88 472.446  15
   5 -10   5 1353.61 290.276  10
   5  10   5 1364.23 262.470   9
   5 -10   5 1558.30 300.807  15
   5 -10   6 369.196 202.831  10
   5 -10   6-61.8514 138.604  15
   5  10   6 193.592 162.429   9
   5 -10   7 5058.91 400.255  15
   5 -10   7 5827.37 483.092  10
   5 -10   8 24403.1 1015.52  10
   5  10   8 24104.7 979.167   9
   5 -10   9 573.615 124.823  10
   5  10   9 515.381 106.834   9
  -5 -11  11 52.2409 64.3621   6
   5 -11 -11 17.8465 84.3792   5
   5 -11 -11 97.8835 79.6336   3
  -5 -11  11 76.1891 72.7286  12
   5 -11 -10 11815.6 631.739   5
   5 -11 -10 12111.3 668.127   3
  -5 -11  10 12398.2 583.339  12
  -5 -11  10 12536.0 603.722   6
  -5 -11   9 2497.04 294.665   6
   5 -11  -9 2666.15 307.948   5
   5 -11  -9 2773.15 345.477   3
  -5 -11   9 2615.73 271.115  12
   5 -11  -8 25098.0 1123.47   5
   5 -11  -8 27057.4 1247.80   3
  -5 -11   8 25492.2 1053.54  12
  -5 -11   8 26204.1 1139.44   6
   5 -11  -7 4812.76 445.609  11
   5 -11  -7 5015.20 432.524   5
   5 -11  -7 4566.19 483.822   4
  -5 -11   7 4806.09 382.011  12
  -5 -11   7 4968.58 449.614   6
   5 -11  -6 4204.18 448.029  11
   5 -11  -6 4146.78 388.626   5
   5 -11  -6 3794.18 441.492   4
  -5 -11   6 4608.42 441.479   6
  -5 -11   5 19169.0 968.113   6
   5 -11  -5 19238.8 1037.87   4
   5  11  -5 18664.4 1070.21  11
   5 -11  -4 2886.20 376.889   4
   5  11  -4 2530.84 398.231  11
  -5 -11   4 2665.35 328.489   6
   5 -11  -3 6486.72 1249.55   2
   5 -11  -3 5737.57 507.836   4
   5  11  -3 5387.72 533.870  11
  -5 -11   3 5208.99 462.911   6
   5 -11  -2 2860.03 358.191   4
   5 -11  -2 2786.83 351.190  15
   5 -11  -2 2717.56 800.876   2
   5  11  -2 3113.18 362.226   9
   5  11  -1 41937.4 1634.69   9
   5 -11  -1 39197.1 1657.21  15
   5 -11  -1 40627.5 1629.02   4
   5 -11   0 13207.5 831.726  15
  -5 -11   0 13181.8 756.985   5
   5  11   0 11766.5 744.700   9
   5 -11   0 12416.3 1619.86   2
   5 -11   0 12624.3 751.043   4
  -5 -11  -1 4127.14 406.208   5
   5  11   1 4192.68 427.377   9
   5 -11   1 4497.84 472.021  15
   5 -11   1 4669.39 423.125   4
   5 -11   2 16163.5 932.277  10
  -5 -11  -2 16592.8 868.384   5
   5  11   2 16917.1 913.084   9
   5 -11   2 16817.0 977.545  15
   5  11   3 62.1635 158.547   9
   5 -11   3 327.933 180.862  10
   5 -11   3 17.7698 212.598  15
  -5 -11  -3 97.5197 119.788   5
   5 -11   4 6997.34 592.400  10
  -5 -11  -4 7524.50 523.889   5
   5  11   4 7678.69 579.635   9
   5 -11   4 7634.50 621.950  15
   5 -11   5 3653.60 419.722  10
   5  11   5 3867.19 403.667   9
   5 -11   5 4290.83 450.622  15
   5 -11   6 38057.9 1518.48  10
   5  11   6 38098.9 1473.89   9
   5 -11   6 38202.5 1508.04  15
   5 -11   7 16200.7 795.660  10
   5  11   7 17359.5 788.062   9
   5 -11   7 15011.5 719.984  15
   5 -11   8 1459.43 197.907  10
   5  11   8 1384.26 182.640   9
   5 -12 -11 12015.1 497.106   5
  -5 -12  11 13172.1 485.559  12
  -5 -12  11 12612.2 477.904   6
  -5 -12  10 424.046 114.533   6
   5 -12 -10 519.211 128.344   5
   5 -12 -10 434.027 134.811   3
  -5 -12  10 792.694 131.865  12
   5 -12  -9 28343.6 1139.66   5
   5 -12  -9 29886.8 1237.03   3
  -5 -12   9 30796.4 1097.71  12
  -5 -12   9 30188.3 1148.71   6
  -5 -12   8 527.655 181.975   6
   5 -12  -8 398.074 140.642   5
   5 -12  -8 568.208 221.279   3
  -5 -12   8 519.165 141.672  12
   5 -12  -7 26593.4 1183.56  11
   5 -12  -7 26794.7 1133.55   5
   5 -12  -7 26546.7 1248.92   4
  -5 -12   7 27587.9 1174.00   6
   5 -12  -6 5855.67 516.718  11
   5 -12  -6 6713.40 570.231   4
  -5 -12   6 6399.54 509.169   6
  -5 -12   5 3099.58 355.811   6
   5 -12  -5 2766.04 379.931   4
   5 -12  -4 103.858 140.126   4
  -5 -12   4 125.550 134.143   6
   5 -12  -3 1712.57 299.921   4
  -5 -12   3 1246.30 223.106   6
   5  12  -2 5014.67 460.195   9
   5 -12  -2 5468.44 471.165  15
   5 -12  -2 5588.37 496.109   4
   5  12  -1 8743.60 606.330   9
   5 -12  -1 8747.46 642.554  15
   5 -12  -1 8942.96 633.546   4
   5 -12   0 888.994 217.860   4
   5 -12   0 792.765 239.096  15
  -5 -12   0 875.017 213.863   5
   5  12   0 670.209 200.137   9
   5 -12   1 1269.16 231.948   4
   5 -12   1 1399.26 309.027  15
   5  12   1 1331.34 230.896   9
  -5 -12  -1 1527.48 258.879   5
   5 -12   2 654.232 235.680  15
   5  12   2 740.930 211.416   9
  -5 -12  -2 958.134 209.832   5
   5 -12   3 48359.3 1925.41  10
  -5 -12  -3 53210.2 1883.30   5
   5  12   3 52083.6 1912.37   9
   5 -12   3 53475.3 2039.45  15
   5 -12   4 3647.82 397.877  10
  -5 -12  -4 3494.09 341.041   5
   5  12   4 3736.81 391.468   9
   5 -12   4 3629.81 430.675  15
   5 -12   5 29727.1 1295.97  10
  -5 -12  -5 30189.4 1178.06   5
   5  12   5 31800.9 1280.46   9
   5 -12   5 33370.6 1376.82  15
   5  12   6 616.588 150.572   9
   5 -12   6 245.733 130.669  10
   5 -12   6 831.643 200.774  15
   5 -12   7 9696.05 533.513  10
   5  12   7 10079.8 518.343   9
   5 -12   7 8863.39 480.911  15
   5 -12   8 243.841 86.3005  10
   5  12   8 454.978 93.9256   9
  -5 -13  10 250.303 76.1892   6
   5 -13 -10 116.573 80.8070   3
   5 -13 -10 55.7331 66.6172   5
  -5 -13  10 67.9280 52.1864  12
  -5 -13   9-69.5344 105.117   6
   5 -13  -9-69.8194 96.2495   5
  -5 -13   9-110.368 83.3935  12
   5 -13  -9 34.1780 125.783   3
   5 -13  -8 3495.02 304.885   5
   5 -13  -8 3466.06 365.486   3
  -5 -13   8 3188.85 311.274   6
   5 -13  -7 4138.53 347.355   5
  -5 -13   7 4210.09 381.211   6
   5 -13  -7 3833.43 357.234  11
   5 -13  -6 3077.79 356.863  11
  -5 -13   6 3234.90 348.749   6
   5 -13  -6 3157.39 378.276   4
   5 -13  -5 53256.4 2002.82   4
  -5 -13   5 52998.2 1893.11   6
   5 -13  -4 340.830 176.548   4
  -5 -13   4 214.346 155.847   6
   5 -13  -3 18076.3 977.289   4
  -5 -13   3 18738.1 895.611   6
   5 -13  -2 803.538 219.986   4
   5 -13  -2 568.955 183.169  15
  -5 -13   1 19118.9 948.137   5
   5 -13  -1 17113.8 940.905  15
   5 -13  -1 19190.5 977.820   4
   5 -13   0 180.724 142.643   4
  -5 -13   0 236.153 154.809   5
   5 -13   0 382.739 173.813  15
   5  13   0 272.752 155.423   9
  -5 -13  -1 21540.8 1019.58   5
   5  13   1 21761.5 1013.19   9
   5 -13   1 21026.6 1103.58  15
   5 -13   1 20684.4 1008.50   4
  -5 -13  -2 4226.13 402.193   5
   5  13   2 4193.67 399.568   9
   5 -13   2 4633.02 480.030  15
   5 -13   2 4059.77 379.940   4
   5  13   3 200.960 149.411   9
   5 -13   3-127.538 183.124  15
  -5 -13  -3 88.6681 125.357   5
  -5 -13  -4 18430.8 848.515   5
   5  13   4 16965.3 849.248   9
   5 -13   4 19018.7 962.794  15
   5 -13   5-12.3005 117.529  10
   5 -13   5 111.441 147.938  15
  -5 -13  -5 33.0991 91.9090   5
   5  13   5 155.694 115.191   9
   5 -13   6 95.4868 111.807  10
   5 -13   6 321.059 128.542  15
   5  13   6 319.652 108.624   9
   5 -13   7 223.308 78.5223  15
   5  13   7 259.307 90.2071   9
   5 -14  -9 5470.12 360.025   3
  -5 -14   9 5361.10 326.851   6
   5 -14  -8 5260.88 408.513   3
  -5 -14   8 5338.94 367.500   6
   5 -14  -7 11226.9 667.414   3
  -5 -14   7 11314.9 609.639   6
   5 -14  -6 7629.08 526.873  11
   5 -14  -6 8088.50 575.245   4
  -5 -14   6 7835.75 514.253   6
  -5 -14   5 899.308 204.176   6
   5 -14  -5 1110.90 234.783   4
   5 -14  -4 29497.3 1302.81   4
  -5 -14   4 29870.6 1197.58   6
   5 -14  -3 11715.7 730.729   4
  -5 -14   3 10449.3 596.848   6
  -5 -14   2 18612.3 929.189   5
   5 -14  -2 18072.3 953.610   4
   5 -14  -1 1054.92 234.408   4
   5 -14  -1 1007.90 218.456  15
  -5 -14   1 1292.24 247.257   5
  -5 -14   0 9262.17 614.364   5
   5 -14   0 9419.07 651.823  15
   5 -14   0 9448.30 628.027   4
  -5 -14  -1 3831.63 379.631   5
   5 -14   1 4213.89 427.511  15
   5 -14   1 3971.83 382.351   4
  -5 -14  -2 12344.4 693.487   5
   5  14   2 11746.1 649.947   9
   5 -14   2 12558.6 754.909  15
   5 -14   2 10764.2 634.049   4
   5 -14   3 824.737 225.550  15
   5  14   3 764.264 163.784   9
  -5 -14  -3 611.807 167.098   5
   5 -14   4-40.7091 145.413  15
  -5 -14  -4-79.0710 105.490   5
   5  14   4-69.2340 96.5068   9
  -5 -14  -5 8062.45 427.760   5
   5  14   5 7664.32 434.062   9
   5 -14   5 7867.72 498.137  15
   5 -14   6 295.517 106.218  15
   5  14   6 146.445 67.6768   9
  -5 -15   9 561.474 95.3139   6
   5 -15  -8 10415.1 523.582   3
  -5 -15   8 9604.90 447.843   5
  -5 -15   8 10482.3 489.066   6
  -5 -15   7 161.535 109.709   6
   5 -15  -7 50.7007 122.775   3
   5 -15  -6 10136.7 569.460  11
   5 -15  -6 10301.8 609.571   4
  -5 -15   6 11017.2 573.619   6
  -5 -15   5-85.2367 122.970   6
   5 -15  -5-34.9381 154.752  11
   5 -15  -5-176.380 162.105   4
  -5 -15   4 33.5653 99.8415   6
  -5 -15   4 64.3007 132.207   5
   5 -15  -4 7.92881 150.609   4
  -5 -15   3 5784.39 460.299   5
   5 -15  -3 5652.48 473.727   4
   5 -15  -2 645.964 195.452   4
  -5 -15   2 882.902 219.817   5
   5 -15  -1 68.6634 151.458   4
   5 -15  -1 176.088 116.973  15
  -5 -15   1-69.1657 149.388   5
  -5 -15   0 16289.1 803.822   5
   5 -15   0 15189.7 810.460  15
   5 -15   0 15383.5 808.595   4
   5 -15   1 844.783 190.073   4
   5 -15   1 783.768 211.891  15
  -5 -15  -1 761.238 183.200   5
  -5 -15  -2 23126.4 979.373   5
   5 -15   2 23484.3 1054.59  15
   5 -15   2 21552.5 927.690   4
   5 -15   3 72.4791 136.783  15
  -5 -15  -3 108.540 114.820   5
  -5 -15  -4 6219.19 380.680   5
   5 -15   4 6109.68 428.390  15
  -5 -15  -5 498.310 95.1658   5
   5 -15   5 559.055 136.291  15
   5 -15   6 18130.4 663.480  15
   5 -16  -8 1576.33 151.994   3
  -5 -16   7 11836.8 515.745   5
   5 -16  -7 13406.8 595.542   3
  -5 -16   7 13267.9 558.807   6
   5 -16  -6 7204.23 444.380   3
  -5 -16   6 6915.08 399.855   5
  -5 -16   6 7293.98 402.640   6
   5 -16  -6 5738.81 351.812  11
   5 -16  -5 2868.69 282.714  11
  -5 -16   5 3349.22 297.376   5
   5 -16  -5 3059.62 304.100   4
  -5 -16   5 3380.52 273.264   6
   5 -16  -4 13210.3 716.181  11
   5 -16  -4 15160.8 744.765   4
  -5 -16   4 14925.3 709.532   5
  -5 -16   4 14917.9 647.010   6
   5 -16  -3 15.5025 123.431   4
  -5 -16   3 107.968 125.058   5
  -5 -16   2 6453.27 451.925   5
   5 -16  -2 6130.67 457.933   4
   5 -16  -1 910.729 193.903   4
  -5 -16   1 996.730 197.542   5
   5 -16   0 2270.34 265.682   4
   5 -16   0 2197.73 258.238  15
  -5 -16   0 2331.00 269.380   5
  -5 -16  -1 10099.5 560.622   5
   5 -16   1 9830.58 569.986  15
   5 -16   1 9917.59 545.241   4
  -5 -16  -2 6939.06 428.908   5
   5 -16   2 6872.25 461.020  15
  -5 -16  -3 7633.74 422.538   5
   5 -16   3 8003.60 470.290  15
   5 -16   4 786.026 139.485  15
  -5 -16  -4 621.257 107.167   5
   5 -16   5 4348.97 264.602  15
   5 -17  -6 1071.24 145.658   3
  -5 -17   6 912.649 117.694   5
  -5 -17   5 11969.6 529.715   5
   5 -17  -5 12269.4 566.776   3
   5 -17  -5 12874.7 571.181   4
   5 -17  -4 618.216 139.931  11
  -5 -17   4 684.900 135.884   5
   5 -17  -4 793.653 157.521   4
   5 -17  -3 8725.36 511.134  11
  -5 -17   3 8888.90 482.478   5
   5 -17  -3 8488.51 496.057   4
   5 -17  -2 1143.13 187.496   4
  -5 -17   2 1022.46 175.623   5
  -5 -17   1 23550.0 923.257   5
   5 -17  -1 22900.1 931.879   4
   5 -17   0 1675.28 198.393   4
   5 -17   0 1296.52 162.019  15
  -5 -17   0 1729.12 205.529   5
  -5 -17  -1 6123.23 368.851   5
   5 -17   1 5527.49 353.957  15
   5 -17   1 5936.11 347.062   4
   5 -17   2 904.147 142.927  15
  -5 -17  -2 572.667 113.170   5
   5 -17   3 3283.07 242.823  15
  -5 -17  -3 3306.23 213.780   5
  -5 -18   4 3068.70 210.214   5
   5 -18  -3 62.2182 70.5133  11
  -5 -18   3 76.6517 65.5061   5
   5 -18  -3 83.4582 78.2651   4
   5 -18  -2 1752.50 196.488  11
  -5 -18   2 1640.31 171.337   5
   5 -18  -2 1773.01 179.959   4
   5 -18  -1 308.344 102.178  11
  -5 -18   1 313.973 97.2406   5
   5 -18  -1 294.271 88.6404   4
   5 -18   0 4515.11 298.774  11
  -5 -18   0 4401.52 272.541   5
   5 -18   0 4412.02 259.423   4
   5 -18   1 4912.81 285.533  11
  -5 -18  -1 5374.49 282.223   5
  -6   0  13 43.5189 109.353  13
  -6   0  13-9.60714 62.9673  12
   6   0 -12 10627.1 644.016   3
  -6   0  12 9091.60 535.104  12
   6   0 -11-13.6839 160.253   3
   6   0 -10 9554.54 700.121   5
   6   0 -10 9131.62 697.493   3
   6   0  -9-242.605 169.493  11
   6   0  -9-158.121 202.841   3
   6   0  -9-54.3355 144.302   5
   6   0  -8 100.637 140.495  11
   6   0  -8 393.667 175.763   3
   6   0  -8 672.743 357.378  14
   6   0  -8 180.214 160.800   5
   6   0  -7-218.047 240.401  14
   6   0  -6 132.433 178.982  14
   6   0  -5 83.3033 229.116  14
   6   0  -4 81227.8 3648.86  14
   6   0  -4 81934.7 3562.08   2
   6   0  -3 166.186 208.167   2
   6   0  -3-75.5857 187.280  14
   6   0  -2 89862.8 3758.05  14
   6   0  -2 92935.3 3965.77   2
   6   0  -1 80.4328 261.377   2
   6   0  -1-184.022 220.596  14
   6   0   0 158764. 5782.01  14
   6   0   0 159480. 6101.83   2
   6   0   1-784.063 393.654   2
  -6   0  -1-290.930 170.530  16
  -6   0  -2 72995.5 3029.89  16
   6   0   2 74418.0 3472.15  14
  -6   0  -3 48.8314 149.376  16
   6   0   4 3402.40 392.253  10
  -6   0  -4 3372.85 631.547  16
   6   0   4 3655.33 395.003   8
   6   0   4 4310.45 460.768  13
   6   0   4 4459.27 472.767   7
   6   0   5 294.649 170.166  10
  -6   0  -5-38.5075 220.007  16
   6   0   5 65.4950 146.547  13
   6   0   5-45.6671 160.974   7
   6   0   6 13822.6 929.731   7
   6   0   6 12992.2 845.601  10
   6   0   6 13699.5 904.768  13
   6   0   7-136.407 167.594  10
   6   0   7 22.3599 198.359  13
   6   0   7-104.014 190.066   7
   6   0   8 1279.83 289.986  13
   6   0   9-215.142 188.177  13
   6   0  10 18137.9 789.864  13
  -6   1  14 563.146 88.6271  13
  -6   1  13 5231.88 362.260  13
  -6  -1  13 4091.02 275.838  12
  -6  -1  13 5061.82 348.685  13
  -6  -1  12 561.793 159.809  12
  -6   1  12 377.656 127.996  12
   6   1 -11 413.250 208.596   3
   6  -1 -11 262.149 196.627   5
   6  -1 -11 190.990 176.575   3
   6  -1 -10 24652.3 1194.01   5
   6   1 -10 23352.1 1182.79   3
   6  -1 -10 22682.5 1199.51   3
   6   1  -9 2420.73 351.075  11
   6  -1  -9 2164.64 329.018  11
   6   1  -9 2503.30 361.664   5
   6  -1  -9 2432.83 344.516   5
   6   1  -9 2753.93 387.269   3
   6  -1  -9 2327.22 363.290   3
   6   1  -8 42088.5 1687.22   5
   6  -1  -8 41941.4 1653.86   5
   6   1  -8 39610.1 1646.64   3
   6  -1  -8 39856.1 1671.55   3
   6   1  -8 41915.0 2922.13  14
   6  -1  -8 38994.6 2765.72  14
   6   1  -8 37674.7 1649.79  11
   6  -1  -8 37741.8 1675.14  11
   6   1  -7 2821.52 347.535   3
   6  -1  -7 2584.03 339.256   3
   6   1  -7 2195.61 605.109  14
   6  -1  -7 2350.02 602.136  14
   6   1  -6 92236.4 4306.34  14
   6  -1  -6 88003.2 4180.83  14
   6  -1  -5 14651.9 1393.70  14
   6   1  -5 13899.5 1379.76  14
   6  -1  -5 13261.7 1248.62   2
   6   1  -4 13248.8 1296.16  14
   6  -1  -4 13643.1 1279.47  14
   6   1  -4 15039.4 1240.43   2
   6  -1  -4 14553.5 1326.15   2
   6   1  -3 43812.8 2443.97  14
   6  -1  -3 45530.8 2405.07  14
   6   1  -3 47601.4 2478.09   2
   6  -1  -3 44495.2 2519.88   2
   6   1  -2 513.578 348.970   2
   6  -1  -2 133.650 264.145   2
   6   1  -2 534.098 276.640  14
   6  -1  -2 1091.55 358.455  14
   6   1  -1 7672.84 923.508  14
   6  -1  -1 8128.83 911.802  14
   6   1  -1 7683.48 992.649   2
   6  -1  -1 7821.39 1024.80   2
   6   1   0 934.651 427.064   2
   6  -1   0 1232.90 436.537   2
   6   1   0 1686.25 469.042  14
   6  -1   0 1687.93 429.786  14
   6   1   1 78445.7 3563.49  14
  -6   1  -1 80054.2 3099.28  16
   6  -1   1 82079.4 3530.20  14
   6  -1   1 77820.9 3903.03   2
  -6   1  -2 10599.8 967.181  16
  -6  -1  -2 10625.2 945.742  16
   6  -1   2 10864.8 1116.93  14
   6   1   2 10841.2 1181.82  14
   6  -1   2 10116.1 1311.03   2
  -6   1  -3 2928.03 570.811  16
  -6  -1  -3 3643.59 590.073  16
   6   1   3 4359.46 777.634  14
   6  -1   4 19014.8 1027.10  10
  -6   1  -4 18392.1 1554.58  16
  -6  -1  -4 19067.9 1513.06  16
   6  -1   4 18646.6 977.518   8
   6   1   4 19281.2 995.616   8
   6  -1   4 19783.7 1065.22  13
   6   1   4 20769.2 1086.41  13
   6  -1   4 21427.4 1093.17   7
   6   1   4 21644.2 1097.07   7
   6  -1   5 1867.95 321.994  10
  -6   1  -5 2172.08 559.077  16
  -6  -1  -5 2153.54 564.615  16
   6   1   5 1826.50 273.325   9
   6   1   5 6743.02 579.453   8
   6  -1   5 6583.91 536.465   8
   6  -1   5 1938.19 340.329  13
   6   1   5 1838.61 343.057  13
   6  -1   5 1933.07 331.652   7
   6   1   5 2335.23 372.843   7
   6  -1   6 32488.9 1519.69  10
   6  -1   6 37016.9 1642.78   7
   6   1   6 34001.6 1428.35   9
   6   1   6 35905.9 1627.68   7
   6   1   6 42542.1 1605.05   8
   6  -1   6 45108.7 1563.01   8
   6  -1   6 33705.6 1584.89  13
   6   1   6 33686.6 1583.60  13
   6  -1   7 647.204 202.539  10
   6   1   7 463.072 138.721   9
   6  -1   7 649.856 244.541  13
   6   1   7 660.657 233.347  13
   6  -1   7 379.728 218.558   7
   6   1   7 523.369 213.839   7
   6  -1   8 12202.3 713.492  10
   6   1   8 12426.0 665.665   9
   6  -1   8 13673.4 841.706  13
   6   1   8 13204.9 845.949  13
   6   1   9 556.261 211.749  13
   6  -1   9 243.653 166.581  13
   6  -1  10 8332.46 474.648  13
   6   1  10 7818.08 467.584  13
  -6  -2  13 7939.13 430.280  13
  -6   2  13 8023.43 456.458  13
  -6  -2  13 6763.26 376.307  12
   6  -2 -12 420.262 165.451   3
  -6  -2  12 218.044 137.270  12
  -6   2  12 240.846 111.019  12
   6   2 -11 11176.9 725.402   3
   6  -2 -11 10586.0 712.232   5
   6  -2 -11 10240.7 728.921   3
  -6  -2  11 9953.30 647.502  12
   6  -2 -10 4398.63 455.496   5
   6   2 -10 3868.30 436.475   3
   6  -2 -10 4009.70 481.406   3
   6  -2  -9 54082.1 2025.96   5
   6   2  -9 50575.1 1997.50   3
   6  -2  -9 52949.5 2089.90   3
   6   2  -9 52527.1 2012.92  11
   6   2  -8 1028.34 247.047  11
   6  -2  -8 653.310 238.539  11
   6  -2  -8 922.428 248.876   3
   6  -2  -8 901.788 228.014   5
   6   2  -8 578.149 194.495   3
   6   2  -8 785.816 402.671  14
   6   2  -7 23884.1 1131.92   3
   6  -2  -7 24582.2 1167.52   3
   6   2  -7 21793.5 2005.92  14
   6  -2  -7 22600.6 1928.97  14
   6  -2  -6 3653.28 740.125  14
   6   2  -6 3026.83 689.302  14
   6   2  -5 83090.5 3922.51  14
   6  -2  -5 85241.7 3883.14  14
   6  -2  -5 82937.3 3845.47   2
   6   2  -4 6899.24 938.729  14
   6  -2  -4 6638.55 917.382   2
   6  -2  -4 6846.10 884.332  14
   6   2  -3 84040.2 3753.93  14
   6  -2  -3 84772.5 3625.37  14
   6   2  -3 90588.0 3686.91   2
   6  -2  -3 88825.7 3982.62   2
   6  -2  -2 73987.8 3275.25  14
   6   2  -2 76902.1 3495.26   2
   6  -2  -2 77452.1 3667.21   2
   6   2  -2 76445.9 3428.58  14
   6   2  -1 9370.55 1036.36  14
   6  -2  -1 10369.5 1005.15  14
   6   2  -1 9397.63 1096.42   2
   6  -2  -1 9357.26 1128.37   2
   6  -2   0 71.9635 321.586   2
   6  -2   0 611.796 276.908  14
   6   2   0 326.335 283.680  14
   6  -2   1 8176.47 1129.60   2
   6  -2   1 7957.24 894.944  14
   6   2   1 6851.53 898.514  14
   6  -2   2 2442.70 654.354   2
  -6   2  -2 2854.06 533.462  16
   6  -2   2 2535.50 531.635  14
   6   2   2 2826.43 624.920  14
  -6   2  -3 22267.8 1647.73  16
  -6  -2  -3 21517.4 1534.46  16
   6   2   3 23323.2 1857.18  14
   6  -2   4 5332.47 515.745  10
   6  -2   4 4963.77 453.931   8
  -6   2  -4 5420.16 841.695  16
  -6  -2  -4 5072.53 756.040  16
   6   2   4 5209.79 448.986   9
   6   2   4 5774.26 516.900   8
   6  -2   4 5653.70 544.600  13
   6   2   4 6285.68 561.402  13
   6  -2   4 5747.57 525.728   7
   6   2   4 5923.47 543.538   7
   6  -2   5 69515.8 2565.83  10
   6   2   5 75802.1 2492.00   9
   6   2   5 65607.2 2418.04   8
   6  -2   5 66103.5 2418.10   8
   6  -2   5 74079.4 2636.98  13
   6   2   5 77514.9 2669.62  13
   6  -2   5 78125.7 2666.68   7
   6   2   5 75597.3 2650.18   7
   6  -2   6 4083.63 474.998  10
   6   2   6 4176.43 416.084   9
   6   2   6 4590.72 516.774   7
   6  -2   6 4342.61 503.946  13
   6   2   6 4216.63 489.611  13
   6  -2   6 4597.44 506.851   7
   6  -2   7 5531.93 516.278  10
   6   2   7 6514.53 496.588   9
   6  -2   7 5778.39 549.636  13
   6   2   7 6321.64 588.775  13
   6   2   7 6906.12 594.303   7
   6  -2   8 710.153 188.930  10
   6   2   8 815.512 186.906   9
   6  -2   8 680.877 227.157  13
   6   2   8 1168.12 272.656  13
   6  -2   9 23363.5 998.327  10
   6   2   9 25440.9 975.898   9
   6  -2   9 26286.7 1124.72  13
   6   2   9 28373.3 1170.83  13
   6  -2  10 149.448 94.5937  13
   6   2  10 435.733 129.377  13
  -6  -3  13 9989.75 474.090  13
  -6   3  13 10862.1 535.009  13
  -6  -3  13 9571.02 459.780  12
   6  -3 -12 4384.65 415.405   5
   6  -3 -12 3536.49 357.526   3
  -6  -3  12 3726.10 322.597  12
  -6   3  12 3260.49 269.389  12
   6  -3 -11 18251.0 959.580   5
   6  -3 -11 16977.3 955.939   3
  -6  -3  11 16288.0 844.144  12
   6   3 -10-95.2636 157.545   3
   6  -3 -10 135.206 170.202   5
   6  -3 -10 62.0300 192.712   3
   6   3  -9 6716.51 580.464   3
   6  -3  -9 6947.43 575.594   5
   6  -3  -9 7418.12 639.939   3
   6   3  -9 7761.50 605.358  11
   6   3  -8 7608.73 605.595   3
   6  -3  -8 7820.85 608.447   5
   6  -3  -8 8214.39 652.264   3
   6   3  -8 8902.56 1307.91  14
   6  -3  -8 8885.94 1216.62  14
   6   3  -8 7383.41 610.717  11
   6  -3  -8 7983.04 663.771  11
   6   3  -7 254.110 139.544  11
   6  -3  -7 469.153 171.733  11
   6   3  -7-51.1492 117.989   3
   6  -3  -7 212.235 128.356   5
   6  -3  -7 215.399 217.357  14
   6  -3  -7 81.6177 155.752   3
   6   3  -6 4733.49 861.262  14
   6  -3  -6 5746.90 880.951  14
   6   3  -5 60599.9 3315.70  14
   6  -3  -5 68736.2 3365.96  14
   6  -3  -5 68384.7 3522.25   2
   6   3  -4 9817.36 1142.85  14
   6  -3  -4 10005.0 1069.51  14
   6  -3  -4 9594.97 1225.91   2
   6   3  -3 87301.1 3900.71  14
   6  -3  -3 88427.1 3680.30  14
   6  -3  -3 93256.1 4273.99   2
   6  -3  -2 3807.98 758.115   2
   6   3  -2 2990.95 606.044  14
   6  -3  -2 2838.14 527.828  14
   6  -3  -1 23208.0 1551.31  14
   6   3  -1 25141.6 1770.10  14
   6  -3  -1 23876.2 1914.62   2
   6  -3   0 327.981 204.902  14
   6   3   0 58.2287 211.148  14
   6  -3   1 95127.7 3739.57  14
   6   3   1 89866.1 4028.29  14
   6  -3   1 90538.6 4380.38   2
   6  -3   2 210.936 301.407   2
   6  -3   2 1288.68 338.342  14
   6   3   2 923.043 418.617  14
  -6   3  -3 13698.3 1371.66  16
  -6  -3  -3 11967.8 1163.42  16
   6  -3   3 12385.7 1501.21   2
   6   3   3 13840.4 1421.54  14
   6   3   4 29229.3 1238.83   9
   6  -3   4 25997.8 1285.16  10
  -6   3  -4 30567.3 2148.76  16
  -6  -3  -4 24086.7 1817.12  16
   6   3   4 28059.9 1265.72   8
   6  -3   4 25891.8 1212.01   8
   6  -3   4 26838.7 1315.25  13
   6   3   4 29707.6 1358.83  13
   6  -3   4 28156.3 1307.46   7
   6   3   4 28774.2 1327.36   7
   6  -3   5 19581.6 1101.15  10
   6   3   5 24163.5 1125.08   8
   6   3   5 22019.2 1068.07   9
   6  -3   5 22813.7 1065.53   8
   6  -3   5 20765.1 1143.26  13
   6   3   5 22861.6 1190.66  13
   6  -3   5 21647.2 1141.58   7
   6   3   5 22958.7 1182.90   7
   6  -3   6 343.928 202.141  10
   6   3   6 471.554 178.958   9
   6  -3   6 253.016 184.994  13
   6   3   6 501.462 236.812  13
   6  -3   6 175.410 146.730   7
   6   3   6 134.780 172.218   7
   6  -3   7 7.05492 161.283  10
   6   3   7 46.0506 121.699   9
   6  -3   7 130.054 171.545  13
   6   3   7 103.778 181.774  13
   6   3   7 107.764 160.425   7
   6   3   8 2440.53 291.224   9
   6  -3   8 2127.15 305.526  10
   6  -3   8 2246.84 325.438  13
   6   3   8 2749.79 385.324  13
   6   3   9 11460.1 661.641  13
   6  -3   9 10492.9 594.090  10
   6   3   9 11282.5 565.750   9
   6  -3   9 10206.2 613.116  13
   6  -3  10 4738.00 304.472  13
   6   3  10 5694.82 354.902  13
  -6   4  13 528.425 124.810  13
  -6  -4  13 454.263 105.708  12
   6  -4 -12 9945.26 628.474   5
   6  -4 -12 9006.97 570.281   3
  -6  -4  12 9529.02 521.946  13
  -6  -4  12 9862.29 537.773  12
   6  -4 -11 10398.1 687.471   5
   6  -4 -11 9531.57 681.366   3
  -6  -4  11 9874.84 613.869  12
   6  -4 -10 5341.16 509.883   5
   6  -4 -10 5995.87 578.678   3
  -6  -4  10 5764.56 494.307  12
   6   4 -10 6002.90 493.860  11
   6   4  -9 3154.18 393.386  11
   6  -4  -9 3144.84 392.041   5
   6   4  -9 3184.06 395.692   3
   6  -4  -9 3146.75 418.959   3
   6   4  -8 200.730 173.474  11
   6  -4  -8 472.963 224.210  11
   6   4  -8 238.105 178.416   3
   6  -4  -8 296.940 167.776   5
   6  -4  -8 1007.73 393.040  14
   6  -4  -8 482.458 215.955   3
   6   4  -7 27756.9 1240.68   3
   6  -4  -7 25782.9 1198.11   5
   6  -4  -7 26256.6 1245.36   3
   6   4  -7 27162.1 2224.41  14
   6  -4  -7 24804.6 2018.12  14
   6   4  -7 28389.0 1283.16  11
   6  -4  -7 26095.2 1304.64  11
   6  -4  -6 3732.91 784.550   2
   6   4  -6 3868.57 820.823  14
   6  -4  -6 3396.48 695.061  14
   6   4  -5 39847.5 2599.38  14
   6  -4  -5 45421.9 2587.45  14
   6  -4  -5 44876.0 2864.91   2
   6   4  -4 62172.9 3302.49  14
   6  -4  -4 64828.7 3102.62  14
   6  -4  -4 70702.0 3688.72   2
   6   4  -3 1884.66 496.816  14
   6  -4  -3 1530.47 401.041  14
   6  -4  -3 1910.75 580.650   2
   6   4  -2 16847.0 1458.32  14
   6  -4  -2 16844.5 1294.05  14
   6  -4  -2 17200.8 1700.18   2
   6  -4  -1 112.898 322.909   2
   6  -4  -1 339.000 207.773  14
   6   4  -1 680.276 338.516  14
   6   4   0 47473.8 2689.18  14
   6  -4   0 48905.3 2984.29   2
   6   4   1-33.7299 314.474  14
   6  -4   1 261.299 258.734   2
   6   4   2 68057.4 3478.97  14
   6  -4   2 67245.5 3716.45   2
   6  -4   3 45758.9 1876.52  10
   6   4   3 50430.8 2971.69  14
   6  -4   3 49423.3 3163.18   2
   6   4   3 48235.2 1862.12   7
   6   4   3 49310.1 1795.00   9
   6  -4   4 4925.99 502.774  10
  -6   4  -4 6032.32 930.218  16
   6   4   4 5346.75 464.573   9
   6  -4   4 4858.47 454.993  15
   6   4   4 5466.74 500.115   8
   6  -4   4 4593.32 442.446   8
   6  -4   4 5156.74 516.322  13
   6   4   4 5315.69 518.719  13
   6   4   4 4693.12 482.932   7
   6  -4   4 5044.60 482.129   7
   6  -4   5 298.251 203.904  10
   6   4   5 668.914 208.828   9
   6  -4   5 571.223 213.172  13
   6   4   5 641.018 221.936  13
   6  -4   5 457.653 201.745   7
   6   4   5 711.540 232.674   7
   6  -4   6 588.873 212.785  10
   6   4   6 723.415 208.535   9
   6  -4   6 578.887 208.635  13
   6   4   6 491.906 212.680  13
   6  -4   6 459.220 185.042   7
   6   4   6 516.487 202.034   7
   6  -4   7 7603.04 622.378  10
   6   4   7 8267.47 581.158   9
   6  -4   7 7554.97 597.884  13
   6   4   7 8281.78 656.582  13
   6   4   7 8247.36 625.677   7
   6  -4   8 658.182 212.242  10
   6  -4   8 629.610 171.171  13
   6   4   8 623.832 176.892   9
   6   4   8 865.538 220.873  13
   6  -4   9 23993.6 1006.20  10
   6   4   9 24205.5 942.672   9
   6   4   9 25365.3 1041.70  13
   6  -4   9 21851.4 952.446  13
   6   4  10 7694.04 398.785  13
  -6   5  13 358.901 105.905  13
  -6  -5  13 212.032 85.2731  12
   6  -5 -12 3305.98 345.982   5
   6  -5 -12 2529.73 282.817   3
  -6  -5  12 2924.05 276.054  12
  -6  -5  12 2657.44 236.494   6
   6  -5 -11 564.055 199.397   5
   6  -5 -11 602.132 215.822   3
  -6  -5  11 693.760 197.885  12
   6  -5 -10 58287.7 2197.77   5
   6  -5 -10 61321.8 2298.72   3
  -6  -5  10 61062.5 2124.14  12
   6   5 -10 62061.2 2172.47  11
   6   5  -9 109.378 165.995  11
   6  -5  -9 285.937 164.940   5
   6  -5  -9 50.9094 176.227   3
   6  -5  -8 22747.2 1126.47   5
   6  -5  -8 22999.9 1174.75   3
   6   5  -8 23054.3 1161.96  11
   6  -5  -8 22287.3 1181.38  11
   6   5  -7 2994.00 377.674  11
   6  -5  -7 2813.52 391.987  11
   6  -5  -7 2875.94 357.364   5
   6   5  -7 2953.53 363.967   3
   6   5  -7 2861.02 677.766  14
   6  -5  -7 1786.81 500.735  14
   6  -5  -7 2910.68 374.742   3
   6  -5  -6 57217.8 3450.66   2
   6   5  -6 56117.0 2081.45   3
   6  -5  -6 54772.7 2048.04   3
   6   5  -6 52044.3 3154.28  14
   6  -5  -6 57867.9 3148.56  14
   6   5  -6 61242.5 2118.29  11
   6  -5  -6 54138.6 2111.58  11
   6  -5  -5 495.134 366.866   2
   6   5  -5 779.476 378.408  14
   6  -5  -5-180.370 195.970  14
   6  -5  -4 45776.7 2958.13   2
   6   5  -4 41370.8 2600.55  14
   6  -5  -3 8347.14 1200.94   2
   6   5  -3 6772.95 961.069  14
   6   5  -2 19964.5 1653.55  14
   6  -5  -2 20235.7 1856.63   2
   6   5  -1 2041.76 543.994  14
   6  -5  -1 1580.81 572.574   2
   6  -5   0 1141.58 454.783   2
   6   5   0 883.439 373.919  14
   6   5   1 1477.87 468.802  14
   6  -5   1 1333.54 502.124   2
   6   5   2 37951.8 2500.48  14
   6  -5   2 39551.2 2741.79   2
   6  -5   3 2566.44 681.251   2
   6  -5   3 2101.13 338.408  10
   6   5   3 2668.48 326.987   9
   6  -5   3 2378.60 325.455  15
   6   5   3 2396.76 338.929   8
   6  -5   3 2011.34 322.518  13
   6   5   3 1951.83 305.570  13
   6   5   3 2222.74 327.278   7
   6  -5   4 23098.5 1209.31  10
  -6   5  -4 28128.6 2169.19  16
   6   5   4 25867.9 1155.08   9
   6  -5   4 22632.7 1135.38  15
   6  -5   4 24110.8 1212.62  13
   6   5   4 22626.2 1094.27   8
   6   5   4 24884.5 1217.44  13
   6  -5   4 24475.0 1165.00   7
   6   5   4 24088.5 1186.04   7
   6  -5   4 22150.3 1068.82   8
   6  -5   5 3087.28 400.180  10
   6   5   5 4023.04 424.208   9
   6   5   5 3610.46 439.275  13
   6  -5   5 3290.60 392.520   7
   6  -5   5 3204.20 411.507  13
   6   5   5 3226.84 412.657   7
   6  -5   6 29630.5 1398.39  10
   6   5   6 30348.3 1325.75   9
   6  -5   6 28238.5 1344.91  13
   6   5   6 31617.3 1432.49  13
   6   5   6 29582.1 1372.85   7
   6  -5   7 159.669 175.107  10
   6   5   7 272.838 153.572   9
   6  -5   7 60.0009 128.196  13
   6   5   7 435.525 199.879  13
   6   5   7 294.030 171.481   7
   6  -5   8 33499.8 1368.75  10
   6   5   8 32188.0 1244.70   9
   6   5   8 31966.8 1327.14  13
   6  -5   9 540.893 170.451  10
   6   5   9 529.154 131.937   9
   6  -5   9 370.445 106.855  13
   6   5   9 622.315 152.148  13
  -6   6  13 745.407 115.481  13
  -6  -6  13 932.322 119.550  12
   6  -6 -12 11109.3 607.335   5
   6  -6 -12 9427.81 536.478   3
  -6  -6  12 11203.0 537.377  12
  -6  -6  12 9237.68 463.568   6
   6  -6 -11 3308.22 363.798   5
   6  -6 -11 3084.98 372.303   3
  -6  -6  11 3520.22 333.186  12
   6  -6 -10 3861.37 412.135   5
   6  -6 -10 3513.55 434.873   3
  -6  -6  10 3610.74 368.022  12
   6   6 -10 4098.52 413.341  11
   6  -6  -9 16678.7 918.781   5
   6  -6  -9 16075.6 961.934   3
  -6  -6   9 15960.8 873.851  12
   6   6  -9 16909.7 945.749  11
   6  -6  -8 7126.21 570.263   5
   6  -6  -8 7591.85 630.255   3
   6   6  -8 6697.99 579.521  11
   6  -6  -8 6116.47 564.949  11
   6  -6  -7 18210.3 970.191   5
   6  -6  -7 19026.5 1031.40   3
   6   6  -7 20936.2 1871.08  14
   6   6  -7 20954.2 1068.47  11
   6  -6  -7 18208.5 1050.62  11
   6   6  -6 1580.02 286.210  11
   6  -6  -6 1546.66 283.974  11
   6  -6  -6 1700.74 587.356   2
   6   6  -6 1527.83 488.237  14
   6  -6  -6 1534.60 275.735   3
   6  -6  -5 25241.9 2195.91   2
   6   6  -5 22367.1 1907.89  14
   6   6  -4 2124.97 584.875  14
   6  -6  -4 2764.96 766.881   2
   6   6  -3-76.7575 157.480  14
   6  -6  -3 413.637 361.606   2
   6   6  -2 133763. 5358.70  14
   6  -6  -2 127161. 5749.44   2
   6  -6  -1 5161.25 950.579   2
   6   6  -1 4949.13 820.815  14
   6   6   0 32734.0 2233.47  14
   6  -6   0 33571.6 2488.67   2
   6  -6   1 782.642 418.323   2
   6   6   1 427.037 335.989  14
   6  -6   2 61821.8 2304.16  10
   6   6   2 60372.5 3383.99  14
   6   6   2 63618.2 2192.32   9
   6  -6   2 61713.6 3592.22   2
   6  -6   2 61604.1 2263.56  15
   6  -6   3 7143.01 614.903  10
   6  -6   3 7694.38 1204.46   2
   6   6   3 8551.78 594.134   9
   6  -6   3 7606.14 600.411  15
   6   6   3 6712.67 539.349   8
   6   6   3 6955.60 557.711  13
   6   6   3 7664.18 598.515   7
   6  -6   4 5746.15 561.139  10
   6   6   4 6194.13 514.844   9
   6  -6   4 5869.07 527.886  15
   6   6   4 6221.25 508.067   8
   6  -6   4 6042.92 539.279  13
   6   6   4 5486.59 511.179  13
   6   6   4 5726.79 523.488   7
   6  -6   5 23770.0 1225.63  10
   6   6   5 25703.5 1182.68   9
   6  -6   5 22790.3 1118.07  15
   6   6   5 24525.0 1207.43  13
   6   6   5 25235.1 1220.53   7
   6  -6   5 24848.4 1202.33  13
   6  -6   6 3385.50 383.538  13
   6   6   6 3556.19 414.948   7
   6  -6   6 3537.10 439.231  10
   6   6   6 3863.36 415.304   9
   6   6   6 3686.86 418.355  13
   6   6   7 23004.5 1102.96  13
   6  -6   7 25044.3 1177.53  10
   6   6   7 23969.6 1062.09   9
   6   6   7 23199.4 1079.65   7
   6  -6   8 906.817 224.226  10
   6   6   8 848.917 180.672   9
   6   6   8 1101.65 221.036  13
   6  -6   9 1920.48 241.189  10
   6   6   9 2228.07 221.088   9
   6   6   9 1748.32 201.480  13
  -6  -7  13 5689.50 275.507  12
  -6  -7  12-23.7896 80.8708   6
   6  -7 -12-29.2469 94.6294   3
   6  -7 -12 26.7932 99.8671   5
  -6   7  12-35.6121 89.7582  13
  -6  -7  12-24.9352 86.9829  12
   6  -7 -11 10671.9 640.409   5
   6  -7 -11 9855.64 630.555   3
  -6  -7  11 10081.6 560.675  12
   6  -7 -10 3070.83 357.641   5
   6  -7 -10 3179.68 398.977   3
  -6  -7  10 3042.63 329.265  12
   6   7 -10 3323.98 368.034  11
   6   7  -9 438.344 189.789  11
   6  -7  -9 685.413 201.684   5
   6  -7  -9 210.324 182.595   3
  -6  -7   9 387.080 168.931  12
   6   7  -8-91.6464 173.492  11
   6  -7  -8-44.3407 152.650  11
   6  -7  -8 178.338 141.592   5
   6  -7  -8 325.361 209.029   3
  -6  -7   8 258.924 176.049  12
   6   7  -7 2391.45 351.594  11
   6  -7  -7 2069.74 328.679  11
   6  -7  -7 2115.75 298.099   5
   6  -7  -7 2826.31 387.410   3
  -6  -7   7 2756.29 342.289  12
   6  -7  -6 32527.1 1457.33  11
   6  -7  -6 32970.3 2635.33   2
   6  -7  -6 32070.5 1434.72   3
   6   7  -6 30499.3 2334.54  14
   6  -7  -6 31221.1 1399.39   4
   6   7  -6 35108.6 1473.53  11
   6   7  -5 299.589 155.879  11
   6  -7  -5 194.310 179.706  11
   6  -7  -5 773.999 412.783   2
   6   7  -5 317.077 215.183  14
   6  -7  -5 20.7907 115.685   4
   6   7  -4 337.100 166.604  11
   6  -7  -4 528.629 315.426   2
   6   7  -4 713.281 333.579  14
   6  -7  -3 89758.9 4640.66   2
   6   7  -3 81977.0 4027.46  14
   6  -7  -2-322.969 347.251   2
   6   7  -2 1106.66 416.023  14
   6   7  -1 93723.7 4330.95  14
   6  -7  -1 98004.2 4849.54   2
   6  -7   0 2987.37 725.209   2
   6   7   0 3529.29 709.372  14
   6   7   1 31671.6 1336.05   9
   6  -7   1 29451.6 1391.26  10
   6  -7   1 30787.9 1384.24  15
   6   7   1 32345.8 2305.85  14
   6  -7   1 33807.9 2530.43   2
   6  -7   2 5474.00 535.951  10
   6   7   2 4921.45 460.825   9
   6  -7   2 6005.55 1036.28   2
   6  -7   2 5180.80 493.534  15
   6   7   2 5866.16 936.823  14
   6  -7   3 26130.5 1268.24  10
   6   7   3 26867.1 1171.71   9
   6  -7   3 25021.6 1199.98  15
   6  -7   3 24271.8 2159.95   2
   6   7   3 25145.6 1177.93   7
   6  -7   4 3124.77 422.230  10
   6  -7   4 3029.14 367.778  15
   6   7   4 2641.43 346.479   9
   6   7   4 3597.44 421.941   7
   6  -7   5 6500.80 605.548  10
   6   7   5 7408.90 572.488   9
   6  -7   5 6453.06 530.402  15
   6   7   5 6069.84 523.320  13
   6   7   5 6872.57 569.902   7
   6   7   6 301.544 163.915  13
   6  -7   6 283.219 124.869  15
   6  -7   6-56.8756 179.123  10
   6   7   6 312.115 166.049   9
   6   7   6 306.734 161.243   7
   6  -7   7 214.156 214.158  10
   6   7   7 67.7749 143.408   9
   6   7   7 89.5432 128.026  13
   6  -7   8 3349.98 365.674  10
   6   7   8 3285.46 310.610   9
   6   7   8 2744.70 272.890  13
   6  -7   9 2939.88 274.172  10
   6   7   9 2867.74 237.045   9
  -6  -8  12 24.7939 54.2747   6
   6  -8 -12 84.1806 86.5916   5
   6  -8 -12 8.71514 80.8678   3
  -6  -8  12 24.1540 75.9907  12
   6  -8 -11 9486.45 569.259   5
   6  -8 -11 9161.10 571.509   3
  -6  -8  11 9813.17 518.884  12
  -6  -8  11 9082.36 503.465   6
   6  -8 -10 2312.89 330.512   3
   6  -8 -10 2378.91 306.756   5
  -6  -8  10 2394.54 274.547  12
   6  -8  -9 18806.9 957.910   5
   6  -8  -9 18819.9 1027.43   3
  -6  -8   9 18735.8 911.004  12
   6   8  -9 19654.0 1012.48  11
   6   8  -8 118.535 175.759  11
   6  -8  -8 373.188 185.698  11
   6  -8  -8 414.595 158.064   5
   6  -8  -8 801.877 263.344   3
  -6  -8   8 176.272 149.253  12
   6  -8  -7 32179.1 1352.33   5
  -6  -8   7 33283.3 1340.52  12
   6   8  -7 32218.7 1450.42  11
   6  -8  -7 32576.6 1457.52   3
   6  -8  -7 29683.8 1420.22  11
   6  -8  -6 4194.58 467.322  11
   6  -8  -6 4505.12 456.099   4
  -6  -8   6 4647.45 407.900  12
   6   8  -6 4595.56 483.657  11
   6  -8  -5 36483.0 1582.63  11
   6  -8  -5 39743.7 2951.88   2
   6   8  -5 36581.3 2498.13  14
   6  -8  -5 35791.6 1519.11   4
   6   8  -5 41402.6 1638.77  11
   6   8  -4 342.694 187.253  11
   6  -8  -4-147.320 296.954   2
   6  -8  -4 143.043 112.357   4
   6  -8  -3 23727.5 2304.47   2
   6   8  -3 24549.7 1956.37  14
   6   8  -3 24437.7 1176.38  11
   6  -8  -2 6431.51 527.102  15
   6   8  -2 6239.34 945.758  14
   6  -8  -2 7099.33 1221.30   2
   6  -8  -1 8.09297 143.054  15
   6   8  -1 542.329 315.747  14
   6  -8  -1-80.1595 335.358   2
   6  -8   0 20729.8 1101.93  10
   6   8   0 21788.4 1069.51   9
   6   8   0 20509.5 1800.70  14
   6  -8   0 20429.7 2037.41   2
   6  -8   0 21575.0 1096.60  15
   6  -8   1 2581.75 368.162  10
   6  -8   1 2646.06 745.239   2
   6  -8   1 2677.47 361.736  15
   6   8   1 2618.80 344.051   9
   6   8   1 3771.30 761.139  14
   6  -8   2 1126.64 268.816  10
   6  -8   2 1053.02 489.462   2
   6  -8   2 754.449 214.369  15
   6   8   2 616.584 203.160   9
   6   8   2 1147.76 236.618   7
   6  -8   3 29854.7 1415.78  10
   6   8   3 29464.1 1310.68   9
   6  -8   3 29358.8 1353.90  15
   6   8   3 28914.3 1312.49   7
   6  -8   4 6618.24 605.332  10
   6   8   4 6267.37 534.179   9
   6  -8   4 5860.12 528.987  15
   6   8   4 6075.98 524.542   7
   6  -8   5 9520.12 731.004  10
   6   8   5 9908.24 673.044   9
   6  -8   5 9366.37 656.354  15
   6   8   5 10721.3 688.376   7
   6  -8   6-204.042 214.376  10
   6   8   6 116.442 163.728   9
   6  -8   6 9.81956 123.786  15
   6   8   6 230.785 130.869   7
   6  -8   7 41125.5 1592.60  10
   6   8   7 38725.3 1481.61   9
   6  -8   8 2232.25 284.483  10
   6   8   8 2197.50 243.353   9
   6  -8   9 14644.5 624.514  10
   6   8   9 13851.2 573.224   9
   6  -9 -12 5073.80 307.443   5
  -6  -9  12 6072.84 305.491  12
   6  -9 -11 2344.55 253.289   5
   6  -9 -11 2006.55 247.557   3
  -6  -9  11 2488.77 233.418  12
  -6  -9  11 2328.20 225.997   6
   6  -9 -10 22406.0 1003.67   5
   6  -9 -10 24308.9 1092.43   3
  -6  -9  10 23404.2 963.685  12
  -6  -9  10 23445.0 984.962   6
   6   9  -9 1578.91 275.364  11
   6  -9  -9 1141.79 219.370   5
   6  -9  -9 1151.05 250.854   3
  -6  -9   9 1321.40 220.438  12
   6  -9  -8 12214.7 721.101   5
   6  -9  -8 12276.6 800.644   3
  -6  -9   8 11975.5 687.848  12
   6   9  -8 13035.0 814.317  11
   6  -9  -8 12173.1 758.272  11
   6   9  -7-38.5925 172.487  11
   6  -9  -7-105.396 161.311  11
   6  -9  -7-44.1966 101.520   5
   6  -9  -7 6.05426 164.429   3
  -6  -9   7-75.8677 118.006  12
   6  -9  -6 7122.93 599.735  11
   6  -9  -6 6396.37 554.081   4
   6   9  -6 7829.17 624.823  11
   6  -9  -5 6086.09 557.480  11
   6  -9  -5 6362.15 536.677   4
   6   9  -5 6027.88 577.859  11
   6  -9  -4 27920.6 2532.66   2
   6  -9  -4 26381.5 1222.14   4
   6   9  -4 28537.1 1325.90  11
   6   9  -3 14091.4 1437.98  14
   6  -9  -3 12971.2 768.853   4
   6   9  -3 14472.1 865.393  11
   6  -9  -3 12615.9 793.107  15
   6   9  -2 29811.8 2172.70  14
   6  -9  -2 28077.0 1224.15   4
   6  -9  -2 26486.3 1271.67  15
   6   9  -2 29512.5 1332.88  11
   6  -9  -1 5187.12 505.028  10
   6  -9  -1 5418.77 506.758  15
   6   9  -1 5930.27 519.157   9
   6   9  -1 4614.49 806.526  14
   6  -9  -1 5599.31 1090.76   2
   6  -9   0 1367.63 258.134  10
   6  -9   0 1292.21 539.051   2
   6  -9   0 2187.70 341.933  15
   6   9   0 2051.10 564.808  14
   6   9   0 2055.28 316.498   9
  -6  -9   0 2248.60 291.873   5
   6  -9   1 14458.3 910.387  10
   6  -9   1 13257.6 1628.42   2
   6   9   1 15868.2 884.935   9
   6   9   1 14401.0 1550.22  14
   6  -9   1 16099.6 927.729  15
   6  -9   2 24445.4 1260.37  10
   6   9   2 26251.3 1204.33   9
   6  -9   2 25612.4 1245.31  15
   6  -9   3 7068.48 626.876  10
   6   9   3 7880.57 603.075   9
   6  -9   3 7812.07 622.592  15
   6  -9   4 20992.3 1061.33  15
   6  -9   4 20440.8 1125.69  10
   6   9   4 19789.3 1022.04   9
   6  -9   5 2785.82 387.586  10
   6  -9   5 2893.90 349.271  15
   6   9   5 2515.72 332.957   9
   6  -9   6 12996.8 788.918  10
   6   9   6 13271.3 738.846   9
   6  -9   6 11621.3 674.429  15
   6  -9   7 2624.02 323.712  10
   6   9   7 2383.31 282.891   9
   6  -9   8 11219.1 586.669  10
   6   9   8 10940.1 542.237   9
  -6 -10  11 73.2514 75.3536   6
   6 -10 -11 21.1089 89.1457   5
   6 -10 -11-89.1590 98.7917   3
  -6 -10  11 44.3499 81.2683  12
   6 -10 -10 6854.22 451.742   5
   6 -10 -10 6975.90 497.759   3
  -6 -10  10 7113.91 425.880  12
  -6 -10  10 7122.33 450.192   6
  -6 -10   9-123.800 158.428   6
   6 -10  -9 151.113 127.328   5
   6 -10  -9-99.2132 194.509   3
  -6 -10   9-70.7600 105.552  12
   6  10  -8 201.113 161.810  11
   6 -10  -8 128.708 131.060  11
   6 -10  -8 192.515 106.583   5
   6 -10  -8 390.030 214.457   3
  -6 -10   8 382.457 149.544  12
   6 -10  -7 6913.44 586.880   3
  -6 -10   7 6222.08 452.417  12
   6  10  -7 6164.76 566.229  11
   6 -10  -7 6021.64 535.771  11
   6 -10  -6 9433.63 693.695  11
   6 -10  -6 9482.51 677.339   4
   6  10  -6 9686.78 717.487  11
   6  10  -5 2275.15 360.537  11
   6 -10  -5 1984.34 332.770  11
   6 -10  -5 2209.00 323.464   4
   6 -10  -4 3377.13 386.120   4
   6  10  -4 3789.35 460.708  11
   6 -10  -3 110.993 146.369   4
   6  10  -3 151.307 166.168  11
   6 -10  -3 89.6593 143.373  15
   6  10  -2 75626.3 2553.25   9
   6 -10  -2 68278.0 2495.55  15
   6 -10  -2 73153.8 2466.26   4
   6  10  -2 69510.9 2550.18  11
   6 -10  -1 443.745 163.489  15
   6  10  -1 768.893 225.745   9
   6 -10   0 26196.7 1289.00  10
   6  10   0 28486.6 1271.46   9
   6 -10   0 26879.9 1291.57  15
  -6 -10   0 27918.9 1193.77   5
   6 -10   1 2946.90 376.262  10
  -6 -10  -1 3432.91 349.287   5
   6 -10   1 3327.82 400.125  15
   6  10   1 3631.81 402.676   9
   6 -10   2 26609.4 1298.93  10
   6  10   2 25441.0 1195.74   9
   6 -10   2 25641.7 1250.34  15
   6 -10   3 1853.54 335.375  10
   6 -10   3 2291.59 346.031  15
   6  10   3 2224.48 328.448   9
   6 -10   4 29570.2 1388.42  10
   6  10   4 31517.7 1334.68   9
   6 -10   4 30007.7 1354.16  15
   6 -10   5 245.500 178.485  10
   6 -10   5 87.6030 149.432  15
   6  10   5 168.343 159.503   9
   6 -10   6 285.620 170.859  10
   6 -10   6 486.069 162.325  15
   6  10   6 609.710 185.919   9
   6 -10   7 3530.35 335.443  10
   6  10   7 3294.06 299.889   9
   6 -10   8 12135.1 575.638  10
   6  10   8 13279.6 561.035   9
   6 -11 -11 2983.97 231.255   3
  -6 -11  11 3010.14 198.646  12
  -6 -11  11 3127.17 212.068   6
   6 -11 -10 8133.62 452.036   5
   6 -11 -10 8913.00 532.302   3
  -6 -11  10 9294.80 453.179  12
  -6 -11  10 8950.46 479.088   6
  -6 -11   9 494.885 168.013   6
   6 -11  -9-55.3469 145.365   3
   6 -11  -9 211.193 116.991   5
  -6 -11   9 291.181 109.728  12
   6 -11  -8 14746.5 742.297   5
   6 -11  -8 16168.7 880.750   3
  -6 -11   8 15662.0 719.379  12
   6 -11  -8 14571.8 781.499  11
  -6 -11   8 16530.0 821.995   6
   6 -11  -7 293.583 162.502  11
  -6 -11   7 156.161 156.617   6
   6 -11  -7 176.728 177.504   3
  -6 -11   6 13066.8 769.136   6
   6 -11  -6 12946.2 802.975  11
   6 -11  -6 13377.0 801.578   4
   6  11  -6 12280.8 828.907  11
  -6 -11   5 11441.0 697.656   6
   6 -11  -5 10263.2 730.605  11
   6 -11  -5 10231.5 700.670   4
   6  11  -5 9842.45 759.498  11
   6 -11  -4 9954.67 674.443   4
   6  11  -4 8748.35 718.640  11
  -6 -11   4 9657.10 640.450   6
   6  11  -3 2309.25 364.473  11
   6 -11  -3 2930.79 363.280  15
   6 -11  -3 3161.91 373.186   4
   6 -11  -2 4991.03 473.150  15
   6  11  -2 5082.21 477.956   9
   6 -11  -2 4548.35 443.985   4
   6  11  -1 23415.3 1126.47   9
   6 -11  -1 22264.7 1133.61  15
   6 -11  -1 23528.2 1082.66   4
   6  11   0 49.3824 140.441   9
  -6 -11   0 170.203 121.897   5
   6 -11   1 15974.6 929.545  10
  -6 -11  -1 17921.1 869.321   5
   6  11   1 15883.4 891.768   9
   6 -11   1 16132.6 936.655  15
   6 -11   2 5297.04 512.035  10
  -6 -11  -2 6488.49 477.027   5
   6  11   2 6140.03 515.331   9
   6 -11   2 6233.48 550.885  15
   6 -11   3 7435.50 601.096  10
   6  11   3 8071.66 592.937   9
   6 -11   3 7698.36 610.329  15
   6 -11   4 12275.5 787.341  10
   6  11   4 12751.3 744.209   9
   6 -11   4 13307.3 795.481  15
   6 -11   5 2322.23 320.438  10
   6 -11   5 2442.48 320.290  15
   6  11   5 2558.67 305.827   9
   6 -11   6 13636.2 723.163  10
   6  11   6 14032.8 696.894   9
   6 -11   6 13903.0 692.990  15
   6 -11   7-186.551 127.048  10
   6  11   7 180.903 101.703   9
   6  11   8 5036.76 266.706   9
   6 -12 -10 1433.56 184.374   3
  -6 -12  10 1647.76 142.811  12
  -6 -12  10 1923.93 191.710   6
   6 -12  -9 8742.06 543.327   3
  -6 -12   9 8777.79 432.923  12
  -6 -12   9 9302.82 512.776   6
  -6 -12   8 345.712 162.730   6
   6 -12  -8 325.739 171.815   3
   6 -12  -7 48248.2 1775.07   3
  -6 -12   7 45044.7 1670.18   6
   6 -12  -7 43668.6 1686.45  11
   6 -12  -6 47.1872 145.634  11
  -6 -12   6 146.208 136.790   6
   6 -12  -6 174.189 162.700   4
   6 -12  -5 14133.9 841.258  11
   6 -12  -5 13076.9 792.491   4
  -6 -12   5 13878.9 772.658   6
  -6 -12   4 1590.52 250.904   6
   6  12  -4 1227.74 254.993   9
   6 -12  -4 1250.77 237.946   4
   6  12  -3 4886.38 459.302   9
   6 -12  -3 5248.00 468.855   4
   6 -12  -2 287.033 154.086   4
   6 -12  -2 239.681 159.236  15
   6  12  -2 60.8640 129.822   9
   6 -12  -1 2412.22 310.926   4
   6 -12  -1 1951.00 303.063  15
   6  12  -1 2076.45 293.240   9
  -6 -12   1 2350.65 299.043   5
   6 -12   0 1918.10 261.632   4
  -6 -12   0 2038.72 289.116   5
   6 -12   0 2186.76 335.968  15
   6  12   0 1911.67 297.044   9
   6 -12   1 375.021 201.408  15
   6  12   1 473.615 170.127   9
  -6 -12  -1 393.704 153.825   5
   6 -12   2 8004.92 593.533  10
  -6 -12  -2 8192.32 535.531   5
   6  12   2 7505.96 564.956   9
   6 -12   2 8010.00 618.890  15
   6 -12   3 17291.8 926.279  10
  -6 -12  -3 17969.3 830.457   5
   6  12   3 17477.3 888.802   9
   6 -12   3 18572.5 961.134  15
   6 -12   4 2047.38 276.077  10
   6  12   4 2157.47 286.584   9
   6 -12   4 2344.73 316.879  15
   6 -12   5 18971.3 895.142  10
   6  12   5 19581.9 869.753   9
   6 -12   5 19847.7 908.030  15
   6 -12   6 241.948 106.149  10
   6 -12   6 491.793 127.761  15
   6  12   6 588.102 137.594   9
   6 -12   7 23390.1 886.413  10
   6  12   7 29290.1 919.758   9
  -6 -13  10 791.391 110.164   6
   6 -13 -10 727.656 111.596   3
  -6 -13   9 62.1079 91.7111   6
   6 -13  -9-86.9687 112.677   3
   6 -13  -8 7188.21 492.085   3
  -6 -13   8 7473.61 458.196   6
  -6 -13   7 19.1079 140.184   6
   6 -13  -7 97.8699 111.889  11
   6 -13  -7 63.0147 141.784   3
   6 -13  -6 4718.78 427.022  11
   6 -13  -6 5144.38 445.935   4
  -6 -13   6 5593.52 432.926   6
  -6 -13   5 279.970 147.387   6
   6 -13  -5 33.8149 149.139  11
   6 -13  -5-7.34535 133.382   4
  -6 -13   4 627.829 161.043   6
   6  13  -4 1016.83 206.177   9
   6 -13  -4 725.286 195.630   4
   6  13  -3 26696.1 1153.29   9
   6 -13  -3 27595.2 1209.92   4
   6 -13  -2 178.478 133.644   4
   6 -13  -2 54.5436 127.614  15
   6  13  -2-136.731 142.886   9
  -6 -13   2-152.946 132.223   5
  -6 -13   1 26034.5 1124.72   5
   6  13  -1 26497.9 1138.31   9
   6 -13  -1 24712.0 1167.97  15
   6 -13  -1 26122.2 1140.56   4
   6 -13   0 997.102 198.887   4
   6 -13   0 1340.80 262.654  15
   6  13   0 959.881 204.299   9
  -6 -13   0 842.887 200.999   5
  -6 -13  -1 38634.0 1447.63   5
   6 -13   1 37401.4 1546.73  15
   6  13   1 37042.3 1451.79   9
  -6 -13  -2 3252.66 325.416   5
   6 -13   2 2496.10 349.436  15
   6  13   2 2442.96 295.969   9
  -6 -13  -3 8850.48 513.727   5
   6  13   3 9089.42 559.429   9
   6 -13   3 8619.00 600.099  15
   6 -13   4 1822.85 230.310  10
   6  13   4 2788.91 281.662   9
   6 -13   4 2718.15 310.088  15
   6 -13   5 1170.81 173.912  10
   6 -13   5 1465.25 212.874  15
   6  13   5 1078.76 169.134   9
   6  13   6 1972.30 184.402   9
   6 -13   6 1614.77 171.462  15
  -6 -14   9 772.083 115.234   6
   6 -14  -9 821.090 129.698   3
  -6 -14   9 886.156 115.473   5
  -6 -14   8 1596.04 189.030   6
   6 -14  -8 1622.26 210.405   3
   6 -14  -7 7816.79 499.041   3
  -6 -14   7 7488.03 449.276   6
   6 -14  -7 6710.14 424.612  11
   6 -14  -6 7312.73 497.501  11
   6 -14  -6 7596.38 527.283   3
  -6 -14   6 7982.76 481.322   6
  -6 -14   5 1531.06 204.047   6
   6 -14  -5 1111.74 222.577  11
   6 -14  -5 1435.96 242.977   4
   6 -14  -4 8594.61 602.219  11
   6 -14  -4 8024.44 552.094   4
  -6 -14   4 7919.33 469.694   6
  -6 -14   3 4882.28 407.094   5
   6 -14  -3 4840.74 424.664   4
  -6 -14   2 18798.6 872.149   5
   6 -14  -2 16968.1 851.865  15
   6 -14  -2 18730.8 903.040   4
   6 -14  -1 251.406 130.336   4
   6  14  -1 118.370 100.244   9
   6 -14  -1 283.339 153.427  15
  -6 -14   1 276.922 142.811   5
   6  14   0 16595.0 795.562   9
   6 -14   0 17367.8 879.916  15
   6 -14   0 16689.2 802.003   4
  -6 -14   0 17217.3 819.398   5
   6 -14   1 1949.31 285.172  15
   6  14   1 1734.55 234.251   9
  -6 -14  -1 2118.62 261.247   5
  -6 -14  -2 15833.7 735.945   5
   6  14   2 15628.6 740.611   9
   6 -14   2 15260.7 811.687  15
   6 -14   3 169.844 143.314  15
   6  14   3 147.459 87.0106   9
  -6 -14  -3 214.837 100.569   5
   6  14   4 4348.93 308.733   9
   6 -14   4 4574.51 361.402  15
   6  14   5 18127.7 670.153   9
   6 -14   5 18564.3 742.633  15
   6 -15  -8 5063.06 306.877   3
  -6 -15   8 4728.24 271.689   5
  -6 -15   8 5300.86 288.221   6
  -6 -15   7 78.3847 81.6799   6
   6 -15  -7-50.6712 95.6290   3
  -6 -15   7 32.6315 83.9328   5
   6 -15  -6 16635.8 767.133   3
  -6 -15   6 17849.0 749.729   5
  -6 -15   6 17168.0 705.739   6
   6 -15  -6 16104.7 730.275  11
  -6 -15   5 54.1405 76.7436   6
   6 -15  -5-158.719 128.505  11
   6 -15  -5-99.5160 120.829   3
  -6 -15   5-6.74114 107.074   5
   6 -15  -5-37.7185 116.583   4
   6 -15  -4 13678.0 733.306  11
  -6 -15   4 13984.8 679.351   5
   6 -15  -4 13605.1 702.094   4
  -6 -15   3 2113.97 251.192   5
   6 -15  -3 2100.61 261.052   4
  -6 -15   2 4524.54 367.057   5
   6 -15  -2 4223.61 369.331   4
   6 -15  -1 892.932 172.599   4
   6 -15  -1 540.151 150.483  15
  -6 -15   1 690.939 161.598   5
   6 -15   0-44.5992 102.224   4
   6 -15   0-122.808 142.432  15
  -6 -15   0 59.4655 107.461   5
   6 -15   1 1751.73 249.609  15
  -6 -15  -1 1821.76 219.595   5
   6 -15   2 11298.6 571.722  11
   6 -15   2 12693.6 655.242  15
  -6 -15  -2 12542.8 584.363   5
  -6 -15  -3 6363.29 348.549   5
   6 -15   3 6363.72 413.453  15
   6 -15   4 8589.85 448.844  15
   6 -15   5 1122.63 124.367  15
   6 -16  -7 5602.35 297.626   3
  -6 -16   7 4465.24 256.396   5
   6 -16  -6 2654.34 226.527   3
  -6 -16   6 2104.22 163.457   6
  -6 -16   6 2522.36 213.375   5
   6 -16  -6 1855.76 172.722  11
   6 -16  -5 6946.02 417.645  11
   6 -16  -5 7868.13 437.685   3
  -6 -16   5 7510.39 417.384   5
   6 -16  -4 4739.15 362.622  11
  -6 -16   4 4956.78 339.878   5
   6 -16  -4 5002.68 345.542   3
   6 -16  -4 4811.00 347.941   4
   6 -16  -3 1500.32 224.178  11
  -6 -16   3 1552.21 200.331   5
   6 -16  -3 1392.99 195.607   4
   6 -16  -2 2104.23 270.460  11
  -6 -16   2 1873.25 213.157   5
   6 -16  -2 2084.23 228.570   4
  -6 -16   1 258.740 107.474   5
   6 -16  -1 390.378 115.598   4
  -6 -16   0 16161.2 684.065   5
   6 -16   0 15516.6 702.157  15
   6 -16   1 1372.00 181.084  11
   6 -16   1 1117.01 175.126  15
  -6 -16  -1 1188.62 157.239   5
   6 -16   2 7652.18 427.804  15
  -6 -16  -2 7358.93 369.597   5
   6 -16   3 3178.67 244.524  15
  -6 -17   5 3954.60 242.529   5
   6 -17  -4 1433.92 166.138  11
  -6 -17   4 1606.44 164.525   5
   6 -17  -3 10854.7 534.368  11
  -6 -17   3 10854.5 488.175   5
   6 -17  -3 11200.5 500.455   4
   6 -17  -2 1942.47 217.448  11
  -6 -17   2 2048.07 189.785   5
   6 -17  -2 2150.64 191.103   4
   6 -17  -1 12531.2 580.797  11
  -6 -17   1 11927.0 516.503   5
   6 -17   0-9.82019 78.1992  11
  -6 -17   0-93.3895 72.8088   5
   6 -17   1 10514.7 445.374  11
  -6 -17  -1 11159.6 440.576   5
  -7   0  13 166.556 101.507  13
  -7   0  13 43.6635 56.6849  12
  -7   0  12 23717.6 952.138  12
   7   0 -11-218.006 195.950   3
   7   0 -10 25224.7 1228.49   3
   7   0 -10 23700.0 1160.80  11
   7   0  -9 25.3729 165.268  11
   7   0  -9-220.736 220.489   3
   7   0  -8 3718.54 463.172  11
   7   0  -8 4164.01 456.383   3
   7   0  -7-141.627 171.276  11
   7   0  -7-134.540 156.204   3
   7   0  -7-611.624 332.563  14
   7   0  -6 1705.16 297.697  11
   7   0  -6 1399.21 252.889   3
   7   0  -6 1526.78 486.688  14
   7   0  -5-49.2899 200.820  14
   7   0  -4 1233.46 440.218   2
   7   0  -4 1398.65 476.677  14
   7   0  -3 28.5008 229.409   2
   7   0  -3 54.9171 193.626  14
   7   0  -2 20387.7 1656.70  14
   7   0  -2 22542.7 1866.62   2
   7   0  -1-141.606 278.419   2
   7   0  -1 159.933 218.856  14
   7   0   0 91790.7 4076.86  14
   7   0   0 86815.3 4453.33   2
   7   0   1 35.5056 166.771  14
   7   0   2 33973.0 2336.55  14
   7   0   2 35857.6 1578.86  13
   7   0   2 35773.5 1501.64   8
   7   0   2 35593.9 1529.24   7
   7   0   3-29.7661 123.929  10
   7   0   3 28.7037 159.895  13
   7   0   3 55.5086 137.729   7
   7   0   4 73329.4 2672.12  10
   7   0   4 73423.2 2612.71   8
   7   0   4 76570.3 2768.53  13
   7   0   4 83121.6 2805.86   7
   7   0   5-33.1432 150.384  10
   7   0   5 68.9998 175.212  13
   7   0   5 358.354 205.233   7
   7   0   6 4621.15 444.718  10
   7   0   6 4497.14 498.072  13
   7   0   6 5343.84 534.068   7
   7   0   7-22.5475 216.242  13
   7   0   7-64.3046 176.558   7
   7   0   8 1402.88 268.059  13
   7   0   9-55.6667 118.471  13
  -7  -1  13 4633.88 304.547  13
  -7   1  13 4528.79 313.865  13
  -7  -1  13 3905.06 253.343  12
  -7   1  13 3955.46 236.395  12
   7  -1 -12 294.754 155.065   3
  -7  -1  12 108.241 108.777  12
  -7   1  12 187.376 97.5438  12
   7   1 -11 18542.7 985.004   3
   7  -1 -11 19011.6 995.783   3
   7   1 -10 11045.7 760.598   3
   7  -1 -10 11596.4 783.382   3
   7   1 -10 11125.5 732.516  11
   7  -1 -10 10339.7 700.577  11
   7  -1  -9 7384.18 606.625   5
   7   1  -9 7496.12 627.569   3
   7  -1  -9 7523.26 627.156   3
   7   1  -9 7327.35 625.909  11
   7  -1  -9 7186.48 642.826  11
   7  -1  -8 30759.4 1438.64   5
   7   1  -8 33759.8 1472.82   3
   7  -1  -8 32684.0 1453.13   3
   7   1  -8 31617.5 1483.05  11
   7  -1  -8 29779.8 1478.44  11
   7   1  -7 19.5848 172.035  11
   7  -1  -7 452.620 187.555  11
   7  -1  -7 262.197 145.367   5
   7   1  -7 252.662 170.034   3
   7  -1  -7 135.185 131.926   3
   7   1  -7 341.619 261.655  14
   7   1  -6 41937.6 1662.22   3
   7  -1  -6 43349.5 1680.90   3
   7   1  -6 40698.6 2781.29  14
   7  -1  -6 39039.4 2687.93  14
   7   1  -6 40200.2 1713.34  11
   7  -1  -6 43169.7 1771.95  11
   7   1  -5-228.259 237.664  14
   7  -1  -5 295.161 349.806  14
   7   1  -4 51028.4 2959.39  14
   7  -1  -4 52081.9 2936.28  14
   7  -1  -4 52427.1 2977.71   2
   7   1  -3 8065.83 1040.88   2
   7  -1  -3 7794.19 1107.74   2
   7   1  -3 7566.00 1004.47  14
   7  -1  -3 7650.27 993.838  14
   7   1  -2 400.149 365.169  14
   7   1  -2 21.0817 342.599   2
   7  -1  -2 814.741 384.684   2
   7  -1  -2 1027.78 369.721  14
   7   1  -1 556.122 342.424   2
   7  -1  -1 704.308 349.542   2
   7  -1  -1 1449.92 438.212  14
   7   1  -1 1289.53 450.339  14
   7  -1   0 15058.4 1372.26  14
   7   1   0 13389.6 1357.32  14
   7  -1   0 14373.3 1585.71   2
   7  -1   1 32145.3 2129.52  14
   7   1   1 27803.1 2073.12  14
   7  -1   1 28881.3 2396.64   2
   7  -1   2 17314.3 979.233  10
   7  -1   2 20181.8 1686.25  14
   7   1   2 16692.6 1600.71  14
   7  -1   2 17292.8 1008.02  13
   7   1   2 19423.8 1056.82  13
   7   1   2 16807.6 948.917   8
   7  -1   2 17881.6 954.577   8
   7  -1   2 18226.6 979.878   7
   7   1   2 18527.9 1000.53   7
   7  -1   3 17497.7 1010.57  10
   7  -1   3 18468.3 1061.54  13
   7   1   3 17637.6 975.356   8
   7  -1   3 18109.6 982.562   8
   7  -1   3 19174.2 1040.10   7
   7   1   3 19856.3 1066.49   7
   7   1   3 19063.9 1072.14  13
   7  -1   4 21767.5 1161.00  10
   7   1   4 21351.2 1096.22   8
   7  -1   4 22200.0 1111.40   8
   7  -1   4 22297.3 1199.41  13
   7   1   4 23491.7 1221.82  13
   7  -1   4 23553.9 1204.03   7
   7   1   4 24042.8 1235.67   7
   7  -1   5 22872.6 1201.79  10
   7   1   5 29818.1 1230.85   8
   7  -1   5 27843.4 1199.63   8
   7  -1   5 22164.0 1234.09  13
   7   1   5 22885.1 1242.24  13
   7  -1   5 25016.1 1270.21   7
   7   1   5 24674.4 1282.53   7
   7  -1   6 10421.3 715.408  10
   7  -1   6 11488.4 793.622  13
   7   1   6 11142.8 786.016  13
   7  -1   6 11972.7 806.453   7
   7   1   6 12176.9 820.076   7
   7  -1   7 129.274 114.526  10
   7  -1   7 215.774 178.456  13
   7   1   7 249.441 218.449  13
   7   1   7 152.786 169.971   7
   7  -1   8 17929.5 919.818  13
   7   1   8 18801.0 947.347  13
   7  -1   9 320.324 120.700  13
   7   1   9 95.7698 111.823  13
  -7  -2  13 527.251 112.860  13
  -7   2  13 662.237 131.075  13
  -7  -2  13 615.256 107.399  12
   7  -2 -12 6219.73 465.296   3
  -7  -2  12 5822.07 405.079  12
  -7   2  12 5480.47 367.501  12
   7  -2 -11 25710.5 1191.74   3
  -7  -2  11 24768.7 1112.15  12
   7   2 -10 2934.98 371.348  11
   7  -2 -10 3173.91 370.307  11
   7  -2 -10 3144.94 394.520   5
   7   2 -10 3427.49 427.879   3
   7  -2 -10 3718.84 435.518   3
   7  -2  -9 8581.27 640.676   5
   7   2  -9 8026.33 649.547   3
   7  -2  -9 8468.15 667.590   3
   7   2  -9 7890.63 644.912  11
   7  -2  -9 7825.36 658.885  11
   7   2  -8-210.741 190.411  11
   7  -2  -8 214.509 214.944  11
   7  -2  -8 242.769 146.406   5
   7   2  -8-182.314 186.901   3
   7  -2  -8-97.9188 173.425   3
   7  -2  -7 46098.8 1869.76   5
   7   2  -7 56401.5 1996.20   3
   7  -2  -7 51338.3 1952.02   3
   7   2  -7 49090.5 3246.89  14
   7  -2  -7 46542.9 3022.60  14
   7   2  -7 48132.8 1965.34  11
   7  -2  -7 52194.9 2063.16  11
   7   2  -6 1840.31 309.815  11
   7  -2  -6 2017.37 327.602  11
   7   2  -6 1987.54 297.097   3
   7  -2  -6 1856.60 287.579   3
   7   2  -6 2026.72 572.790  14
   7  -2  -6 2770.23 657.575  14
   7   2  -5 64406.1 3575.61  14
   7  -2  -5 66343.3 3534.76  14
   7  -2  -4 191.291 268.137   2
   7   2  -4-395.573 284.950  14
   7  -2  -4 330.286 260.933  14
   7   2  -3 24888.2 1918.09  14
   7  -2  -3 25164.3 1853.60  14
   7   2  -3 26094.7 1903.45   2
   7  -2  -3 25754.4 2070.10   2
   7  -2  -2 3865.90 797.711   2
   7  -2  -2 3858.59 699.840  14
   7   2  -2 4412.83 753.382  14
   7  -2  -1 19302.1 1553.14  14
   7   2  -1 18983.5 1627.32  14
   7  -2  -1 17801.8 1775.60   2
   7  -2   0 457.174 342.592   2
   7  -2   0 790.078 314.328  14
   7   2   0 767.486 348.861  14
   7  -2   1 12534.4 1256.51  14
   7   2   1 12786.6 1353.89  14
   7  -2   1 11685.7 1529.58   2
   7  -2   2 4815.04 1010.37   2
   7   2   2 4122.43 392.013   9
   7  -2   2 3815.11 439.039  10
   7  -2   2 3027.62 368.030  15
   7   2   2 4389.25 812.606  14
   7  -2   2 4385.41 480.562  13
   7   2   2 4281.67 470.012  13
   7   2   2 3912.85 421.545   8
   7  -2   2 3817.58 398.925   8
   7  -2   2 3793.68 409.817   7
   7   2   2 4445.22 462.146   7
   7  -2   3 565.458 223.050  10
   7  -2   3 529.077 218.018  13
   7   2   3 962.261 204.236   9
   7   2   3 929.420 226.968   8
   7  -2   3 856.400 197.973   8
   7   2   3 1181.43 283.738  13
   7  -2   3 945.695 239.091   7
   7   2   3 1048.52 267.601   7
   7  -2   4 11274.2 795.632  10
   7   2   4 11587.0 706.362   9
   7   2   4 12464.0 788.614   8
   7  -2   4 11829.4 755.462   8
   7  -2   4 11842.2 832.853  13
   7   2   4 11155.9 817.936  13
   7  -2   4 12024.5 809.146   7
   7   2   4 11028.3 799.840   7
   7  -2   5 23614.8 1229.03  10
   7   2   5 24141.2 1122.78   9
   7  -2   5 26048.9 1171.60   8
   7  -2   5 23683.9 1258.55  13
   7   2   5 24458.5 1287.06  13
   7  -2   5 24419.5 1253.56   7
   7   2   5 25637.4 1295.30   7
   7  -2   6-120.216 187.195  10
   7   2   6 103.001 104.479   9
   7  -2   6 35.1406 174.501  13
   7   2   6-63.8962 166.709  13
   7  -2   6-171.707 173.376   7
   7   2   6-71.6122 191.358   7
   7  -2   7 17379.0 910.683  10
   7   2   7 18044.8 835.104   9
   7  -2   7 18467.0 998.125  13
   7   2   7 19964.4 1030.01  13
   7   2   7 19816.3 1004.19   7
   7  -2   8 2376.25 256.503  10
   7  -2   8 2696.58 326.645  13
   7   2   8 2665.06 328.251  13
   7  -2   9 30735.0 1143.21  13
   7   2   9 32958.9 1175.95  13
  -7   3  13 18478.1 709.399  13
  -7  -3  13 16373.6 638.152  12
   7  -3 -12 4825.07 395.300   3
  -7  -3  12 4784.69 351.455  12
  -7   3  12 4286.28 305.246  12
   7  -3 -11 14798.7 813.392   5
   7  -3 -11 15312.7 857.095   3
  -7  -3  11 14207.8 769.886  12
   7   3 -10 490.810 188.740  11
   7  -3 -10 42.4476 133.268   5
   7  -3 -10 111.232 200.739   3
   7   3  -9 30593.4 1352.39   3
   7  -3  -9 26612.0 1289.09   5
   7  -3  -9 28125.3 1343.79   3
   7   3  -9 29732.6 1374.45  11
   7  -3  -9 28403.5 1374.65  11
   7   3  -8 302.815 186.960  11
   7  -3  -8 783.246 269.088  11
   7   3  -8 376.456 182.390   3
   7  -3  -8 436.109 179.957   5
   7  -3  -8 439.239 200.728   3
   7  -3  -7 7706.49 590.351   5
   7   3  -7 9527.64 672.906   3
   7  -3  -7 8275.31 639.599   3
   7   3  -7 8481.10 1250.84  14
   7  -3  -7 8430.27 1159.37  14
   7   3  -7 8660.97 680.396  11
   7  -3  -7 9240.52 717.518  11
   7   3  -6 22665.7 1092.04   3
   7  -3  -6 22985.3 1088.78   3
   7   3  -6 26304.6 2178.28  14
   7  -3  -6 20397.6 1842.41  14
   7   3  -6 23029.0 1134.57  11
   7  -3  -6 24377.4 1177.33  11
   7  -3  -5 9552.22 1303.41   2
   7   3  -5 9445.17 1272.28  14
   7  -3  -5 9851.60 1234.86  14
   7   3  -5 10237.1 693.274  11
   7  -3  -5 9374.44 670.989  11
   7  -3  -4 3886.18 805.025   2
   7   3  -4 2847.96 709.893  14
   7  -3  -4 3249.26 658.494  14
   7   3  -3 22990.3 1890.89  14
   7  -3  -3 23677.8 1767.34  14
   7  -3  -3 25522.6 2132.34   2
   7  -3  -2 5737.99 1015.49   2
   7  -3  -2 5894.47 829.689  14
   7   3  -2 4805.07 850.759  14
   7  -3  -1 22236.6 1649.45  14
   7   3  -1 21738.3 1795.19  14
   7  -3  -1 21698.3 2015.12   2
   7  -3   0 6710.92 1107.16   2
   7   3   0 7317.68 1015.11  14
   7  -3   1 26138.6 1278.44  10
   7   3   1 25687.6 2014.39  14
   7  -3   1 27881.3 2373.08   2
   7   3   2 5901.09 483.597   9
   7  -3   2 6600.87 588.592  10
   7  -3   2 4794.96 1014.72   2
   7  -3   2 5497.15 507.524  15
   7   3   2 7055.51 1038.19  14
   7  -3   2 6357.34 569.334  13
   7   3   2 5984.81 522.144   8
   7  -3   2 6523.10 538.027   8
   7   3   2 6869.32 594.844  13
   7  -3   2 6481.76 530.600   7
   7   3   2 6298.28 545.456   7
   7  -3   3 44750.4 1883.99  10
   7  -3   3 42995.9 1764.09  15
   7   3   3 46994.7 1750.43   9
   7   3   3 44677.8 1792.03   8
   7  -3   3 46750.6 1911.14  13
   7   3   3 49582.7 1943.82  13
   7  -3   3 44064.1 1789.10   8
   7  -3   3 46475.9 1839.86   7
   7   3   3 46016.1 1865.24   7
   7  -3   4 469.144 226.187  10
   7   3   4 625.212 188.019   9
   7  -3   4 814.423 228.664   8
   7  -3   4 440.556 216.437  13
   7   3   4 559.702 227.666  13
   7  -3   4 444.873 202.571   7
   7   3   4 347.826 179.404   7
   7  -3   5 50100.8 2075.26  10
   7   3   5 55042.6 1992.35   9
   7   3   5 58187.8 1990.05   8
   7  -3   5 52615.8 1946.30   8
   7  -3   5 52374.8 2114.03  13
   7   3   5 55888.1 2178.95  13
   7  -3   5 55817.3 2109.64   7
   7   3   5 55644.3 2145.05   7
   7  -3   6 969.605 244.541  10
   7   3   6 1353.04 230.131   9
   7  -3   6 1180.65 269.490  13
   7   3   6 1277.35 294.771  13
   7  -3   6 1256.12 264.365   7
   7   3   6 1423.24 295.910   7
   7  -3   7 8149.16 590.447  10
   7   3   7 8932.22 540.072   9
   7  -3   7 8102.00 602.938  13
   7   3   7 8726.24 644.659  13
   7   3   7 8215.64 601.764   7
   7  -3   8 293.705 110.330  10
   7   3   8 312.355 110.118   9
   7  -3   8 343.020 165.625  13
   7   3   8 133.700 137.637  13
   7  -3   9 90.1072 80.8172  13
   7   3   9 2.93834 82.0881  13
  -7   4  13-115.677 82.5611  13
  -7  -4  13 11.2534 58.7178  12
   7  -4 -12 6533.08 452.492   3
  -7  -4  12 6449.42 411.247  12
   7  -4 -11 3152.87 354.843   5
   7  -4 -11 3502.16 390.791   3
  -7  -4  11 3565.77 354.914  12
   7  -4 -10 26015.4 1218.65   5
   7  -4 -10 29239.5 1319.97   3
  -7  -4  10 28084.2 1229.47  12
   7   4 -10 28256.4 1273.99  11
   7  -4  -9 7096.55 570.613   5
   7  -4  -9 7069.32 604.790   3
   7   4  -9 7493.65 613.515  11
   7  -4  -9 6780.54 599.640  11
   7   4  -8 20478.3 1048.35   3
   7  -4  -8 17618.7 974.686   5
   7  -4  -8 19012.1 1041.31   3
   7   4  -8 18602.8 1042.08  11
   7  -4  -8 19329.1 1114.35  11
   7   4  -7 21958.5 1092.25   3
   7  -4  -7 19376.4 1043.45   3
   7   4  -7 20200.2 1081.45  11
   7  -4  -7 18897.3 1098.21  11
   7   4  -6 2161.03 334.251  11
   7   4  -6 1863.36 314.669   3
   7  -4  -6 2292.46 363.653  11
   7   4  -6 2473.78 642.546  14
   7  -4  -6 2445.58 603.606  14
   7  -4  -6 2090.26 311.885   3
   7   4  -5 365.237 168.641  11
   7  -4  -5 326.136 193.205  11
   7   4  -5 466.570 170.744   3
   7  -4  -5 825.854 405.979   2
   7  -4  -5 1503.50 304.053  15
   7   4  -5-482.340 310.007  14
   7  -4  -5 547.899 312.068  14
   7  -4  -5 400.869 165.276   3
   7  -4  -4 1266.29 525.720   2
   7   4  -4 1089.37 416.050  14
   7  -4  -4 519.061 273.216  14
   7   4  -3 31885.2 2319.41  14
   7  -4  -3 35362.8 2644.80   2
   7   4  -2 30141.8 2224.08  14
   7  -4  -2 31318.8 2490.15   2
   7   4  -1 15373.6 1535.49  14
   7  -4  -1 16079.9 1739.04   2
   7   4   0 35444.9 2424.91  14
   7  -4   0 40243.3 2848.35   2
   7  -4   1-232.460 283.701   2
   7  -4   1 113.042 142.582  10
   7  -4   1-69.9952 145.525  15
   7   4   1-68.6721 113.274   9
   7   4   1 279.840 168.953  14
   7   4   1 78.5433 130.484   8
   7  -4   1-149.250 165.883  13
   7   4   1 252.722 178.510  13
   7  -4   2 13102.0 868.088  10
   7   4   2 12228.4 740.257   9
   7  -4   2 12766.6 812.953  15
   7   4   2 10990.6 1342.88  14
   7  -4   2 13424.3 857.635  13
   7   4   2 12492.0 820.730  13
   7   4   2 12963.4 789.087   8
   7  -4   2 12424.2 780.389   8
   7  -4   2 12682.7 1573.60   2
   7   4   2 12439.1 801.118   7
   7  -4   3 2236.41 355.716  10
   7  -4   3 1800.66 305.127  15
   7   4   3 1906.16 289.967   9
   7   4   3 2576.03 366.997   8
   7  -4   3 1406.56 250.503   8
   7  -4   3 2049.67 336.222  13
   7   4   3 2204.49 367.554  13
   7  -4   3 2076.79 312.814   7
   7   4   3 2294.56 356.500   7
   7  -4   4 54233.7 2163.52  10
   7   4   4 58971.2 2073.70   9
   7  -4   4 52799.2 2040.36  15
   7   4   4 53497.9 2020.97   8
   7  -4   4 52681.4 2013.26   8
   7  -4   4 58735.3 2221.97  13
   7   4   4 58514.9 2224.68  13
   7  -4   4 59468.2 2154.74   7
   7   4   4 57977.1 2189.71   7
   7  -4   5-186.443 177.747  10
   7   4   5 50.8416 141.914   9
   7   4   5 13753.7 734.565   8
   7  -4   5 10289.5 610.356   8
   7  -4   5 163.291 184.953  13
   7   4   5-135.318 192.099  13
   7  -4   5 54.3910 149.032   7
   7   4   5 123.907 183.654   7
   7  -4   6 5050.81 488.318  10
   7   4   6 5569.10 456.568   9
   7  -4   6 5276.56 506.366  13
   7   4   6 4638.20 492.531  13
   7   4   6 5522.83 518.929   7
   7  -4   7 9037.52 627.880  10
   7   4   7 9343.79 561.326   9
   7  -4   7 8897.23 609.428  13
   7   4   7 9994.48 666.599  13
   7   4   7 9795.56 634.991   7
   7  -4   8 1539.31 230.176  10
   7   4   8 1647.16 197.436   9
   7  -4   8 1676.02 229.543  13
   7   4   8 1613.13 238.043  13
   7   4   9 8868.46 440.904  13
  -7   5  13 886.250 124.470  13
  -7  -5  13 1078.51 117.434  12
   7  -5 -12 323.565 135.564   3
  -7  -5  12 151.338 101.074  12
   7  -5 -11 9462.92 594.278   5
   7  -5 -11 10162.7 646.951   3
  -7  -5  11 9823.13 577.791  12
   7  -5 -10 18240.2 958.384   5
   7  -5 -10 20828.9 1048.86   3
  -7  -5  10 19921.8 956.503  12
   7   5 -10 19633.9 1002.80  11
   7  -5  -9 12301.2 765.194   5
   7  -5  -9 13280.8 834.101   3
   7   5  -9 12927.2 817.637  11
   7  -5  -9 11169.3 776.096  11
   7  -5  -8 26094.4 1240.77   5
   7  -5  -8 28157.9 1316.50   3
   7   5  -8 27960.2 1324.73  11
   7  -5  -8 28085.5 1369.48  11
   7   5  -7 36.8109 148.731  11
   7  -5  -7-12.3864 190.732  11
   7  -5  -7 91.0700 148.888   3
   7  -5  -6 88285.1 2965.53   3
   7   5  -6 87389.7 4536.97  14
   7   5  -6 90111.5 2999.44  11
   7  -5  -6 93054.8 4784.34   2
   7  -5  -6 85187.3 3005.96  11
   7   5  -5 2424.88 345.160  11
   7  -5  -5 2870.41 371.441  11
   7  -5  -5 1976.96 613.013   2
   7   5  -5 2724.79 659.634  14
   7  -5  -5 2828.17 349.999   3
   7  -5  -5 1830.48 304.585  15
   7  -5  -4 22557.1 1088.58  11
   7   5  -4 22704.5 1976.35  14
   7  -5  -4 18094.8 1021.82  15
   7  -5  -4 20030.4 2004.40   2
   7   5  -4 23773.1 1112.29  11
   7  -5  -3 5948.86 1103.05   2
   7   5  -3 5541.26 926.911  14
   7   5  -2 25271.1 2055.32  14
   7  -5  -2 27552.7 2364.09   2
   7  -5  -1 12030.3 756.850  15
   7   5  -1 10528.2 1291.09  14
   7  -5  -1 11969.2 1545.32   2
   7  -5   0 18343.0 1050.32  10
   7  -5   0 18777.4 1008.85  15
   7   5   0 18889.8 954.307   9
   7   5   0 19657.5 1777.80  14
   7  -5   0 20781.1 2018.61   2
   7  -5   1 90.7919 186.387  10
   7  -5   1 74.1263 144.054  15
   7   5   1 130.054 111.305   9
   7   5   1-69.9976 175.610  14
   7   5   1-146.495 162.331   8
   7  -5   1 129.379 138.965  13
   7   5   1-105.932 161.375  13
   7  -5   2-91.5591 249.926   2
   7  -5   2 56.7827 164.529  10
   7  -5   2-63.6255 183.335  15
   7   5   2-66.6071 119.961   9
   7   5   2-822.212 398.904  14
   7   5   2 289.230 179.541   8
   7  -5   2-838.566 226.277   8
   7  -5   2 99.5279 143.518  13
   7   5   2 292.578 158.154  13
   7   5   2 26.7679 138.259   7
   7  -5   3 3130.97 430.525  10
   7  -5   3 3146.20 396.706  15
   7   5   3 3842.39 422.788   8
   7  -5   3 2220.27 313.101   8
   7  -5   3 3174.78 417.772  13
   7   5   3 3130.27 387.171  13
   7   5   3 3135.78 398.883   7
   7   5   3 3149.73 368.210   9
   7  -5   4 1930.53 344.145  10
   7  -5   4 1866.12 301.114  15
   7   5   4 1802.61 287.929   9
   7  -5   4 2108.30 343.458  13
   7   5   4 1835.73 334.835  13
   7  -5   4 2325.50 333.923   7
   7   5   4 2021.83 340.068   7
   7  -5   5 2446.16 379.720  10
   7   5   5 2412.38 329.539   9
   7  -5   5 2306.05 345.008  13
   7   5   5 2227.85 356.399  13
   7  -5   5 2240.10 324.509   7
   7   5   5 2766.22 388.325   7
   7  -5   6 26696.5 1247.59  10
   7   5   6 27013.8 1157.41   9
   7  -5   6 24080.2 1171.04  13
   7   5   6 26813.0 1258.95  13
   7   5   6 26420.0 1218.84   7
   7  -5   7 1079.37 241.129  10
   7   5   7 1220.45 206.158   9
   7  -5   7 946.438 202.465  13
   7   5   7 1183.33 230.908  13
   7   5   7 1189.19 222.933   7
   7  -5   8 35439.0 1274.27  10
   7   5   8 33411.4 1143.65   9
   7   5   8 33787.4 1224.49  13
   7  -6 -12 16913.1 716.755   3
  -7  -6  12 17150.0 675.377  12
   7  -6 -11 637.799 173.284   5
   7  -6 -11 765.078 198.216   3
  -7  -6  11 535.028 164.005  12
   7  -6 -10 8280.78 581.021   5
   7  -6 -10 9427.22 666.605   3
  -7  -6  10 8939.30 576.331  12
   7   6 -10 9480.25 635.292  11
   7  -6  -9 7544.26 570.466   5
   7  -6  -9 7773.86 623.209   3
  -7  -6   9 8389.23 594.370  12
   7   6  -9 7861.89 626.448  11
   7  -6  -9 7443.02 593.454  11
   7  -6  -8 9675.48 653.039   5
   7  -6  -8 9821.10 711.596   3
   7   6  -8 10455.5 739.657  11
   7  -6  -8 10852.8 765.417  11
   7  -6  -7 19462.0 1048.39   3
   7   6  -7 19913.2 1066.21  11
   7  -6  -7 20037.9 1101.94  11
   7   6  -6 2822.52 382.582  11
   7  -6  -6 2637.97 381.919  11
   7  -6  -6 2995.18 371.307   3
   7  -6  -5 36318.0 1509.99  11
   7  -6  -5 35368.1 1465.00   3
   7   6  -5 36203.1 2602.04  14
   7   6  -5 35100.9 1491.37  11
   7  -6  -5 41733.9 2993.21   2
   7  -6  -4 7744.43 607.707  11
   7  -6  -4 8035.96 588.133   3
   7  -6  -4 7128.56 585.418  15
   7   6  -4 8086.53 1139.87  14
   7  -6  -4 8013.21 1285.68   2
   7   6  -4 9144.56 655.135  11
   7  -6  -3 12525.1 779.004  11
   7  -6  -3 13389.0 847.392  10
   7  -6  -3 11130.0 751.105  15
   7   6  -3 12274.3 1395.72  14
   7  -6  -3 13547.2 1715.42   2
   7   6  -3 11889.5 755.922  11
   7   6  -2 2925.16 357.138  11
   7  -6  -2 3282.13 382.125  11
   7  -6  -2 2976.59 386.105  10
   7  -6  -2 3060.87 806.238   2
   7  -6  -2 2915.05 373.880  15
   7   6  -2 3788.08 778.200  14
   7  -6  -1 5684.51 506.338  11
   7  -6  -1 5157.77 530.820  10
   7  -6  -1 6576.09 1156.22   2
   7  -6  -1 5831.26 518.834  15
   7   6  -1 5580.03 957.799  14
   7  -6   0 37429.4 1550.35  11
   7  -6   0 39056.3 1694.72  10
   7  -6   0 39790.9 1649.52  15
   7   6   0 39798.2 1580.94   9
   7   6   0 39802.6 2660.40  14
   7  -6   0 37721.1 1625.15  13
   7  -6   0 39053.2 2921.78   2
   7  -6   1 918.082 266.000  10
   7  -6   1 1464.77 578.107   2
   7  -6   1 984.134 234.447  15
   7   6   1 1043.19 235.765   9
   7   6   1 1655.64 519.797  14
   7   6   1 1096.54 233.896   8
   7  -6   1 1330.98 251.214  13
   7  -6   2 78657.3 2787.29  10
   7   6   2 78737.3 2609.15   9
   7  -6   2 78951.1 2701.73  15
   7  -6   2 77587.5 2703.52  13
   7   6   2 71703.4 2547.52   8
   7   6   2 70498.7 2596.32  13
   7  -6   2 77327.9 2603.50   8
   7   6   2 75424.8 2646.52   7
   7  -6   3 2642.22 389.901  10
   7  -6   3 2622.61 361.766  15
   7   6   3 2789.40 386.849   8
   7  -6   3 2295.55 313.609   8
   7  -6   3 2583.97 367.720  13
   7   6   3 2791.94 362.994  13
   7   6   3 2353.61 352.639   7
   7   6   3 3027.29 361.917   9
   7  -6   4 1933.90 345.917  10
   7  -6   4 1839.78 300.434  15
   7   6   4 2020.86 297.867   9
   7  -6   4 2091.25 329.589  13
   7   6   4 1778.38 294.921  13
   7   6   4 2155.98 335.999   7
   7  -6   5 882.508 198.364  15
   7  -6   5 1232.89 295.702  10
   7   6   5 1324.13 248.501   9
   7  -6   5 1235.07 255.523  13
   7   6   5 1237.45 252.208  13
   7   6   5 1308.94 278.624   7
   7  -6   6 14836.5 859.837  10
   7   6   6 15158.9 779.892   9
   7  -6   6 12128.7 725.730  13
   7   6   6 13664.9 796.919  13
   7   6   6 14189.9 798.045   7
   7  -6   7 7993.98 564.922  10
   7   6   7 7161.64 464.779   9
   7   6   7 6703.67 476.594  13
   7  -6   8 2386.01 264.714  10
   7   6   8 2273.25 215.367   9
  -7  -7  12 24.9457 62.7581   6
   7  -7 -12 191.497 96.9294   3
  -7   7  12 7.72082 57.5220  13
  -7  -7  12 189.555 86.9022  12
   7  -7 -11 32037.1 1237.30   5
   7  -7 -11 35082.6 1316.98   3
  -7  -7  11 34860.3 1227.84  12
   7   7 -10-63.8909 151.039  11
   7  -7 -10 18.2943 115.658   5
   7  -7 -10-238.074 189.555   3
  -7  -7  10-2.45474 137.552  12
   7   7  -9 1081.09 257.835  11
   7  -7  -9 1065.67 239.819  11
   7  -7  -9 1373.66 236.033   5
   7  -7  -9 1419.09 291.638   3
  -7  -7   9 1170.84 237.217  12
   7  -7  -8 4353.07 409.112   5
   7  -7  -8 4854.49 486.523   3
  -7  -7   8 4939.83 453.406  12
   7   7  -8 5111.13 503.930  11
   7  -7  -8 4914.65 507.933  11
   7  -7  -7 9726.86 700.857   3
  -7  -7   7 10564.1 677.706  12
   7   7  -7 8883.79 690.925  11
   7  -7  -7 10060.5 730.638  11
   7  -7  -6 18169.2 991.241   3
   7   7  -6 16533.8 962.617  11
   7  -7  -6 17574.1 1001.23  11
   7   7  -5 1401.89 281.431  11
   7  -7  -5 1768.31 303.228  11
   7  -7  -5 586.703 185.406  15
   7   7  -5 682.160 385.500  14
   7  -7  -5 1369.78 271.379   3
   7  -7  -5 1247.34 222.797   4
   7  -7  -4 13852.1 849.573  11
   7  -7  -4 14483.9 827.671   3
   7  -7  -4 11585.9 775.867  15
   7   7  -4 13660.9 1515.41  14
   7   7  -4 12791.9 837.181  11
   7  -7  -4 15853.1 1861.93   2
   7  -7  -3 9107.79 676.622  11
   7  -7  -3 11314.6 776.619  10
   7  -7  -3 8138.02 1347.20   2
   7  -7  -3 8338.05 639.395  15
   7   7  -3 10393.8 1299.52  14
   7   7  -3 7921.58 620.658  11
   7  -7  -2 10763.6 734.000  11
   7  -7  -2 9539.17 723.101  10
   7  -7  -2 11828.3 1592.22   2
   7  -7  -2 9846.97 701.953  15
   7   7  -2 10325.2 1303.53  14
   7   7  -2 10338.7 706.747  11
   7  -7  -1 72842.4 2500.64  11
   7  -7  -1 66326.9 2541.57  10
   7   7  -1 70342.1 2469.35   9
   7   7  -1 69652.7 3759.49  14
   7  -7  -1 67048.5 2485.36  15
   7  -7  -1 77695.2 4358.58   2
   7  -7   0 874.909 213.599  11
   7  -7   0 426.402 181.234  10
   7  -7   0 1603.96 587.340   2
   7  -7   0 931.760 248.092  15
   7   7   0 671.986 369.118  14
   7   7   0 1227.77 245.561   9
   7  -7   1 45616.4 1925.05  10
   7   7   1 47202.0 1811.37   9
   7  -7   1 46717.6 1881.30  15
   7   7   1 48686.8 3068.99  14
   7  -7   1 47272.3 3271.56   2
   7  -7   2 174.159 210.216  10
   7  -7   2 228.195 205.758  15
   7   7   2 213.299 174.082   9
   7   7   2 278.892 179.917   8
   7   7   2 201.251 175.208   7
   7  -7   3 14237.6 908.606  10
   7   7   3 13698.1 801.124   9
   7  -7   3 13723.2 836.065  15
   7   7   3 11613.4 696.580   8
   7   7   3 13817.9 840.858   7
   7  -7   4 296.416 209.609  10
   7  -7   4 15.8740 170.799  15
   7   7   4 150.095 162.961   9
   7   7   4 84.2252 117.565  13
   7   7   4 173.802 150.415   7
   7  -7   5 30172.4 1367.56  10
   7   7   5 29188.0 1258.42   9
   7   7   5 27078.2 1229.84  13
   7   7   5 30726.7 1309.88   7
   7  -7   5 28283.8 1225.11  15
   7  -7   6 1770.20 309.205  10
   7   7   6 1790.69 257.802   9
   7   7   6 1589.20 237.014  13
   7   7   6 1722.42 254.979   7
   7  -7   7 1027.38 218.194  10
   7   7   7 1075.38 185.618   9
   7  -7   8 4992.07 359.138  10
   7   7   8 4872.09 305.664   9
  -7  -8  12 252.971 66.7746   6
   7  -8 -12 498.075 103.766   3
  -7  -8  12 401.662 86.6989  12
  -7  -8  11 1692.69 214.413   6
   7  -8 -11 1926.64 214.052   5
   7  -8 -11 1861.30 240.071   3
  -7  -8  11 1656.30 196.330  12
   7  -8 -10 9812.21 573.367   5
   7  -8 -10 10878.2 665.439   3
  -7  -8  10 10757.4 582.528  12
   7  -8  -9 10613.0 642.352   5
   7  -8  -9 11725.8 749.398   3
  -7  -8   9 12463.2 671.267  12
   7   8  -9 12149.8 750.159  11
   7  -8  -9 10868.8 674.205  11
   7   8  -8 1967.50 327.113  11
   7  -8  -8 1828.64 307.745  11
   7  -8  -8 1971.95 328.133   3
  -7  -8   8 1866.88 279.296  12
   7  -8  -7 48655.2 1905.82   3
  -7  -8   7 49406.0 1771.13  12
   7   8  -7 47717.9 1895.87  11
   7  -8  -7 46669.4 1906.82  11
   7   8  -6 863.791 258.951  11
   7  -8  -6 582.040 212.069  11
   7  -8  -6 474.112 199.080   3
   7  -8  -5 4368.94 473.274  11
   7  -8  -5 5197.20 490.947   3
   7  -8  -5 4732.44 443.282   4
   7   8  -5 4637.48 490.101  11
   7   8  -4 276.237 173.031  11
   7  -8  -4 502.900 207.111  11
   7  -8  -4 130.196 143.088  15
   7  -8  -4 388.760 156.632   3
   7  -8  -4 502.156 166.394   4
   7  -8  -3 120714. 3702.77  11
   7  -8  -3 106529. 3595.18  10
   7   8  -3 114877. 5171.47  14
   7  -8  -3 104095. 3583.89  15
   7   8  -3 109835. 3588.66  11
   7   8  -2 165.127 143.537  11
   7  -8  -2 252.282 194.310  11
   7  -8  -2 310.552 219.181  10
   7  -8  -2 388.884 435.464   2
   7  -8  -2-207.704 200.757  15
   7   8  -2 617.934 354.033  14
   7  -8  -1 407.753 182.338  10
   7  -8  -1 302.479 346.382   2
   7  -8  -1 746.055 231.261  15
   7   8  -1 162.216 194.704  14
   7   8  -1 872.616 224.329   9
   7  -8   0 7528.84 642.947  10
   7  -8   0 7819.22 638.267  15
   7   8   0 7985.08 612.983   9
   7  -8   1-57.1101 256.162  10
   7  -8   1 69.6156 163.917  15
   7   8   1 187.450 177.941   9
   7   8   2 10959.7 716.437   9
   7  -8   2 11101.0 800.652  10
   7  -8   2 10893.6 744.417  15
   7   8   2 10705.1 722.443   7
   7  -8   3 1032.06 249.763  15
   7  -8   3 959.402 275.412  10
   7   8   3 830.476 213.981   9
   7   8   3 751.876 209.186   7
   7  -8   4 1568.65 311.558  10
   7  -8   4 1844.78 286.070  15
   7   8   4 1910.48 291.069   9
   7   8   4 2267.65 310.974   7
   7  -8   5 15803.3 918.266  10
   7   8   5 16832.9 852.458   9
   7  -8   5 15141.5 810.113  15
   7   8   5 16206.2 841.429   7
   7  -8   6 160.297 179.771  10
   7   8   6 174.920 146.286   9
   7   8   6 135.433 99.8453   7
   7  -8   7 13247.2 704.170  10
   7   8   7 13689.5 639.501   9
   7  -8   8 88.5606 83.5407  10
   7   8   8 112.770 71.2205   9
   7  -9 -11 4811.97 345.193   3
  -7  -9  11 4984.14 297.854  12
  -7  -9  11 4775.09 309.916   6
  -7  -9  10 910.926 188.568   6
   7  -9 -10 1140.18 174.929   5
   7  -9 -10 1467.91 240.670   3
  -7  -9  10 1219.54 186.577  12
   7   9  -9 2333.50 311.554  11
   7  -9  -9 1860.35 260.756  11
   7  -9  -9 2244.65 252.122   5
   7  -9  -9 2438.00 331.436   3
  -7  -9   9 2298.84 253.710  12
   7  -9  -8 41811.2 1639.92   3
  -7  -9   8 40627.7 1479.06  12
   7   9  -8 38163.1 1616.88  11
   7  -9  -8 39000.0 1592.75  11
   7  -9  -7 11068.1 736.140   3
   7   9  -7 10429.2 721.607  11
   7  -9  -7 9627.28 697.961  11
   7  -9  -6 22710.5 1149.64  11
   7  -9  -6 22162.9 1124.50   3
   7   9  -6 21597.5 1123.52  11
   7  -9  -5 12102.4 810.526  11
   7  -9  -5 12802.5 791.888   3
   7  -9  -5 11555.8 728.086   4
   7   9  -5 12950.5 822.949  11
   7   9  -4 1904.51 328.911  11
   7  -9  -4 2327.02 352.112  11
   7  -9  -4 1722.12 278.643  15
   7  -9  -4 2356.29 319.652   3
   7  -9  -4 2058.16 293.441   4
   7   9  -3 2382.62 360.045  11
   7  -9  -3 2402.27 348.302  15
   7  -9  -2 87858.2 3168.39  10
   7  -9  -2 91237.2 3192.56  15
   7   9  -2 101939. 3235.05   9
   7   9  -2 103352. 3209.79  11
   7  -9  -1 309.263 192.602  10
   7  -9  -1 525.537 218.113  15
   7   9  -1 746.122 225.747   9
   7  -9   0-214.887 237.138  10
   7  -9   0-227.633 183.893  15
   7   9   0-57.4856 184.801   9
   7  -9   1 14104.5 797.867  11
   7  -9   1 14098.2 900.946  10
   7  -9   1 13736.3 852.762  15
   7   9   1 14158.0 830.313   9
   7   9   1 13401.8 806.601   7
   7  -9   2 713.048 197.203  10
   7  -9   2 941.235 242.676  15
   7   9   2 812.757 233.456   9
   7   9   2 727.592 205.174   7
   7  -9   3 3953.51 461.807  10
   7   9   3 4086.71 423.920   9
   7  -9   3 4155.92 441.641  15
   7   9   3 4067.20 406.215   7
   7  -9   4 2343.01 361.914  10
   7  -9   4 2734.61 336.699  15
   7   9   4 2326.51 315.804   9
   7   9   4 2348.81 303.462   7
   7  -9   5 11016.2 713.077  10
   7   9   5 11563.7 672.860   9
   7  -9   5 10939.3 649.898  15
   7   9   5 11903.0 638.848   7
   7  -9   6 16322.7 834.339  10
   7   9   6 16760.3 775.968   9
   7  -9   7 1960.37 233.626  10
   7   9   7 2072.47 214.503   9
  -7 -10  11 509.343 102.820   6
   7 -10 -11 355.982 95.6151   3
  -7 -10  11 407.923 74.6885  12
   7 -10 -10 24677.4 999.998   3
  -7 -10  10 24186.4 873.135  12
  -7 -10  10 23751.4 938.340   6
  -7 -10   9 1209.61 222.354   6
   7 -10  -9 1177.90 235.822   3
  -7 -10   9 1072.62 167.063  12
   7 -10  -8 7480.34 559.044   3
  -7 -10   8 6545.03 421.951  12
   7  10  -8 6583.14 536.229  11
   7 -10  -8 6584.72 511.629  11
   7  10  -7 74.0225 173.511  11
   7 -10  -7-19.4717 138.688  11
   7 -10  -7 153.450 150.535   3
   7  10  -6 2083.87 358.686  11
   7 -10  -6 2063.10 336.724  11
   7 -10  -6 1985.23 316.293   3
   7  10  -5 65.1071 183.559  11
   7 -10  -5 125.417 168.406  11
   7 -10  -5 69.9414 149.929   3
   7 -10  -5 152.486 139.938   4
   7 -10  -4 5559.52 538.275  11
   7 -10  -4 5686.32 487.166   3
   7 -10  -4 4830.33 455.380  15
   7 -10  -4 5678.80 478.025   4
   7  10  -4 4868.68 530.168  11
   7 -10  -3 4784.92 497.187  11
   7 -10  -3 3662.88 415.166  15
   7 -10  -3 4050.52 392.630   4
   7  10  -3 4198.68 457.547  11
   7 -10  -2 40985.5 1698.44  10
   7 -10  -2 41175.9 1733.85  15
   7  10  -2 46299.8 1774.17   9
   7  10  -2 45050.3 1744.93  11
   7 -10  -1 114.590 151.836  10
   7 -10  -1 177.945 169.014  15
   7  10  -1 235.568 173.499   9
  -7 -10   1 433.528 156.216   5
   7 -10   0 5481.42 535.812  10
  -7 -10   0 6582.97 472.751   5
   7 -10   0 6100.41 546.913  15
   7  10   0 6114.56 532.414   9
   7 -10   1 2871.78 338.658  11
   7 -10   1 1916.80 325.035  10
   7 -10   1 2503.79 364.814  15
   7  10   1 2927.28 367.714   9
   7  10   1 2858.28 336.978   7
   7 -10   2 34919.3 1553.96  10
   7  10   2 36848.2 1484.03   9
   7 -10   2 35157.1 1493.91  15
   7 -10   3 437.273 182.654  10
   7 -10   3 232.163 159.633  15
   7  10   3 526.351 203.749   9
   7 -10   4 31749.5 1402.38  10
   7  10   4 35732.3 1365.08   9
   7 -10   4 31250.4 1341.82  15
   7 -10   5 1428.42 254.620  10
   7 -10   5 1086.01 198.507  15
   7  10   5 1521.76 240.307   9
   7 -10   6 7268.19 479.549  10
   7  10   6 8003.64 464.865   9
   7 -10   7 52.1734 97.3475  10
   7  10   7 356.339 99.7986   9
   7 -11 -10 4164.51 316.610   3
  -7 -11  10 4027.95 288.652   6
   7 -11  -9 7383.29 490.983   3
  -7 -11   9 7690.70 469.738   6
   7 -11  -8 6006.08 478.717   3
   7 -11  -8 6208.26 458.730  11
  -7 -11   8 6635.86 476.593   6
   7 -11  -7 1973.42 291.300  11
  -7 -11   7 2628.89 326.746   6
   7 -11  -7 2559.24 331.513   3
   7 -11  -6 22777.8 1104.92  11
   7 -11  -6 22337.8 1080.55   3
   7  11  -6 22173.5 1107.24  11
  -7 -11   6 23556.5 1059.92   6
   7  11  -5 140.892 164.706  11
   7 -11  -5 85.5365 181.166  11
  -7 -11   5-8.35352 124.076   6
   7 -11  -5 123.041 139.268   3
   7 -11  -5-13.6814 128.079   4
   7 -11  -4 19992.6 1063.67  11
   7 -11  -4 18399.5 950.964   3
   7 -11  -4 20060.4 969.524   4
   7  11  -4 18065.9 1053.54  11
  -7 -11   4 21310.3 918.761   6
   7 -11  -3 4247.86 467.805  11
   7 -11  -3 4270.23 422.538  15
   7  11  -3 4378.61 449.182   9
   7 -11  -3 4631.79 409.712   4
   7 -11  -2 11515.4 746.886  15
   7  11  -2 12613.6 763.186   9
   7 -11  -1 14258.3 817.675  10
   7 -11  -1 13620.0 841.937  15
  -7 -11   1 14494.4 759.086   5
   7  11  -1 13754.6 815.483   9
   7 -11   0 264.127 156.876  10
   7 -11   0 38.0007 163.820  15
   7  11   0 290.491 172.888   9
  -7 -11   0 174.147 129.716   5
   7 -11   1 14375.9 802.953  11
   7 -11   1 14772.1 865.052  10
   7  11   1 15567.4 845.491   9
   7 -11   1 15515.1 875.130  15
   7 -11   2 82.8270 192.729  10
   7 -11   2 266.280 182.380  15
   7  11   2 346.774 169.485   9
   7 -11   3 14689.5 844.574  10
   7  11   3 15903.1 816.724   9
   7 -11   3 15072.4 829.213  15
   7 -11   4 1367.46 246.034  10
   7 -11   4 1618.12 259.431  15
   7  11   4 1558.76 239.649   9
   7 -11   5-52.3737 144.998  10
   7 -11   5-38.9779 116.110  15
   7  11   5 75.3575 113.266   9
   7 -11   6 8972.10 481.234  10
   7  11   6 9594.34 474.578   9
   7 -12 -10 2635.19 211.257   3
  -7 -12  10 2582.86 193.693   6
   7 -12  -9 6084.11 403.052   3
  -7 -12   9 6226.55 381.700   6
   7 -12  -8 1507.10 197.774  11
  -7 -12   8 1626.78 221.795   6
   7 -12  -8 1564.58 237.232   3
   7 -12  -7 35644.8 1384.71   3
  -7 -12   7 37078.3 1348.06   6
   7 -12  -7 33168.7 1352.34  11
   7 -12  -6 1854.62 279.466  11
  -7 -12   6 2177.33 271.085   6
   7 -12  -6 1849.80 275.821   3
   7 -12  -5 27577.7 1235.76  11
   7 -12  -5 26442.2 1170.38   3
   7  12  -5 27039.2 1169.59   9
   7 -12  -5 25718.2 1140.98   4
  -7 -12   5 27769.1 1105.57   6
   7 -12  -4 405.440 204.368  11
   7  12  -4 889.897 225.909   9
   7 -12  -4 779.323 196.324   3
   7 -12  -4 531.392 151.449   4
   7 -12  -3 24161.4 1161.43  11
   7 -12  -3 21162.9 1033.79  15
   7  12  -3 23683.6 1079.34   9
   7 -12  -3 24081.5 1050.10   4
   7  12  -2 271.989 157.401   9
   7 -12  -2 408.302 187.502  15
  -7 -12   2 359.777 146.679   5
   7 -12  -2 421.809 129.162   4
  -7 -12   1 3901.77 362.084   5
   7 -12  -1 3744.14 418.558  15
   7  12  -1 3672.53 386.930   9
   7 -12   0 2121.25 319.044  15
   7  12   0 1833.01 280.670   9
  -7 -12   0 2121.59 265.879   5
   7 -12   1 125.797 120.314  11
   7 -12   1-87.9226 169.860  10
   7 -12   1 67.1561 155.075  15
   7  12   1 281.492 160.741   9
  -7 -12  -1 170.148 111.126   5
   7 -12   2-379.902 198.960  10
   7 -12   2 34.7870 165.558  15
   7  12   2-15.5052 126.018   9
   7 -12   3 4.23922 152.885  10
   7 -12   3-9.35783 147.815  15
   7  12   3 298.419 147.039   9
   7 -12   4 6978.88 469.066  10
   7  12   4 7975.54 482.491   9
   7 -12   4 7957.17 504.671  15
   7 -12   5 4253.07 319.251  10
   7  12   5 5397.79 342.691   9
   7 -12   5 4698.95 334.030  15
   7  12   6 2212.86 178.683   9
   7 -13  -9 6767.99 375.474   3
  -7 -13   9 7563.82 366.820   6
   7 -13  -8 3840.03 314.928   3
  -7 -13   8 3828.57 289.232   6
  -7 -13   7 802.559 166.216   6
   7 -13  -7 706.246 157.210  11
   7 -13  -7 759.343 171.661   3
   7 -13  -6 2198.58 284.361  11
   7  13  -6 1902.42 223.393   9
   7 -13  -6 2289.38 274.279   3
  -7 -13   6 2433.43 249.201   6
  -7 -13   5-47.8764 86.8979   6
   7 -13  -5-54.8221 139.942  11
   7  13  -5 11.2894 103.867   9
   7 -13  -5 153.734 126.802   3
   7 -13  -5 133.775 113.006   4
   7 -13  -4 4523.20 438.530  11
   7 -13  -4 4231.91 371.056   3
   7  13  -4 4119.37 366.746   9
   7 -13  -4 4233.02 371.728   4
   7 -13  -3 1239.13 258.409  11
   7 -13  -3 717.221 146.067  15
   7  13  -3 926.408 192.390   9
  -7 -13   3 987.147 201.324   5
   7 -13  -3 911.067 180.458   4
   7 -13  -2 5406.94 472.007  11
   7  13  -2 4922.11 414.771   9
   7 -13  -2 4246.77 393.417  15
  -7 -13   2 5337.26 401.824   5
   7 -13  -2 5180.95 395.243   4
   7 -13  -1 34544.4 1391.87  11
  -7 -13   1 33413.4 1264.51   5
   7  13  -1 33466.3 1303.92   9
   7 -13  -1 31652.1 1345.55  15
   7 -13   0-5.30157 134.986  11
   7 -13   0-67.2934 158.548  15
   7  13   0-38.7517 121.241   9
  -7 -13   0 32.2613 103.648   5
   7 -13   1 10754.6 614.017  11
  -7 -13  -1 10964.0 567.761   5
   7  13   1 10211.1 598.618   9
   7 -13   1 10994.3 669.074  15
   7 -13   2-383.142 173.106  15
   7  13   2-88.7381 110.808   9
   7  13   3 12624.4 610.680   9
   7 -13   3 12697.9 654.442  15
   7 -13   4 544.179 111.594  10
   7 -13   4 439.950 144.556  15
   7  13   4 741.500 139.696   9
   7  13   5 20276.0 703.816   9
   7 -13   5 18011.3 705.896  15
   7 -14  -8 8551.87 427.751   3
  -7 -14   8 8871.44 410.942   5
  -7 -14   8 8999.01 396.417   6
   7 -14  -7 8086.63 454.316   3
  -7 -14   7 8621.30 417.454   6
   7 -14  -7 7851.29 425.344  11
  -7 -14   6 85.9510 74.7103   6
   7 -14  -6-58.8638 121.883  11
   7 -14  -6-70.7798 111.776   3
   7 -14  -5 3323.30 329.561  11
   7 -14  -5 3844.99 325.529   3
  -7 -14   5 3531.44 296.451   5
   7 -14  -4 2164.65 291.238  11
   7 -14  -4 1785.45 219.533   3
  -7 -14   4 1758.84 224.278   5
   7 -14  -4 2201.65 243.693   4
   7 -14  -3 4710.74 419.589  11
   7  14  -3 3776.93 315.588   9
  -7 -14   3 4030.10 330.458   5
   7 -14  -3 4472.24 352.189   4
   7 -14  -2 7161.84 512.500  11
   7  14  -2 6001.29 407.226   9
  -7 -14   2 5934.54 407.577   5
   7 -14  -2 6895.63 423.770   4
   7 -14  -2 5672.41 419.704  15
   7 -14  -1 85.1645 136.699  11
   7  14  -1 67.6242 93.6502   9
  -7 -14   1 223.152 116.969   5
   7 -14   0 14216.1 714.506  11
  -7 -14   0 14467.8 659.198   5
   7  14   0 13238.0 658.471   9
   7 -14   0 13665.1 723.436  15
   7 -14   1 1844.71 223.201  11
  -7 -14  -1 2040.08 206.057   5
   7 -14   1 1808.47 251.294  15
   7  14   1 1891.74 221.514   9
   7  14   2 18261.8 762.806   9
   7 -14   2 19065.7 847.445  15
   7 -14   3-209.917 140.160  15
   7  14   3 150.416 76.7130   9
   7 -14   4 8148.92 407.811  15
   7  14   4 7507.58 341.735   9
  -7 -15   7 1196.59 132.716   5
   7 -15  -7 1120.07 131.623   3
   7 -15  -6 12670.5 549.490   3
  -7 -15   6 12634.9 536.659   5
   7 -15  -6 11855.8 546.956  11
   7 -15  -5 374.656 129.468  11
   7 -15  -5 248.757 95.5417   3
  -7 -15   5 296.706 100.784   5
   7 -15  -4 18176.6 804.767  11
  -7 -15   4 16907.0 706.607   5
   7 -15  -3-10.2813 125.141  11
  -7 -15   3 90.5186 86.6213   5
   7 -15  -3 26.3034 79.3438   4
   7 -15  -2 14790.0 724.863  11
  -7 -15   2 13870.2 619.381   5
   7 -15  -1 67.3363 115.532  11
  -7 -15   1 143.696 87.7004   5
   7 -15  -1 215.389 103.318  15
   7 -15   0 1193.10 181.482  11
   7 -15   0 828.971 164.947  15
  -7 -15   0 1210.18 158.887   5
   7  15   1 40.6275 56.6970   9
  -7 -15  -1-5.13357 57.6078   5
   7 -15   2-430.763 141.855  15
   7 -15   3 4437.86 279.586  15
  -7 -16   6 296.831 65.6652   5
  -7 -16   5 10418.7 441.373   5
   7 -16  -5 10886.2 477.661  11
   7 -16  -4 327.163 111.685  11
  -7 -16   4 374.268 89.5336   5
   7 -16  -3 1243.36 184.062  11
  -7 -16   3 1165.61 139.986   5
   7 -16  -2 4938.35 338.053  11
  -7 -16   2 4306.38 268.402   5
   7 -16  -1 3508.79 272.918  11
  -7 -16   1 3351.46 226.140   5
   7 -16   0 4921.50 291.147  11
  -7 -16   0 4998.56 262.099   5
   7 -16   1 1815.45 164.769  15
  -8   0  13-0.87397 52.8286  13
  -8   0  13-40.1091 45.9366  12
  -8   0  12 24813.7 940.318  12
   8   0 -11-62.2629 150.243   3
   8   0 -10 19474.9 991.421   3
   8   0 -10 16952.7 944.479  11
   8   0  -9-55.8296 182.211  11
   8   0  -9-15.7272 161.503   3
   8   0  -8 4649.87 470.266   3
   8   0  -8 4603.34 515.587  11
   8   0  -7-16.3084 190.949  11
   8   0  -7-94.6789 138.988   3
   8   0  -6 101677. 3212.24   3
   8   0  -6 91238.7 4731.56  14
   8   0  -6 93613.3 3292.74  11
   8   0  -5-150.818 179.260  11
   8   0  -5-4.99202 133.688   3
   8   0  -4 1668.95 317.829  11
   8   0  -4 1634.06 538.510  14
   8   0  -3-97.1887 167.073  11
   8   0  -3-284.370 281.993   2
   8   0  -3 215.320 240.718  14
   8   0  -2 10703.7 747.730  10
   8   0  -2 7929.29 1210.51   2
   8   0  -2 8893.05 609.034  15
   8   0  -2 7441.96 1079.21  14
   8   0  -2 8749.96 633.156  11
   8   0  -1 1272.97 540.974   2
   8   0  -1-28.1675 144.082  10
   8   0  -1 1123.02 252.702  15
   8   0  -1-726.036 367.698  14
   8   0  -1 49.2313 150.876  13
   8   0   0 1286.63 245.788  10
   8   0   0 1598.67 492.792  14
   8   0   0 1646.00 317.674  13
   8   0   0 1962.35 295.338  15
   8   0   1-103.776 169.567  10
   8   0   1 275.261 268.933  14
   8   0   1-327.604 238.996   8
   8   0   1 74.1432 186.446  13
   8   0   1 92.0103 152.074   7
   8   0   2 105623. 3661.25  10
   8   0   2 123236. 3872.97  13
   8   0   2 111646. 3657.43   8
   8   0   2 116658. 3743.79   7
   8   0   3-230.849 217.264  10
   8   0   3-139.974 192.562   8
   8   0   3 9.27200 186.147  13
   8   0   3-124.437 173.132   7
   8   0   4 43288.3 1785.90  10
   8   0   4 45834.6 1754.29   8
   8   0   4 44742.5 1888.33  13
   8   0   4 47997.5 1914.95   7
   8   0   5 55.5269 209.920  13
   8   0   5 106.327 191.622   7
   8   0   6 2647.41 363.700  13
   8   0   6 2683.95 354.129   7
   8   0   7-76.3274 149.445  13
   8   0   8 10349.5 551.667  13
  -8   1  13 446.887 94.9154  13
  -8  -1  13 383.955 71.3126  12
  -8  -1  12 10.1977 93.5296  12
  -8   1  12-84.1477 95.3791  12
   8  -1 -11 21050.0 966.114   3
   8   1 -11 17264.3 834.341  11
   8   1 -10 192.883 150.677  11
   8  -1 -10 49.8310 154.782  11
   8   1 -10 110.841 182.488   3
   8  -1 -10 100.582 173.047   3
   8   1  -9 6013.46 545.661   3
   8  -1  -9 5968.39 532.398   3
   8   1  -9 6037.88 569.110  11
   8  -1  -9 5457.91 551.571  11
   8   1  -8 612.489 268.576  11
   8  -1  -8 14.3744 193.021  11
   8   1  -8 278.218 188.730   3
   8  -1  -8 106.175 166.179   3
   8   1  -7 7640.81 608.595   3
   8  -1  -7 6917.62 576.032   3
   8   1  -7 6332.36 600.240  11
   8  -1  -7 7459.96 646.731  11
   8   1  -6 44326.1 1758.09   3
   8  -1  -6 47119.3 1799.13   3
   8   1  -6 43590.7 3055.97  14
   8  -1  -6 44531.6 3013.84  14
   8   1  -6 45995.4 1881.71  11
   8  -1  -6 44654.0 1871.53  11
   8   1  -5 11595.9 728.027   3
   8  -1  -5 11811.1 735.931   3
   8   1  -5 12215.9 1490.39  14
   8  -1  -5 12111.6 1455.22  14
   8   1  -5 11681.0 800.232  11
   8  -1  -5 11361.8 798.916  11
   8   1  -4 33180.2 1445.66  15
   8  -1  -4 35176.8 1479.51  15
   8   1  -4 44035.4 2844.52  14
   8  -1  -4 41029.6 2731.22  14
   8   1  -4 51126.5 1815.14  11
   8  -1  -4 47054.9 1754.51  11
   8   1  -3 2847.11 383.428  11
   8  -1  -3 2788.63 392.359  11
   8  -1  -3 11359.9 895.207  10
   8  -1  -3 2025.48 644.325   2
   8   1  -3 14138.7 706.325  15
   8  -1  -3 5338.09 479.805  15
   8  -1  -3 3189.25 701.290  14
   8   1  -3 2198.87 600.245  14
   8   1  -2 20283.1 1069.66  10
   8  -1  -2 15518.8 958.274  10
   8  -1  -2 14003.5 827.916  15
   8  -1  -2 16882.9 1594.43  14
   8   1  -2 16587.4 1639.46  14
   8   1  -2 20990.1 907.636  15
   8  -1  -2 16152.1 1753.39   2
   8   1  -2 16525.7 910.764  11
   8  -1  -2 16738.3 923.172  11
   8  -1  -1 270.360 275.739   2
   8   1  -1 1275.05 294.541  10
   8  -1  -1 151.142 174.571  10
   8  -1  -1 582.825 195.884  15
   8  -1  -1-392.065 270.183  14
   8   1  -1 33.7181 168.615  14
   8  -1  -1 739.704 245.053  13
   8   1  -1 764.242 240.653  13
   8   1   0 47111.8 1850.92  10
   8  -1   0 50820.1 1956.94  10
   8   1   0 39781.6 1653.44  15
   8  -1   0 44106.2 1778.21  15
   8  -1   0 52477.5 2959.95  14
   8   1   0 56537.3 3132.10  14
   8  -1   0 55655.5 2061.85  13
   8   1   0 56867.2 2070.21  13
   8  -1   0 52386.8 3456.15   2
   8   1   1 11438.5 745.720  10
   8  -1   1 12003.6 817.098  10
   8   1   1 11372.2 650.184  15
   8  -1   1 12678.8 1382.07  14
   8   1   1 13116.2 1443.92  14
   8  -1   1 10495.2 697.801  15
   8  -1   1 13291.8 875.778  13
   8   1   1 13630.3 887.511  13
   8   1   1 11567.4 778.938   8
   8  -1   1 13079.0 816.582   7
   8   1   1 12847.1 816.791   7
   8   1   2 18.8945 164.186  10
   8  -1   2 179.887 198.048  10
   8  -1   2 582.054 185.400  15
   8   1   2-75.4866 222.665   8
   8  -1   2-3.27193 201.945   8
   8  -1   2 381.049 226.252  13
   8   1   2 392.570 220.603  13
   8  -1   2 312.531 192.959   7
   8   1   2 501.364 206.963   7
   8  -1   3 13089.0 865.177  10
   8  -1   3 14433.5 928.583  13
   8   1   3 13853.5 916.230  13
   8   1   3 12636.2 811.064   8
   8  -1   3 12873.5 813.675   8
   8  -1   3 14241.9 893.899   7
   8   1   3 13514.8 883.622   7
   8  -1   4 431.240 186.006  10
   8  -1   4 978.535 290.184  13
   8   1   4 1043.67 297.010  13
   8  -1   4 1356.72 290.356   7
   8   1   4 1070.52 282.641   7
   8  -1   5 14083.8 898.785  10
   8   1   5 38014.3 1204.07   8
   8  -1   5 33674.7 1136.44   8
   8  -1   5 14745.7 962.966  13
   8   1   5 14662.9 971.641  13
   8  -1   5 15627.5 967.707   7
   8   1   5 16232.7 994.046   7
   8  -1   6 6958.11 505.412  10
   8  -1   6 7686.73 598.795  13
   8   1   6 7695.21 596.890  13
   8  -1   6 8263.71 602.248   7
   8   1   6 8282.98 612.837   7
   8  -1   7 4300.16 405.003  13
   8   1   7 4194.21 401.041  13
   8  -1   8 6882.29 430.171  13
   8   1   8 7215.33 438.394  13
  -8   2  13 2263.54 184.271  13
  -8  -2  13 2604.20 170.033  12
   8  -2 -12 1210.40 190.599   3
  -8  -2  12 1121.21 172.199  12
  -8   2  12 1124.21 157.504  12
   8   2 -11 771.431 182.001  11
   8  -2 -11 732.950 207.964   3
  -8  -2  11 701.282 193.711  12
   8   2 -10 1611.62 297.287  11
   8  -2 -10 1440.75 268.653  11
   8  -2 -10 1825.75 314.889   3
   8   2 -10 1638.51 294.061   3
   8   2  -9 198.203 177.490  11
   8  -2  -9 254.968 178.320  11
   8   2  -9-10.7850 166.111   3
   8  -2  -9-69.3791 189.093   3
   8   2  -8-44.7223 184.659  11
   8  -2  -8 32.3946 195.620  11
   8   2  -8 70.3197 153.876   3
   8  -2  -8-45.8853 153.839   3
   8   2  -7 5635.53 522.269   3
   8  -2  -7 5807.63 524.895   3
   8   2  -7 5658.49 555.268  11
   8  -2  -7 5980.87 581.682  11
   8   2  -6 20014.9 1022.88   3
   8  -2  -6 18941.6 1000.65   3
   8   2  -6 18447.4 1059.26  11
   8  -2  -6 18633.2 1064.22  11
   8   2  -5 55888.4 1947.28   3
   8  -2  -5 53803.9 1950.20   3
   8   2  -5 54304.5 3356.42  14
   8  -2  -5 51512.5 3198.72  14
   8   2  -5 55920.5 2081.09  11
   8  -2  -5 53696.5 2048.33  11
   8   2  -4 54.9937 154.022  11
   8  -2  -4 138.784 159.952  11
   8  -2  -4-66.1272 241.538   2
   8   2  -4-15.2434 209.811  14
   8  -2  -3 75070.7 2489.31  10
   8   2  -3 52249.8 2055.83  15
   8  -2  -3 54174.8 2162.32  15
   8  -2  -3 70311.2 3549.99  14
   8   2  -3 69849.4 3694.19  14
   8  -2  -3 68466.6 3873.37   2
   8   2  -3 79695.4 2455.52  11
   8  -2  -3 73850.4 2408.26  11
   8   2  -2 152.531 138.052  11
   8  -2  -2-80.1508 153.435  11
   8  -2  -2 281.307 224.601  10
   8  -2  -2-177.030 258.247   2
   8  -2  -2 8.10333 149.005  15
   8  -2  -2-656.382 295.562  14
   8   2  -2 678.156 433.972  14
   8   2  -1 38426.3 1583.97  10
   8  -2  -1 39009.2 1690.29  10
   8   2  -1 36574.7 1427.00  15
   8   2  -1 38706.3 1543.33   9
   8  -2  -1 42835.0 2577.41  14
   8   2  -1 41267.3 2676.50  14
   8  -2  -1 36728.0 1564.46  15
   8  -2  -1 45073.5 1801.46  13
   8   2  -1 44160.6 1778.94  13
   8  -2  -1 41357.9 3008.75   2
   8  -2   0 2718.39 766.309   2
   8  -2   0 2087.45 329.687  10
   8  -2   0 2081.91 323.751  15
   8   2   0 1739.35 265.460   9
   8   2   0 1632.11 495.802  14
   8  -2   0 2336.35 379.499  13
   8   2   0 2253.23 372.135  13
   8  -2   0 2634.08 342.212   7
   8  -2   1 26215.7 1329.12  10
   8   2   1 26120.9 1171.16   9
   8   2   1 26856.7 2169.84  14
   8  -2   1 25304.1 1226.53  15
   8  -2   1 27433.1 1366.86  13
   8   2   1 29300.1 1392.74  13
   8   2   1 28345.7 1300.84   8
   8  -2   1 30678.6 2621.49   2
   8  -2   1 27216.0 1283.80   7
   8  -2   2 29200.2 1423.63  10
   8   2   2 28562.3 1234.01   9
   8  -2   2 26191.4 1258.42  15
   8  -2   2 30846.0 1462.96  13
   8   2   2 30870.2 1470.28  13
   8   2   2 28545.8 1336.53   8
   8  -2   2 29936.0 1352.75   8
   8  -2   2 29840.1 1380.27   7
   8   2   2 31051.5 1408.48   7
   8  -2   3 773.161 226.516  10
   8   2   3 910.155 193.030   9
   8   2   3 1820.80 331.600   8
   8  -2   3 859.338 232.127   8
   8  -2   3 1279.58 317.680  13
   8   2   3 1380.69 317.050  13
   8  -2   3 1222.88 267.209   7
   8   2   3 1072.52 283.390   7
   8  -2   4 5310.02 521.851  10
   8   2   4 5415.52 445.368   9
   8  -2   4 5501.94 566.577  13
   8   2   4 5722.40 579.495  13
   8  -2   4 5359.46 527.503   7
   8   2   4 5736.46 562.748   7
   8  -2   5-255.421 200.164  10
   8   2   5-32.2950 96.3821   9
   8  -2   5-2.00137 184.925  13
   8   2   5-37.2303 189.790  13
   8  -2   5 67.6225 146.352   7
   8   2   5-118.106 204.700   7
   8  -2   6 1557.84 251.428  10
   8  -2   6 1549.06 289.108  13
   8   2   6 1700.73 302.380  13
   8  -2   6 1605.26 271.240   7
   8   2   6 2028.84 316.096   7
   8  -2   7 5318.50 431.238  13
   8   2   7 5194.80 436.765  13
   8  -2   8 9416.60 495.975  13
   8   2   8 9503.72 504.709  13
  -8   3  13 5052.17 269.532  13
   8  -3 -12 534.685 145.018   3
  -8  -3  12 832.274 147.324  12
  -8   3  12 665.913 118.926  12
   8  -3 -11 14376.3 758.338   3
  -8  -3  11 14146.4 707.933  12
   8   3 -11 12840.0 689.947  11
   8   3 -10 1649.41 311.102  11
   8  -3 -10 1598.53 272.163  11
   8  -3 -10 2164.36 331.358   3
   8  -3  -9 10218.1 692.691   3
   8   3  -9 9555.30 710.349  11
   8  -3  -9 9195.11 703.356  11
   8   3  -8 9851.06 716.725   3
   8  -3  -8 9553.28 678.473   3
   8   3  -8 8794.82 697.703  11
   8  -3  -8 9588.50 743.206  11
   8   3  -7 59632.7 2273.22   3
   8  -3  -7 65923.1 2306.88   3
   8   3  -7 62005.8 2354.76  11
   8  -3  -7 62110.8 2375.35  11
   8   3  -6 1326.80 297.535  11
   8  -3  -6 1233.28 288.069  11
   8   3  -6 989.434 230.869   3
   8  -3  -6 1029.62 243.728   3
   8   3  -5 12153.8 749.255   3
   8  -3  -5 10373.2 713.128   3
   8   3  -5 9889.75 1362.75  14
   8   3  -5 12086.2 818.000  11
   8  -3  -5 11567.6 794.580  11
   8   3  -4 202.254 184.435  11
   8  -3  -4 170.919 171.869  11
   8  -3  -4-80.1405 165.706   2
   8   3  -4-329.186 279.557  14
   8   3  -3 607.417 201.660  11
   8  -3  -3 141.284 140.999  11
   8  -3  -3 783.553 505.584   2
   8  -3  -3 314.658 169.218  15
   8  -3  -2 14963.1 936.252  10
   8  -3  -2 14779.0 874.082  15
   8   3  -2 17069.2 1658.25  14
   8  -3  -2 17039.9 1870.51   2
   8   3  -2 15827.7 872.607  11
   8  -3  -2 16022.7 895.326  11
   8  -3  -1 8563.97 683.815  10
   8  -3  -1 8995.61 1380.92   2
   8  -3  -1 8304.84 633.150  15
   8   3  -1 8476.17 603.967   9
   8   3  -1 7396.01 1095.11  14
   8   3  -1 8192.14 676.436  13
   8  -3  -1 8879.18 621.550  11
   8  -3   0 9545.76 732.447  10
   8  -3   0 10301.4 1497.45   2
   8  -3   0 8926.94 673.357  15
   8   3   0 8905.62 616.351   9
   8   3   0 9646.83 1264.48  14
   8  -3   0 9836.02 747.348  13
   8   3   0 9846.14 737.381  13
   8  -3   0 9431.65 657.734   7
   8  -3   1 43710.2 1844.50  10
   8  -3   1 41890.2 1746.89  15
   8  -3   1 43996.4 1840.21  13
   8   3   1 43017.2 1818.37  13
   8   3   1 41907.7 1736.02   8
   8   3   1 41375.5 1639.10   9
   8  -3   1 44262.8 1750.26   7
   8  -3   2 1643.71 329.970  10
   8  -3   2 1712.94 288.292  15
   8   3   2 1912.78 278.967   9
   8   3   2 1443.45 273.732   8
   8  -3   2 1435.64 275.019   8
   8  -3   2 1867.87 358.299  13
   8   3   2 1943.84 342.477  13
   8  -3   2 2295.97 328.405   7
   8   3   2 1812.47 319.308   7
   8  -3   3 21043.8 1149.22  10
   8   3   3 20835.5 1001.56   9
   8  -3   3 17611.9 972.794  15
   8   3   3 20668.0 1054.23   8
   8  -3   3 21001.7 1148.80  13
   8   3   3 21995.8 1183.21  13
   8  -3   3 19767.4 1042.74   8
   8  -3   3 23644.9 1155.37   7
   8   3   3 19651.0 1096.76   7
   8  -3   4 4915.84 512.013  10
   8   3   4 5814.34 471.931   9
   8  -3   4 5169.02 538.234  13
   8   3   4 5241.67 550.878  13
   8  -3   4 6059.77 544.699   7
   8   3   4 5292.91 542.698   7
   8  -3   5 32550.4 1482.19  10
   8   3   5 35137.5 1381.20   9
   8  -3   5 32853.4 1515.19  13
   8   3   5 34556.2 1555.55  13
   8  -3   5 36167.4 1512.71   7
   8   3   5 37246.5 1564.54   7
   8  -3   6 1988.96 284.646  10
   8   3   6 3085.15 281.885   9
   8  -3   6 2843.04 347.233  13
   8   3   6 2803.17 357.202  13
   8   3   6 2887.60 348.523   7
   8  -3   7 7016.15 453.465  10
   8  -3   7 7606.49 503.131  13
   8   3   7 8126.85 526.169  13
   8  -3   8 2116.77 198.627  13
   8   3   8 2156.29 212.965  13
   8  -4 -12 5415.50 359.203   3
  -8  -4  12 5215.56 327.056  12
  -8   4  12 4705.31 274.799  12
   8   4 -11 437.186 147.151  11
   8  -4 -11 526.554 181.351   3
  -8  -4  11 453.209 154.678  12
   8  -4 -10 17257.4 892.421   3
  -8  -4  10 16234.2 836.530  12
   8   4 -10 16539.8 897.598  11
   8  -4 -10 14936.5 819.690  11
   8  -4  -9 7870.96 603.857   3
   8   4  -9 7776.86 626.350  11
   8  -4  -9 7497.40 608.761  11
   8  -4  -8 22255.6 1105.67   3
   8   4  -8 20610.5 1121.58  11
   8  -4  -8 21754.9 1172.86  11
   8   4  -7 506.590 229.115  11
   8  -4  -7 306.691 205.342  11
   8  -4  -7 106.348 145.763   3
   8  -4  -6 12242.0 801.251   3
   8   4  -6 13122.2 864.904  11
   8  -4  -6 11872.4 830.332  11
   8  -4  -5 2962.79 404.091  11
   8  -4  -5 3261.35 379.027   3
   8   4  -5 3579.12 439.001  11
   8  -4  -4 3590.64 863.884   2
   8  -4  -4 3547.04 410.500  15
   8   4  -4 4007.40 844.811  14
   8   4  -4 4094.63 451.002  11
   8  -4  -4 4091.35 453.234  11
   8  -4  -3 32873.9 1520.58  10
   8   4  -3 32515.2 2480.83  14
   8  -4  -3 31344.1 2652.94   2
   8   4  -3 36353.2 1474.24  11
   8  -4  -3 34252.5 1460.27  11
   8  -4  -2 3371.93 391.847  11
   8  -4  -2 3596.09 449.583  10
   8  -4  -2 4266.43 936.512   2
   8  -4  -2 2484.60 343.847  15
   8   4  -2 3485.55 772.129  14
   8   4  -2 3162.07 371.272  11
   8  -4  -1 29519.5 1423.49  10
   8  -4  -1 28008.4 1342.66  15
   8   4  -1 27753.1 1271.67   9
   8   4  -1 30574.8 2339.54  14
   8  -4  -1 30725.8 1331.38  11
   8  -4   0 22753.0 1222.40  10
   8   4   0 21695.1 1071.29   9
   8   4   0 24842.9 2072.07  14
   8  -4   0 23724.0 1221.49  13
   8   4   0 22996.5 1184.60  13
   8   4   0 21806.6 1113.63   8
   8  -4   0 22936.6 2281.70   2
   8  -4   0 23199.2 1177.40  15
   8  -4   1 23807.3 1267.82  10
   8   4   1 22944.2 1103.22   9
   8  -4   1 24397.5 1218.25  15
   8  -4   1 25116.9 1259.27  13
   8   4   1 24458.4 1230.16  13
   8   4   1 23218.5 1160.46   8
   8  -4   2 14429.4 935.305  10
   8   4   2 14278.3 799.892   9
   8  -4   2 12992.9 833.289  15
   8  -4   2 13549.8 896.873  13
   8   4   2 13528.4 885.256  13
   8   4   2 12360.0 800.983   8
   8  -4   2 13059.7 811.406   8
   8  -4   2 15042.3 868.219   7
   8   4   2 14066.9 875.454   7
   8  -4   3 24550.9 1275.25  10
   8   4   3 24459.7 1131.71   9
   8  -4   3 23589.6 1158.35  15
   8   4   3 26094.8 1172.29   8
   8  -4   3 25577.1 1287.21  13
   8   4   3 25995.6 1290.01  13
   8  -4   3 23006.0 1148.62   8
   8  -4   3 26686.5 1232.11   7
   8   4   3 23869.5 1223.55   7
   8  -4   4 23324.3 1206.41  10
   8   4   4 24566.3 1109.28   9
   8  -4   4 24903.5 1119.97   8
   8  -4   4 21857.0 1190.18  13
   8   4   4 24242.7 1246.17  13
   8  -4   4 25144.7 1188.33   7
   8   4   4 23753.9 1207.73   7
   8  -4   5 608.966 216.410  10
   8   4   5 1059.67 206.493   9
   8  -4   5 726.958 227.277  13
   8   4   5 1073.28 258.020  13
   8  -4   5 878.604 203.089   7
   8   4   5 986.373 252.241   7
   8  -4   6 16970.1 887.869  10
   8   4   6 17931.0 796.387   9
   8  -4   6 16942.0 876.998  13
   8   4   6 18642.3 935.593  13
   8   4   6 18932.1 918.523   7
   8  -4   7-110.028 143.119  10
   8  -4   7-5.62220 100.212  13
   8   4   7-45.2642 114.098  13
   8   4   8 4871.02 293.883  13
  -8  -5  12 1656.03 166.356   6
   8  -5 -12 1895.02 204.183   3
  -8  -5  12 1798.18 178.618  12
   8   5 -11-44.9849 101.719  11
   8  -5 -11 276.125 146.590   3
  -8  -5  11 208.767 112.783  12
   8   5 -10 194.035 158.802  11
   8  -5 -10 183.112 134.113  11
   8  -5 -10 122.069 170.172   3
  -8  -5  10 92.0530 127.359  12
   8   5  -9 339.472 209.622  11
   8  -5  -9 471.926 212.040  11
   8  -5  -9 318.867 135.712   5
   8  -5  -9 423.797 194.984   3
  -8  -5   9 360.534 191.893  12
   8   5  -8 3341.27 430.798  11
   8  -5  -8 3880.02 452.458  11
   8  -5  -8 3849.81 429.054   3
   8  -5  -7 6003.35 537.072   3
   8   5  -7 5806.82 552.061  11
   8  -5  -7 5801.74 561.663  11
   8  -5  -6 32004.8 1407.49   3
   8  -5  -6 29519.6 1240.75  15
   8   5  -6 33463.7 1477.26  11
   8  -5  -6 32044.9 1458.39  11
   8  -5  -5 24389.6 1131.67   3
   8   5  -5 25353.8 1208.80  11
   8  -5  -5 22504.1 1150.89  11
   8  -5  -4 73864.7 4342.28   2
   8   5  -4 84592.4 2617.00  11
   8  -5  -4 76866.1 2573.49  11
   8  -5  -3 20264.8 1166.82  10
   8  -5  -3 14795.5 921.426  15
   8   5  -3 18496.6 1858.84  14
   8  -5  -3 19478.7 2119.93   2
   8   5  -3 18402.5 1001.46  11
   8  -5  -3 18573.9 1010.97  11
   8  -5  -2 29517.4 1444.44  10
   8  -5  -2 27400.9 1357.48  15
   8   5  -2 31151.8 2431.32  14
   8  -5  -2 31580.0 2725.30   2
   8   5  -2 33041.9 1362.93  11
   8  -5  -2 31850.2 1406.18  11
   8  -5  -1 605.362 193.689  11
   8  -5  -1 553.425 230.204  10
   8  -5  -1 1072.62 520.875   2
   8  -5  -1 251.497 197.597  15
   8   5  -1-133.010 215.197  14
   8   5  -1 311.887 159.582   9
   8   5  -1 469.725 166.027   8
   8  -5   0 34436.6 1510.18  15
   8  -5   0 31967.8 1533.41  10
   8   5   0 33184.1 1394.87   9
   8   5   0 32636.6 1464.96  13
   8   5   0 30886.4 1389.13   8
   8  -5   1 5458.98 577.874  10
   8   5   1 5535.31 486.608   9
   8  -5   1 5479.93 539.276  15
   8  -5   1 5959.22 553.134  13
   8   5   1 5043.40 498.352  13
   8   5   1 5032.24 482.649   8
   8  -5   2 6298.19 612.562  10
   8   5   2 6687.23 531.987   9
   8  -5   2 6184.57 557.140  15
   8  -5   2 6548.59 588.443  13
   8   5   2 7172.44 557.921   8
   8   5   2 6084.45 549.455  13
   8  -5   2 6184.89 530.837   8
   8   5   2 6197.41 563.069   7
   8  -5   3 876.922 266.184  10
   8  -5   3 298.438 172.614  15
   8   5   3 1240.96 251.326   9
   8  -5   3 1018.30 235.462   8
   8  -5   3 1331.96 289.949  13
   8   5   3 855.562 240.298  13
   8   5   3 1254.59 289.238   7
   8  -5   4 120.908 208.794  10
   8  -5   4 277.633 159.244  15
   8   5   4 450.291 169.636   9
   8  -5   4 510.095 191.972  13
   8   5   4 349.891 195.198  13
   8  -5   4 403.365 133.241   7
   8   5   4 320.220 199.712   7
   8  -5   5-207.097 208.111  10
   8   5   5 167.086 125.621   9
   8  -5   5 139.179 136.672  13
   8   5   5 245.449 153.345  13
   8   5   5 129.912 168.065   7
   8  -5   6 4715.03 429.834  10
   8   5   6 5285.91 378.458   9
   8  -5   6 4700.78 389.177  13
   8   5   6 5207.97 434.345  13
   8   5   6 5645.71 444.239   7
   8  -5   7-127.606 139.860  10
   8   5   7 129.444 82.6823   9
   8  -5   7-103.009 95.2050  13
   8   5   7 110.445 94.7686  13
   8  -6 -12 1968.18 190.141   3
  -8  -6  12 1901.18 163.601  12
  -8  -6  12 1641.23 150.731   6
   8  -6 -11 2247.36 265.165   3
  -8  -6  11 2294.77 230.873  12
   8  -6 -10 13228.2 725.556   3
  -8  -6  10 12257.4 650.150  12
   8   6 -10 13700.5 754.523  11
   8  -6 -10 10991.3 624.477  11
   8   6  -9 1252.21 268.074  11
   8  -6  -9 1125.48 247.390  11
   8  -6  -9 1187.97 247.970   3
  -8  -6   9 1095.37 222.164  12
   8  -6  -8 24892.3 1186.94   3
  -8  -6   8 26532.8 1165.19  12
   8   6  -8 24548.1 1210.15  11
   8  -6  -8 24047.1 1213.18  11
   8  -6  -7 23970.5 1168.45   3
   8   6  -7 23811.3 1189.05  11
   8  -6  -7 23776.9 1212.29  11
   8  -6  -6 4222.36 456.454   3
   8   6  -6 4214.84 479.771  11
   8  -6  -6 3856.74 470.853  11
   8   6  -5 1965.94 334.899  11
   8  -6  -5 1928.73 338.523  11
   8  -6  -5 1728.66 284.980   3
   8   6  -4 2730.97 373.304  11
   8  -6  -4 2936.15 388.708  11
   8  -6  -4 2298.64 346.263  15
   8  -6  -3 22739.1 1202.27  15
   8   6  -3 24721.6 1214.63  11
   8   6  -2-42.0811 120.900  11
   8  -6  -2-13.3000 143.986  11
   8  -6  -2 483.942 272.054  10
   8  -6  -2-150.638 235.217  15
   8  -6  -1 17950.4 963.034  11
   8  -6  -1 15942.0 996.738  10
   8  -6  -1 16138.5 966.225  15
   8   6  -1 17090.3 937.994   9
   8  -6   0 20528.9 1156.85  10
   8  -6   0 22504.9 1167.08  15
   8   6   0 21654.0 1062.90   9
   8   6   0 19874.3 1006.90   8
   8  -6   1-42.1231 239.164  10
   8  -6   1-65.0678 199.816  15
   8   6   1 205.615 161.143   9
   8   6   1 508.169 203.712   8
   8  -6   1 50.3514 193.937   8
   8   6   1 383.400 172.093  13
   8  -6   2 21488.5 1169.29  10
   8   6   2 21437.4 1032.95   9
   8  -6   2 22994.7 1133.98  15
   8   6   2 18353.7 963.953   8
   8  -6   2 21739.2 1120.93  13
   8   6   2 19047.2 1030.56  13
   8  -6   2 20725.7 1029.58   8
   8   6   2 20878.6 1084.30   7
   8  -6   3 8270.78 679.254  10
   8   6   3 9143.10 620.502   9
   8  -6   3 8447.22 632.966  15
   8   6   3 10653.4 656.848   8
   8  -6   3 8539.90 652.013  13
   8   6   3 8436.17 632.267  13
   8  -6   3 8618.62 585.145   8
   8   6   3 8461.59 647.563   7
   8  -6   4 17532.7 983.501  10
   8   6   4 17304.7 880.103   9
   8  -6   4 16196.3 859.542  15
   8  -6   4 15889.9 893.674  13
   8   6   4 16817.6 915.821  13
   8   6   4 16517.7 929.843   7
   8  -6   5 276.347 175.086  10
   8   6   5 431.734 149.976   9
   8  -6   5 520.912 167.080  13
   8   6   5 337.641 154.693  13
   8   6   5 385.452 168.930   7
   8  -6   6 8441.24 560.639  10
   8   6   6 8214.59 475.469   9
   8  -6   6 6966.66 443.701  13
   8   6   6 8424.13 509.528  13
   8   6   6 8653.30 525.422   7
   8  -6   7 2846.27 276.498  10
   8   6   7 2795.76 220.010   9
   8  -7 -12 615.743 101.493   3
  -8  -7  11 28053.3 1024.91   6
   8  -7 -11 29636.5 1086.42   3
  -8  -7  11 28226.9 993.708  12
   8   7 -10-225.218 155.371  11
   8  -7 -10 90.7351 146.313   3
  -8  -7  10 71.1586 100.621  12
   8  -7  -9 17848.8 913.946   3
  -8  -7   9 16609.3 806.934  12
   8   7  -9 17643.7 930.797  11
   8  -7  -9 17043.1 882.858  11
   8   7  -8-93.7869 165.061  11
   8  -7  -8 136.829 168.855  11
   8  -7  -8 81.5527 163.040   3
  -8  -7   8-63.3600 125.571  12
   8  -7  -7 10588.7 719.159   3
  -8  -7   7 10664.2 639.308  12
   8   7  -7 10324.8 729.146  11
   8  -7  -7 11631.0 774.041  11
   8   7  -6 3049.64 405.222  11
   8  -7  -6 2910.39 399.725  11
   8  -7  -6 2926.70 363.786   3
   8   7  -5 782.624 234.327  11
   8  -7  -5 1253.35 297.416  11
   8  -7  -5 1140.58 255.767   3
   8   7  -4 1450.81 283.424  11
   8  -7  -4 1418.94 302.113  11
   8  -7  -4 911.274 235.821  15
   8  -7  -3 9005.07 694.986  11
   8  -7  -3 7433.27 628.581  15
   8   7  -3 7806.20 632.294  11
   8  -7  -2 5088.36 510.364  11
   8  -7  -2 5617.05 559.778  10
   8   7  -2 4978.14 497.152   9
   8  -7  -2 4415.26 461.886  15
   8   7  -2 4850.98 456.384  11
   8  -7  -1 5827.06 525.319  11
   8  -7  -1 5029.05 532.562  10
   8  -7  -1 5444.42 523.008  15
   8   7  -1 5679.35 512.009   9
   8  -7   0 2205.51 312.896  11
   8  -7   0 1538.36 327.864  10
   8  -7   0 2040.18 342.969  15
   8   7   0 2387.95 338.474   9
   8  -7   1 48743.5 1975.96  10
   8   7   1 46231.5 1796.57   9
   8  -7   1 46840.1 1897.09  15
   8  -7   1 47008.0 1788.76   8
   8   7   1 46661.3 1850.11   7
   8  -7   2-229.434 284.239  10
   8  -7   2-284.673 229.909  15
   8   7   2 24.6000 144.272   9
   8   7   2 93.2079 161.258   7
   8  -7   3 21829.7 1148.09  10
   8   7   3 21942.5 1036.52   9
   8  -7   3 21123.9 1071.94  15
   8   7   3 21698.8 1079.66   7
   8  -7   4 571.876 199.102  10
   8  -7   4 447.134 170.042  15
   8   7   4 759.363 195.512   9
   8   7   4 1081.93 194.060  13
   8   7   4 815.245 204.500   7
   8  -7   5 17984.6 913.784  10
   8   7   5 17918.5 816.461   9
   8   7   5 18180.7 857.241   7
   8  -7   6 1460.20 238.402  10
   8   7   6 1629.76 201.423   9
   8   7   6 1549.74 203.725   7
   8  -7   7 10314.7 516.872  10
   8   7   7 9545.85 432.438   9
  -8  -8  11 66.8905 78.2854   6
   8  -8 -11 105.793 94.4948   3
  -8  -8  11 67.3619 60.1481  12
   8  -8 -10 9491.08 550.752   3
  -8  -8  10 8158.38 440.781  12
   8  -8  -9 4054.13 395.683   3
  -8  -8   9 3588.53 309.610  12
   8   8  -9 3805.62 397.297  11
   8  -8  -9 3933.74 364.809  11
   8  -8  -8 5740.23 490.902   3
  -8  -8   8 4958.60 386.655  12
   8   8  -8 5675.70 503.895  11
   8  -8  -8 5477.29 486.948  11
   8  -8  -7 7121.35 565.952   3
   8   8  -7 6962.95 579.360  11
   8  -8  -7 7058.76 585.679  11
   8   8  -6 120.046 174.972  11
   8  -8  -6-0.65864 175.290  11
   8  -8  -6 43.7999 147.778   3
   8  -8  -5 16782.9 892.704   3
   8  -8  -5 14078.9 777.379  15
   8   8  -5 17531.7 969.779  11
   8  -8  -5 16879.9 971.222  11
   8   8  -4 866.403 243.600  11
   8  -8  -4 821.612 252.910  11
   8  -8  -4 980.508 236.348  15
   8  -8  -3 51908.5 2022.52  11
   8   8  -3 51904.0 1964.84  11
   8   8  -2 51.4080 116.040  11
   8  -8  -2 134.104 151.779  11
   8   8  -2-92.0892 174.672   9
   8  -8  -1 21952.1 1073.60  11
   8  -8  -1 18115.0 1062.32  10
   8  -8  -1 19940.5 1097.35  15
   8   8  -1 20228.0 1057.16   9
   8  -8   0 456.914 181.102  11
   8  -8   0 388.559 207.155  10
   8  -8   0-34.6399 200.651  15
   8   8   0 386.586 189.371   9
   8  -8   1 25109.4 1287.88  10
   8   8   1 26458.9 1207.55   9
   8  -8   1 25845.4 1256.03  15
   8   8   1 26813.3 1235.35   7
   8  -8   2 49.4987 234.214  10
   8  -8   2-130.097 220.867  15
   8   8   2 99.0398 137.269   9
   8   8   2 140.400 153.072   7
   8  -8   3-280.008 236.783  10
   8  -8   3-376.858 194.782  15
   8   8   3 40.3983 138.757   9
   8   8   3-1.09154 134.229   7
   8  -8   4 12138.4 755.388  10
   8   8   4 12982.6 701.167   9
   8  -8   4 11236.0 673.802  15
   8   8   4 13240.8 724.264   7
   8  -8   5 130.684 152.430  10
   8  -8   5 52.4657 99.3623  15
   8   8   5 299.658 133.103   9
   8   8   5 389.442 136.544   7
   8  -8   6 3161.11 309.087  10
   8   8   6 3467.43 276.446   9
   8  -8   7 3967.02 270.083  10
   8   8   7 4118.00 234.409   9
   8  -9 -11 4030.13 263.782   3
  -8  -9  11 4148.92 247.760   6
   8  -9 -10 3006.35 282.154   3
  -8  -9  10 2916.03 206.894  12
  -8  -9  10 2940.26 271.269   6
   8   9  -9 2031.26 283.684  11
   8  -9  -9 1976.08 249.725  11
   8  -9  -9 2068.65 272.355   3
  -8  -9   9 2078.74 196.209  12
   8  -9  -8 8976.79 593.838   3
   8   9  -8 7830.82 589.145  11
   8  -9  -8 9167.30 608.083  11
   8  -9  -7 8560.38 597.513   3
   8   9  -7 8475.84 624.526  11
   8  -9  -7 8262.65 616.616  11
   8  -9  -6 5656.93 480.165   3
   8   9  -6 4499.02 482.633  11
   8  -9  -6 4976.84 493.562  11
   8   9  -5 2725.94 394.250  11
   8  -9  -5 2989.23 403.293  11
   8  -9  -5 2935.17 350.490   3
   8  -9  -5 3989.04 356.314  15
   8  -9  -4 37750.7 1546.63  11
   8   9  -4 34706.5 1472.47  11
   8   9  -3-22.2662 138.187  11
   8  -9  -3 15.8575 174.145  11
   8  -9  -3-456.925 203.558  15
   8   9  -3 242.207 200.498   9
   8  -9  -2 23362.3 1140.74  11
   8  -9  -2 26435.2 1199.87  10
   8  -9  -2 21527.5 1134.42  15
   8   9  -2 23700.1 1149.95   9
   8   9  -2 19119.2 1051.90  11
   8  -9  -1 5420.29 490.721  11
   8  -9  -1 5981.74 551.361  10
   8  -9  -1 5498.10 529.741  15
   8   9  -1 6029.55 528.537   9
   8  -9   0 8547.81 593.023  11
   8  -9   0 7726.43 633.094  10
   8   9   0 8720.75 630.458   9
   8  -9   0 7964.49 636.232  15
   8  -9   1 5890.92 557.662  10
   8   9   1 6686.10 531.014   9
   8  -9   1 5645.55 532.512  15
   8   9   1 6592.60 531.882   7
   8  -9   2 12806.3 820.478  10
   8   9   2 13045.4 759.925   9
   8  -9   2 13130.1 784.540  15
   8   9   2 13760.3 777.641   7
   8  -9   3 2667.64 352.850  10
   8   9   3 3017.93 338.897   9
   8  -9   3 2558.57 328.850  15
   8   9   3 3147.99 331.862   7
   8  -9   4 961.751 226.336  10
   8  -9   4 882.883 197.207  15
   8   9   4 1128.08 219.041   9
   8   9   4 1269.16 202.577   7
   8  -9   5 3323.02 339.217  10
   8   9   5 4107.86 324.629   9
   8  -9   5 3170.30 270.624  15
   8  -9   6 104.755 99.6165  10
   8   9   6 190.589 90.2672   9
   8 -10 -10 17088.4 703.532   3
  -8 -10  10 17018.3 676.838   6
   8 -10  -9 971.301 156.592  11
  -8 -10   9 1376.89 203.706   6
   8 -10  -9 1385.13 209.376   3
   8 -10  -8 22814.1 1006.18   3
   8 -10  -8 21869.0 988.643  11
  -8 -10   8 24155.1 989.758   6
   8  10  -7-151.127 186.009  11
   8 -10  -7 300.106 164.338  11
   8 -10  -7 205.054 149.630   3
   8 -10  -6 11147.8 672.241   3
   8  10  -6 11057.2 718.592  11
   8 -10  -6 11070.9 719.561  11
   8  10  -5 933.312 253.727  11
   8 -10  -5 666.056 230.987  11
   8 -10  -5 886.630 188.929   3
   8  10  -4 644.495 214.345  11
   8 -10  -4 595.038 236.326  11
   8 -10  -4 354.426 151.226  15
   8  10  -4 617.072 220.283   9
   8  10  -3 2802.73 350.337  11
   8 -10  -3 2801.18 379.349  11
   8 -10  -3 2329.85 324.674  15
   8  10  -3 2650.81 354.003   9
   8 -10  -2 5517.80 511.600  11
   8 -10  -2 5253.95 496.437  15
   8  10  -2 5234.03 496.113   9
  -8 -10   2 5718.42 439.387   5
   8 -10  -1 1330.87 249.147  11
   8 -10  -1 993.888 236.665  15
   8  10  -1 1416.98 276.802   9
   8 -10   0 6036.06 480.349  11
   8 -10   0 6103.58 533.161  10
   8  10   0 6206.58 517.075   9
   8 -10   0 6362.10 545.701  15
   8  10   0 6940.08 520.005   7
   8 -10   1 1086.95 233.033  10
   8 -10   1 1140.77 246.739  15
   8  10   1 1346.96 255.713   9
   8  10   1 1213.84 226.416   7
   8 -10   2 13683.6 813.792  10
   8  10   2 15102.4 793.096   9
   8 -10   2 13500.5 789.157  15
   8  10   2 14248.8 744.390   7
   8 -10   3-69.1772 196.899  10
   8 -10   3-165.401 190.722  15
   8  10   3 121.365 146.474   9
   8 -10   4 24557.3 1072.07  10
   8  10   4 26679.6 1037.28   9
   8 -10   4 24560.7 1035.21  15
   8 -10   5-133.383 142.107  10
   8  10   5 106.004 93.3783   9
   8 -10   6 13563.5 583.406  10
   8  10   6 16856.0 597.844   9
   8 -11 -10 2242.25 183.382   3
  -8 -11  10 2350.54 173.004   6
   8 -11  -9 9732.12 499.267   3
  -8 -11   9 10397.0 484.830   6
   8 -11  -8-116.421 105.350  11
  -8 -11   8-24.8173 106.048   6
   8 -11  -8-164.157 129.551   3
   8 -11  -7 1990.93 273.854  11
  -8 -11   7 2143.16 252.907   6
   8 -11  -7 1938.42 252.234   3
   8 -11  -6 5297.48 420.340   3
  -8 -11   6 5111.38 378.852   6
   8 -11  -6 5424.41 464.459  11
   8 -11  -5 493.119 206.001  11
  -8 -11   5 534.859 129.221   6
   8  11  -5 361.827 179.926   9
   8 -11  -5 577.818 147.672   3
   8 -11  -4 29108.0 1212.87  11
   8  11  -4 25948.6 1122.20   9
   8 -11  -3 3473.09 387.493  11
   8 -11  -3 2585.32 322.641  15
   8  11  -3 3063.94 358.826   9
   8 -11  -2 8697.71 617.236  11
   8 -11  -2 9136.54 623.810  15
   8  11  -2 9158.11 618.225   9
  -8 -11   2 10094.1 569.990   5
   8 -11  -1 5268.50 460.440  11
   8  11  -1 5459.76 482.557   9
   8 -11  -1 5169.76 485.742  15
   8 -11   0 13765.0 747.940  11
   8 -11   0 14630.2 799.262  10
   8  11   0 15187.3 801.387   9
   8 -11   0 14121.6 818.752  15
   8  11   0 15108.4 754.790   7
   8 -11   1 11513.1 693.190  10
   8  11   1 11952.6 684.292   9
   8 -11   1 12393.4 728.917  15
   8 -11   2 1626.35 248.429  10
   8 -11   2 1572.35 268.724  15
   8  11   2 1902.35 261.189   9
   8 -11   3 6354.79 459.706  10
   8  11   3 7095.82 463.902   9
   8 -11   3 6581.06 463.249  15
   8 -11   4-159.198 140.502  10
   8 -11   4-188.006 133.884  15
   8  11   4 72.9137 105.075   9
   8 -11   5 902.507 134.747  10
   8  11   5 1393.74 157.569   9
   8 -12  -9 1714.60 169.149   3
  -8 -12   9 1608.72 147.458   6
   8 -12  -8-7.74085 86.3474  11
  -8 -12   8 99.8945 81.9081   6
   8  12  -8-31.0275 70.0772   9
   8 -12  -8-17.0736 99.1436   3
   8 -12  -7 5368.38 377.364   3
   8  12  -7 4796.61 347.171   9
  -8 -12   7 5321.41 340.875   6
   8 -12  -7 5393.25 395.028  11
   8 -12  -6 671.880 186.505  11
  -8 -12   6 759.400 153.032   6
   8  12  -6 737.664 163.957   9
   8 -12  -6 659.520 149.715   3
   8 -12  -5 23323.2 972.785   3
   8  12  -5 24345.2 1028.73   9
   8 -12  -5 26085.2 1114.36  11
   8 -12  -4-2.05639 174.487  11
   8  12  -4-47.6000 124.009   9
   8 -12  -3 33962.5 1346.41  11
   8  12  -3 32522.6 1265.33   9
  -8 -12   3 32768.2 1202.07   5
   8 -12  -2-7.89303 166.936  11
   8 -12  -2-273.780 187.751  15
   8  12  -2 63.0125 139.841   9
  -8 -12   2 114.265 106.414   5
   8 -12  -1 8184.53 542.263  11
  -8 -12   1 8028.66 464.191   5
   8  12  -1 7820.30 527.030   9
   8 -12  -1 7814.69 563.688  15
   8 -12   0-90.9781 132.690  11
   8  12   0 24.3339 122.161   9
   8 -12   1 7206.16 480.107  10
   8  12   1 6122.75 441.610   9
   8 -12   2 67.9342 160.514  15
   8  12   2 342.615 144.357   9
   8 -12   3 4369.50 322.551  10
   8  12   3 5144.03 352.056   9
   8 -12   3 4273.49 344.894  15
   8 -12   4 4258.54 276.500  10
   8  12   4 5151.59 311.822   9
   8 -12   4 4419.99 299.922  15
  -8 -13   8 75.5292 44.7682   6
   8 -13  -8 157.540 72.9632   3
   8 -13  -7 7784.90 411.983   3
  -8 -13   7 7612.19 353.206   6
   8 -13  -7 7409.52 418.716  11
   8 -13  -6 3024.43 253.563   3
   8  13  -6 2928.48 242.726   9
  -8 -13   6 2923.20 204.742   6
   8 -13  -6 3169.68 293.146  11
   8  13  -5 4044.82 317.883   9
  -8 -13   5 4418.20 318.396   5
   8 -13  -5 4632.08 380.137  11
   8 -13  -4 2808.35 315.880  11
   8  13  -4 2330.24 249.622   9
  -8 -13   4 2522.45 245.764   5
   8 -13  -3-4.01564 140.430  11
   8 -13  -3 227.358 117.098  15
   8  13  -3-192.567 125.780   9
  -8 -13   3 15.5221 85.1095   5
   8 -13  -2 5924.75 442.255  11
  -8 -13   2 5813.90 377.540   5
   8  13  -2 5707.98 404.304   9
   8 -13  -2 5030.96 385.686  15
   8 -13  -1 3646.26 333.872  11
  -8 -13   1 4121.10 300.013   5
   8  13  -1 3385.61 310.067   9
   8 -13  -1 3612.90 332.589  15
   8 -13   0 509.602 136.165  11
   8 -13   0 506.718 155.696  15
   8  13   0 547.390 141.199   9
   8  13   1 9534.49 509.296   9
   8 -13   1 9144.90 543.576  15
   8  13   2 2049.44 212.778   9
   8 -13   2 1702.48 218.008  15
   8  13   3 7201.03 369.188   9
   8 -13   3 6502.34 381.057  15
  -8 -14   7 3634.09 216.725   5
  -8 -14   6 4265.57 264.597   5
   8 -14  -6 4430.40 303.359  11
   8 -14  -5 605.265 154.208  11
  -8 -14   5 484.155 103.267   5
   8 -14  -4 318.568 138.236  11
   8  14  -4 58.1876 68.7380   9
  -8 -14   4 218.014 93.3124   5
  -8 -14   3 5630.81 341.732   5
   8  14  -3 5515.21 339.112   9
   8 -14  -3 6279.78 425.024  11
   8 -14  -2 19.8140 106.636  11
   8 -14  -2 52.6005 89.1784  15
   8  14  -2 140.443 97.6166   9
  -8 -14   2 228.987 94.8311   5
   8 -14  -1 1524.16 196.741  11
  -8 -14   1 1681.81 167.998   5
   8 -14  -1 1307.93 182.553  15
   8  14  -1 1433.51 177.532   9
   8  14   0 3669.77 267.129   9
   8 -14   0 3522.89 297.466  15
   8 -14   0 3754.64 272.775  11
   8  14   1 3705.14 251.108   9
   8 -14   1 2849.83 257.811  15
   8  14   2 10531.0 434.627   9
   8 -14   2 10601.2 488.225  15
   8 -15  -5 580.167 109.359  11
  -8 -15   5 489.739 80.1341   5
  -8 -15   4 11290.4 467.028   5
   8 -15  -4 12904.9 563.840  11
   8 -15  -3 106.170 89.5885  11
  -8 -15   3 101.162 59.9412   5
  -8 -15   2 11431.6 466.570   5
   8 -15  -2 12342.2 553.358  11
   8 -15  -1 275.661 92.1882  11
   8 -15  -1 548.319 94.1785  15
   8 -15   0 9206.92 409.061  15
  -9   0  12 23324.6 814.674  12
   9   0 -11 41.4814 93.2525  11
   9   0 -10 2627.62 329.647  11
   9   0 -10 2883.33 326.395   3
   9   0  -9-180.007 215.636  11
   9   0  -9-37.9741 156.414   3
   9   0  -8 92220.8 3085.70   3
   9   0  -8 98709.0 3236.28  11
   9   0  -7 138.563 187.256  11
   9   0  -7-44.0533 152.415   3
   9   0  -6 17854.9 953.338   3
   9   0  -6 20410.4 1092.21  11
   9   0  -5 14.5865 182.407  11
   9   0  -5 110.723 118.433   3
   9   0  -4 24081.8 1009.53  15
   9   0  -4 15288.2 977.306  11
   9   0  -3-210.195 217.919  11
   9   0  -3 19842.6 810.058  15
   9   0  -2 456.291 207.458  11
   9   0  -2 18229.3 780.646  15
   9   0  -1 5118.81 571.565  10
   9   0  -1 13705.1 709.467  15
   9   0   0 1141.54 308.205  10
   9   0   0 568.199 247.399  13
   9   0   0 660.953 220.885   7
   9   0   1-84.6554 184.030  10
   9   0   1-275.220 246.685   8
   9   0   1-28.7302 202.099  13
   9   0   1-56.1744 145.514   7
   9   0   2 727.218 183.052  10
   9   0   2 291.877 213.095   8
   9   0   2 811.724 258.787  13
   9   0   2 536.240 227.154   7
   9   0   3 5.81562 155.371  10
   9   0   3 55.5070 180.562  13
   9   0   3-18.2843 182.517   7
   9   0   4 45331.5 1834.86  13
   9   0   4 48239.3 1836.79   7
   9   0   5 75.7773 151.375  13
   9   0   5 168.032 155.621   7
   9   0   6 13112.2 697.878  13
   9   0   7-26.1314 93.6555  13
  -9  -1  12 9419.58 424.584  12
  -9   1  12 9136.23 414.669  12
   9   1 -11 1061.49 174.295  11
   9  -1 -11 1017.51 166.097  11
   9  -1 -11 1257.61 208.964   3
  -9  -1  11 904.960 176.816  12
   9   1 -10 1998.40 290.705  11
   9  -1 -10 1917.05 275.334  11
   9  -1 -10 2042.79 278.669   3
   9   1  -9 13505.4 753.804   3
   9  -1  -9 12541.0 743.742   3
   9   1  -9 12903.9 807.207  11
   9  -1  -9 12666.8 804.832  11
   9   1  -8 860.362 272.618  11
   9  -1  -8 743.258 265.117  11
   9   1  -8 664.984 208.911   3
   9  -1  -8 757.750 218.168   3
   9   1  -7 30860.7 1336.51   3
   9  -1  -7 31190.8 1351.45   3
   9   1  -7 31623.1 1450.85  11
   9  -1  -7 30223.1 1425.61  11
   9   1  -6 12133.8 755.878   3
   9  -1  -6 12678.1 769.214   3
   9   1  -6 13593.5 869.375  11
   9  -1  -6 13855.1 873.508  11
   9   1  -5 740.382 249.748  11
   9  -1  -5 489.817 224.597  11
   9   1  -5 181.533 121.947   3
   9  -1  -4 44868.1 1678.04  15
   9   1  -4 45284.7 1850.95  11
   9  -1  -4 47770.3 1878.15  11
   9   1  -3 21791.7 880.301  15
   9  -1  -3 22876.9 926.035  15
   9   1  -3 7802.22 679.173  11
   9  -1  -3 8285.78 700.565  11
   9   1  -2 2776.84 390.094  11
   9  -1  -2 2820.39 390.162  11
   9  -1  -2 12791.4 904.919  10
   9   1  -2 18483.8 805.523  15
   9  -1  -2 11677.5 649.905  15
   9   1  -1 10424.9 718.219  10
   9  -1  -1 1757.74 422.768  10
   9   1  -1 15776.7 757.673  15
   9  -1  -1 4019.41 483.421  15
   9   1   0 27355.6 1294.73  10
   9  -1   0 27560.8 1348.00  10
   9   1   0 34305.1 1225.87  15
   9  -1   0 26559.3 1219.21  15
   9  -1   0 30926.7 1480.33  13
   9   1   0 32072.1 1496.29  13
   9   1   0 30063.5 1367.47   8
   9  -1   0 29618.9 1357.14   7
   9   1   1 4259.64 447.675  10
   9  -1   1 3221.10 427.809  10
   9  -1   1 4137.42 500.134  13
   9   1   1 3215.84 423.612   8
   9  -1   1 3861.64 427.191   8
   9   1   1 3537.76 478.834  13
   9  -1   1 3876.24 453.693   7
   9   1   1 4271.15 471.595   7
   9   1   2 6323.59 517.179  10
   9  -1   2 5682.68 536.661  10
   9  -1   2 6373.28 605.293  13
   9   1   2 6437.80 619.897  13
   9   1   2 5832.67 538.944   8
   9  -1   2 5490.58 504.395   8
   9  -1   2 6628.65 575.019   7
   9   1   2 6292.49 575.224   7
   9  -1   3-130.656 180.211  10
   9  -1   3-32.6635 198.505  13
   9   1   3 158.014 213.391  13
   9  -1   3 87.6212 164.086   7
   9   1   3 69.4293 165.848   7
   9  -1   4 21982.0 1117.78  10
   9  -1   4 23973.4 1219.35  13
   9   1   4 24187.0 1223.11  13
   9  -1   4 25978.5 1220.39   7
   9   1   4 25145.7 1226.91   7
   9  -1   5 13733.9 708.831  10
   9  -1   5 14408.9 814.913  13
   9   1   5 14929.4 827.929  13
   9  -1   5 15445.6 803.203   7
   9   1   5 16144.1 832.806   7
   9  -1   6 1854.75 258.710  13
   9   1   6 1700.53 256.684  13
   9  -1   7 9285.90 478.288  13
   9   1   7 9617.49 483.243  13
  -9  -2  12 1091.05 130.510  12
  -9   2  12 1003.04 123.263  12
   9  -2 -11 8441.75 492.052   3
  -9  -2  11 7783.12 447.086  12
   9   2 -11 7086.69 442.090  11
   9  -2 -11 6397.58 391.890  11
   9   2 -10 523.911 191.016  11
   9  -2 -10 300.122 151.169  11
   9  -2 -10 287.619 159.821   3
   9   2  -9 1781.06 322.478  11
   9  -2  -9 2244.41 347.152  11
   9  -2  -9 1754.47 282.850   3
   9   2  -8 7191.33 561.671   3
   9  -2  -8 6906.81 550.970   3
   9   2  -8 7696.61 628.812  11
   9  -2  -8 7641.17 625.156  11
   9   2  -7 10768.9 688.687   3
   9  -2  -7 9997.35 684.122   3
   9   2  -7 10605.7 764.004  11
   9  -2  -7 9957.08 740.620  11
   9   2  -6 961.962 270.802  11
   9  -2  -6 982.040 269.933  11
   9   2  -6 489.160 190.110   3
   9  -2  -6 727.782 211.935   3
   9  -2  -5 3877.11 478.319  11
   9   2  -5 3769.43 485.221  11
   9   2  -4 1855.24 348.706  11
   9  -2  -4 1433.84 314.944  11
   9   2  -3 41203.8 1662.61  11
   9  -2  -3 43464.7 1714.44  11
   9   2  -2 5534.61 503.398   9
   9   2  -2 5866.12 505.209  11
   9  -2  -2 6319.61 539.348  11
   9  -2  -1 39286.4 1679.81  10
   9   2  -1 41134.4 1552.84   9
   9  -2  -1 40751.4 1617.30   7
   9  -2   0 3255.75 433.944  10
   9  -2   0 4042.06 420.980  15
   9   2   0 3602.25 376.473   9
   9   2   0 3391.50 412.933   8
   9  -2   0 3681.63 486.623  13
   9   2   0 3728.32 468.529  13
   9  -2   0 3583.40 408.675   7
   9  -2   1 20951.0 1155.66  10
   9   2   1 22442.3 1014.63   9
   9  -2   1 19423.8 1007.07  15
   9  -2   1 23521.6 1230.61  13
   9   2   1 23415.0 1230.81  13
   9   2   1 22327.1 1128.33   8
   9  -2   1 22380.1 1127.73   8
   9  -2   1 24160.1 1162.95   7
   9   2   1 22189.2 1154.10   7
   9  -2   2 6284.79 569.325  10
   9   2   2 6610.65 480.265   9
   9  -2   2 6969.17 493.698  15
   9  -2   2 6511.57 611.487  13
   9   2   2 6896.64 625.807  13
   9   2   2 6362.78 551.413   8
   9  -2   2 6517.95 545.077   8
   9  -2   2 6924.80 578.355   7
   9   2   2 6512.46 578.344   7
   9  -2   3 13036.5 834.446  10
   9  -2   3 13933.0 894.533  13
   9   2   3 14273.4 907.223  13
   9  -2   3 14661.1 816.892   8
   9  -2   3 14272.0 856.491   7
   9   2   3 14504.0 882.450   7
   9  -2   4 2257.46 327.899  10
   9  -2   4 2886.24 394.753  13
   9   2   4 2819.91 394.723  13
   9  -2   4 3396.76 398.542   7
   9   2   4 2806.38 386.870   7
   9  -2   5 3824.40 353.289  10
   9  -2   5 4459.61 419.559  13
   9   2   5 4437.76 420.268  13
   9  -2   5 4350.25 393.035   7
   9   2   5 4690.60 424.911   7
   9  -2   6 1974.31 247.998  13
   9   2   6 1924.89 253.337  13
   9   2   6 1604.72 228.237   7
   9  -2   7 52.9612 73.3071  13
   9   2   7 8.35020 77.4063  13
  -9  -3  12 4226.59 240.386  12
  -9   3  12 3503.45 210.195  12
  -9  -3  11 18581.6 769.867  12
   9   3 -11 17539.3 789.905  11
   9   3 -10 238.080 161.072  11
   9  -3 -10 252.250 139.014  11
   9  -3 -10 207.737 145.836   3
   9  -3  -9 20065.0 959.846   3
   9   3  -9 19688.2 1016.75  11
   9  -3  -9 18520.8 981.333  11
   9  -3  -8 7787.96 580.774   3
   9   3  -8 7995.16 640.889  11
   9  -3  -8 8188.36 642.663  11
   9  -3  -7 48917.3 1897.36   3
   9  -3  -7 48494.4 1974.07  11
   9  -3  -6 10625.4 695.528   3
   9   3  -6 10919.4 776.957  11
   9  -3  -6 10666.3 758.499  11
   9   3  -5 22380.3 1209.88  11
   9  -3  -5 19789.2 1154.28  11
   9   3  -4 13415.3 869.923  11
   9  -3  -4 12677.0 866.399  11
   9   3  -3 628.305 212.348  11
   9  -3  -3 386.735 200.355  11
   9  -3  -2 7977.25 596.235  15
   9   3  -2 7758.15 595.796   9
   9   3  -2 7143.66 556.687  11
   9  -3  -2 8878.27 653.793  11
   9  -3  -1 2853.89 419.595  10
   9   3  -1 2880.20 349.503   9
   9  -3  -1 2973.54 376.903  15
   9  -3   0 106.382 187.202  10
   9  -3   0 352.570 200.560  15
   9   3   0-9.32766 106.534   9
   9   3   0-83.6875 202.588   8
   9   3   0-60.9351 160.666  13
   9  -3   0 37.2696 117.570   7
   9  -3   1 2665.17 391.254  10
   9   3   1 2781.17 315.668   9
   9  -3   1 2569.84 349.704  15
   9   3   1 2224.49 327.574   8
   9  -3   1 1817.03 311.428   8
   9  -3   1 2564.66 396.489  13
   9   3   1 2330.04 380.292  13
   9  -3   1 3175.85 381.381   7
   9   3   1 2591.74 377.108   7
   9  -3   2 8978.92 693.912  10
   9   3   2 9307.75 586.818   9
   9  -3   2 7943.38 577.958  15
   9  -3   2 9701.16 729.804  13
   9   3   2 9441.65 718.649  13
   9   3   2 8884.59 637.198   8
   9  -3   2 8579.72 622.582   8
   9  -3   2 9636.20 669.232   7
   9   3   2 9537.28 693.294   7
   9  -3   3 10944.1 751.112  10
   9   3   3 11812.7 659.816   9
   9  -3   3 10601.5 612.014  15
   9  -3   3 12050.1 798.176  13
   9   3   3 12243.6 810.964  13
   9  -3   3 12085.4 733.688   8
   9  -3   3 12971.7 769.479   7
   9   3   3 12209.6 794.050   7
   9  -3   4 3722.62 419.309  10
   9   3   4 4869.35 383.151   9
   9  -3   4 4402.15 457.719  13
   9   3   4 4607.57 485.685  13
   9  -3   4 5620.48 472.565   7
   9   3   4 5230.65 500.736   7
   9  -3   5 12145.7 683.419  10
   9  -3   5 13000.8 736.408  13
   9   3   5 13927.0 760.696  13
   9   3   5 14037.9 749.333   7
   9  -3   6 1583.36 189.654  10
   9   3   6 2162.68 246.979   7
   9  -3   6 2026.22 239.192  13
   9   3   6 2048.65 247.955  13
   9   3   7 16728.4 648.195  13
  -9  -4  12 3852.77 215.058  12
   9  -4 -11 3024.39 276.970   3
  -9  -4  11 2729.40 230.406  12
   9   4 -11 2262.90 239.805  11
   9  -4 -10 10500.4 599.822   3
  -9  -4  10 9341.67 534.039  12
   9   4 -10 9879.65 624.448  11
   9  -4 -10 9151.49 560.959  11
   9   4  -9 1255.04 265.694  11
   9  -4  -9 1496.61 276.555  11
   9  -4  -9 1701.53 276.832   3
   9  -4  -8 20918.2 1015.71   3
   9   4  -8 20628.2 1084.03  11
   9  -4  -8 20059.4 1058.02  11
   9  -4  -7 11608.8 731.611   3
   9   4  -7 12364.5 814.210  11
   9  -4  -7 10951.8 764.538  11
   9  -4  -6 20558.2 1047.53   3
   9   4  -6 24324.8 1186.49  11
   9  -4  -6 21738.6 1144.73  11
   9   4  -5 1702.53 345.426  11
   9  -4  -5 1157.39 300.154  11
   9  -4  -4 17097.6 874.165  15
   9   4  -4 16037.1 945.518  11
   9  -4  -4 16775.2 976.535  11
   9  -4  -3 5066.98 478.589  15
   9   4  -3 4275.06 445.939  11
   9  -4  -3 3852.13 457.500  11
   9  -4  -2 1040.89 251.607  11
   9  -4  -2 1326.48 292.613  15
   9   4  -2 798.260 211.120   9
   9  -4  -1 18242.8 1055.22  10
   9  -4  -1 17217.8 976.700  15
   9   4  -1 17436.5 930.458   9
   9   4  -1 18400.5 979.825   8
   9  -4  -1 18713.7 970.041  11
   9  -4   0-63.9099 212.039  10
   9  -4   0-191.961 212.913  15
   9   4   0 161.866 153.110   9
   9   4   0-167.232 244.137   8
   9  -4   1 5714.39 562.088  10
   9   4   1 5137.55 447.187   9
   9  -4   1 5936.34 518.138  15
   9   4   1 5512.03 533.430  13
   9   4   1 5421.56 495.957   8
   9  -4   1 5380.89 494.701   8
   9   4   1 5840.24 538.501   7
   9  -4   2 8890.59 682.373  10
   9   4   2 8554.69 571.315   9
   9  -4   2 7930.23 595.645  15
   9  -4   2 8545.16 673.028  13
   9   4   2 8488.89 664.934  13
   9   4   2 10564.9 665.261   8
   9  -4   2 8892.86 628.188   8
   9  -4   2 9863.62 650.362   7
   9   4   2 8540.03 650.214   7
   9  -4   3 7095.20 599.368  10
   9   4   3 7762.84 525.159   9
   9  -4   3 6968.14 495.287  15
   9  -4   3 8001.66 623.539  13
   9   4   3 7351.79 611.527  13
   9  -4   3 9173.60 601.792   8
   9  -4   3 8240.04 575.636   7
   9   4   3 7602.18 606.954   7
   9  -4   4 8750.03 631.626  10
   9   4   4 9338.68 554.515   9
   9  -4   4 8473.60 620.567  13
   9   4   4 9407.60 662.850  13
   9  -4   4 10582.4 620.702   7
   9   4   4 9576.90 655.712   7
   9  -4   5-35.2100 164.880  10
   9   4   5 84.7787 67.1484   9
   9  -4   5-13.8853 121.747  13
   9   4   5 63.4647 122.334  13
   9   4   5 184.450 144.703   7
   9  -4   6 12001.5 587.538  10
   9   4   6 13911.8 640.359  13
   9   5 -11-61.5400 79.9206  11
   9  -5 -11-41.2420 89.9645   3
  -9  -5  11 140.040 80.7746  12
   9  -5 -10 11855.0 632.402   3
  -9  -5  10 10791.4 551.321  12
   9   5 -10 11571.5 663.067  11
   9  -5 -10 11220.3 596.708  11
   9   5  -9 1144.76 255.593  11
   9  -5  -9 1444.58 261.065  11
   9  -5  -9 1364.84 240.190   3
  -9  -5   9 1150.79 203.213  12
   9   5  -8 20.2105 175.936  11
   9  -5  -8-103.754 184.676  11
   9  -5  -8 1.04916 135.640   3
   9  -5  -7 4874.64 456.107   3
   9   5  -7 5081.09 506.487  11
   9  -5  -7 4957.76 495.605  11
   9  -5  -6 13268.4 815.446   3
   9  -5  -6 14748.9 917.777  11
   9   5  -5 13001.3 883.477  11
   9  -5  -5 12467.7 867.003  11
   9  -5  -4 14759.9 848.021  15
   9   5  -4 16667.6 935.000  11
   9  -5  -4 16249.9 955.229  11
   9   5  -3 744.992 218.820  11
   9  -5  -3 1241.81 271.445  11
   9  -5  -3 1648.88 306.223  15
   9  -5  -2 42390.7 1787.25  10
   9  -5  -2 37769.0 1662.70  15
   9   5  -2 42164.8 1689.57   9
   9   5  -2 41384.9 1644.83   8
   9  -5  -2 46305.5 1775.28  11
   9  -5  -1-87.2629 146.269  11
   9  -5  -1 508.460 293.961  10
   9  -5  -1 3.42901 196.349  15
   9   5  -1 166.318 156.351   9
   9   5  -1-143.028 199.475   8
   9  -5   0 25119.1 1286.07  10
   9  -5   0 26259.8 1245.98  15
   9   5   0 25157.8 1149.53   9
   9   5   0 25011.6 1166.49   8
   9  -5   1 1586.51 330.124  10
   9  -5   1 1740.20 297.490  15
   9   5   1 2004.74 281.919   9
   9   5   1 1977.44 316.146   8
   9  -5   1 1420.60 265.519   8
   9   5   1 1561.26 285.109  13
   9   5   1 1830.60 311.365   7
   9  -5   2 21474.5 1121.90  10
   9   5   2 21116.3 984.475   9
   9  -5   2 20913.9 1037.39  15
   9   5   2 22818.1 1021.31   8
   9   5   2 20879.8 1070.04  13
   9  -5   2 21507.4 1022.95   8
   9   5   2 20568.9 1071.14   7
   9  -5   3-124.189 214.929  10
   9  -5   3 190.559 147.404  15
   9   5   3 112.324 116.692   9
   9  -5   3 201.144 166.937  13
   9   5   3 28.1503 150.685  13
   9   5   3 92.1586 154.248   7
   9  -5   4 11760.6 740.466  10
   9   5   4 12272.3 659.811   9
   9  -5   4 11814.4 717.466  13
   9   5   4 12323.3 738.190  13
   9   5   4 13221.5 758.088   7
   9  -5   5 204.781 129.394  10
   9   5   5 256.933 96.7616   9
   9   5   5 435.701 144.530  13
   9   5   5 320.026 134.251   7
   9  -5   6-106.859 114.703  10
   9  -6 -11 4665.79 303.973   3
  -9  -6  11 3763.99 228.171  12
   9  -6 -10 20543.6 852.094   3
  -9  -6  10 18831.8 739.636  12
   9   6 -10 19972.9 887.161  11
   9  -6 -10 17721.9 780.050  11
   9   6  -9 258.166 165.803  11
   9  -6  -9 69.3467 146.324  11
   9  -6  -9 120.426 136.497   3
  -9  -6   9 62.1657 84.0767  12
   9  -6  -8 21772.5 1008.49   3
   9   6  -8 22897.6 1087.33  11
   9  -6  -8 21923.8 1049.69  11
   9   6  -7 320.833 199.333  11
   9  -6  -7 299.265 197.374  11
   9  -6  -7 203.382 141.158   3
   9   6  -6 3058.02 423.188  11
   9  -6  -6 2882.28 404.046  11
   9  -6  -6 3109.82 367.864   3
   9   6  -5 481.674 233.080  11
   9  -6  -5 485.931 229.572  11
   9   6  -4 29821.5 1319.58  11
   9  -6  -4 31200.9 1387.69  11
   9   6  -3 23730.3 1113.67  11
   9  -6  -3 24787.9 1206.30  11
   9  -6  -2 190.101 171.374  11
   9  -6  -2 100.110 195.341  15
   9   6  -2-131.606 159.496   9
   9  -6  -1 7531.24 649.007  10
   9  -6  -1 6413.22 571.805  15
   9   6  -1 6638.56 549.853   9
   9  -6  -1 7226.94 562.862  11
   9  -6   0 1039.18 291.251  10
   9  -6   0 246.988 212.783  15
   9   6   0 1143.57 227.440   9
   9   6   0 1210.12 229.760   8
   9  -6   0 854.595 218.770   8
   9  -6   1 12466.4 826.348  10
   9   6   1 12430.0 722.051   9
   9  -6   1 11675.2 773.448  15
   9   6   1 12832.9 703.422   8
   9  -6   1 11679.4 718.993   8
   9   6   1 11976.0 770.612   7
   9  -6   2 28.2956 213.647  10
   9  -6   2-288.212 184.056  15
   9   6   2 26.6704 132.012   9
   9  -6   2 42.2075 129.046   8
   9   6   2 204.099 184.485   7
   9  -6   3 13181.4 793.328  10
   9   6   3 12944.7 691.153   9
   9  -6   3 11045.7 656.155  15
   9  -6   3 14586.9 690.961   8
   9   6   3 12960.2 728.162  13
   9   6   3 12782.4 750.104   7
   9  -6   4 15845.9 839.101  10
   9   6   4 15844.7 742.976   9
   9   6   4 15985.7 781.598  13
   9   6   4 17613.0 843.296   7
   9  -6   5-82.7898 141.138  10
   9   6   5-58.5637 82.4245   9
   9   6   5 66.5096 106.417   7
   9  -6   6 7424.05 405.744  10
   9  -7 -11 6904.78 350.147   3
  -9  -7  11 6217.46 315.375   6
   9   7 -10 22.9087 109.560  11
   9  -7 -10 140.977 85.4934  11
   9  -7 -10-124.991 107.030   3
  -9  -7  10 28.4150 57.5949  12
   9  -7  -9 39981.5 1386.54   3
   9   7  -9 39846.0 1447.22  11
   9  -7  -9 36853.2 1367.08  11
   9   7  -8 155.684 174.580  11
   9  -7  -8 110.067 162.598  11
   9  -7  -8 145.953 137.190   3
  -9  -7   8 60.1301 77.3073  12
   9  -7  -7 21848.8 1039.11   3
   9   7  -7 24488.1 1169.62  11
   9  -7  -7 24638.6 1156.04  11
   9   7  -6 2246.87 350.363  11
   9  -7  -6 2413.20 375.995  11
   9  -7  -6 1957.89 298.813   3
   9   7  -5 3970.43 466.465  11
   9  -7  -5 4764.63 509.513  11
   9  -7  -4 6574.46 525.267  15
   9   7  -4 5418.37 514.350  11
   9  -7  -4 5664.73 546.852  11
   9  -7  -3 11079.7 728.718  15
   9   7  -3 12420.0 794.161   9
   9   7  -3 11625.1 743.516  11
   9  -7  -3 13212.0 822.137  11
   9  -7  -2-68.6402 196.963  15
   9   7  -2 127.937 171.274   9
   9  -7  -1 259.339 147.498  11
   9  -7  -1 17.4581 237.343  15
   9   7  -1 178.784 165.062   9
   9  -7   0 501.024 237.312  10
   9  -7   0 99.7396 190.987  15
   9   7   0 537.378 190.059   9
   9  -7   0 36.1303 177.051   8
   9   7   0 458.431 201.496   7
   9  -7   1 131.734 210.332  10
   9  -7   1-163.304 202.737  15
   9   7   1 425.049 171.791   9
   9  -7   1-320.909 181.910   8
   9   7   1 250.263 176.419   7
   9  -7   2 761.558 233.154  10
   9  -7   2 490.221 189.222  15
   9   7   2 749.556 191.305   9
   9  -7   2 1093.63 215.648   8
   9   7   2 843.142 221.625   7
   9  -7   3 35220.0 1453.02  10
   9   7   3 36200.5 1341.52   9
   9  -7   3 32560.6 1317.84  15
   9   7   3 37534.2 1423.78   7
   9  -7   4 2203.64 293.860  10
   9   7   4 2531.35 257.928   9
   9  -7   4 2280.65 222.574  15
   9   7   4 2281.52 269.969   7
   9  -7   5 13585.7 660.614  10
   9   7   5 12578.6 563.038   9
   9   7   5 13491.0 608.944   7
   9  -7   6 987.261 132.989  10
   9  -8 -10 2277.85 221.156   3
  -9  -8  10 2139.97 201.087   6
   9   8  -9 25.0775 120.206  11
   9  -8  -9 259.068 132.030  11
   9  -8  -9 241.356 133.311   3
   9   8  -8 991.028 236.827  11
   9  -8  -8 953.180 204.410  11
   9  -8  -8 1024.44 192.551   3
   9   8  -7 959.245 237.908  11
   9  -8  -7 1072.26 240.772  11
   9  -8  -7 1153.59 219.106   3
   9  -8  -6 6138.71 464.440   3
   9   8  -6 7969.43 593.002  11
   9  -8  -6 7256.34 583.108  11
   9  -8  -5 26368.0 1051.58  15
   9  -8  -5 28421.6 1275.79  11
   9   8  -4 1501.52 288.381  11
   9  -8  -4 1969.47 346.986  11
   9   8  -4 1620.96 319.705   9
   9  -8  -3 4971.73 462.336  15
   9   8  -3 6014.75 524.334   9
   9   8  -3 4673.88 449.868  11
   9  -8  -3 5553.05 508.710  11
   9  -8  -2 87.5110 146.229  11
   9   8  -2 102.601 157.922   9
   9  -8  -1 11409.5 765.608  15
   9   8  -1 12781.4 763.181   9
   9  -8  -1 11736.4 716.889  11
   9  -8   0 158.962 212.497  10
   9  -8   0-176.938 230.088  15
   9   8   0 216.800 180.642   9
   9   8   0 34.6370 144.363   7
   9  -8   1 52535.8 2011.19  10
   9   8   1 54514.9 1922.12   9
   9  -8   1 53420.6 1969.12  15
   9   8   1 54895.8 1969.78   7
   9  -8   2 415.501 185.265  10
   9  -8   2 606.603 185.299  15
   9   8   2 777.297 194.438   9
   9   8   2 708.785 179.826   7
   9  -8   3 5555.27 463.930  10
   9   8   3 6074.64 425.607   9
   9  -8   3 4837.87 395.980  15
   9   8   3 6485.49 459.323   7
   9  -8   4 4331.05 370.188  10
   9   8   4 4659.07 336.410   9
   9  -8   4 3980.65 288.998  15
   9   8   4 5156.30 356.753   7
   9  -8   5 1060.62 162.783  10
   9   8   5 1265.02 147.702   9
  -9  -9  10 749.988 105.201   6
   9  -9 -10 922.860 124.605   3
   9  -9  -9 2951.33 262.516  11
  -9  -9   9 2562.88 232.382   6
   9   9  -8 132.511 143.332  11
   9  -9  -8 24.7780 123.674  11
   9  -9  -8 91.3577 107.336   3
   9   9  -7 2436.99 320.099  11
   9  -9  -7 2497.37 328.998  11
   9  -9  -7 2051.98 255.564   3
   9   9  -6 1574.70 286.747  11
   9  -9  -6 2412.12 327.600  11
   9  -9  -6 1917.26 246.737   3
   9   9  -5 8700.73 649.556  11
   9  -9  -5 9684.74 691.348  11
   9  -9  -4 6821.51 474.780  15
   9   9  -4 6079.44 524.184   9
   9   9  -4 5354.49 477.881  11
   9  -9  -4 6168.96 528.002  11
   9  -9  -3 5239.36 462.132  15
   9   9  -3 6385.14 529.605   9
   9   9  -3 5697.51 474.201  11
   9  -9  -3 6648.18 538.064  11
   9  -9  -2 22430.0 1104.54  15
   9   9  -2 26195.0 1161.61   9
   9  -9  -2 25160.8 1131.97  11
   9   9  -1 3948.18 409.678   9
   9  -9  -1 3609.33 408.935  15
   9  -9  -1 3744.61 375.712  11
   9  -9   0 27201.7 1232.26  10
   9   9   0 28170.9 1194.58   9
   9  -9   0 27101.8 1210.52  15
   9   9   0 27498.7 1191.83   7
   9  -9   1 1019.16 253.781  10
   9  -9   1 458.422 164.009  15
   9   9   1 1021.58 214.350   9
   9   9   1 791.831 184.808   7
   9  -9   2 12236.7 720.106  10
   9  -9   2 12211.3 680.640  15
   9   9   2 13584.5 702.424   7
   9  -9   3 4649.52 392.781  10
   9   9   3 4984.44 365.831   9
   9  -9   3 4089.89 344.368  15
   9   9   3 5373.42 371.895   7
   9  -9   4 488.546 137.804  10
   9   9   4 854.033 149.734   9
   9   9   4 642.746 116.675   7
   9  -9   5 2139.13 195.627  10
   9   9   5 2198.15 171.592   9
  -9 -10   9 449.754 90.4027   6
   9 -10  -9 370.889 96.9960   3
   9  10  -9 515.388 111.493   9
   9 -10  -8 17829.5 748.172   3
   9 -10  -8 18702.9 787.612  11
  -9 -10   8 18078.7 714.436   6
   9 -10  -7 281.942 145.787  11
  -9 -10   7 201.509 102.224   6
   9 -10  -7 311.056 110.152   3
   9 -10  -6 14008.4 664.360   3
   9  10  -6 16187.4 786.080   9
   9  10  -6 15391.3 799.511  11
   9 -10  -6 15930.8 804.949  11
  -9 -10   6 13072.7 610.559   6
   9  10  -5 1297.50 263.065  11
   9 -10  -5 2010.72 326.867  11
   9  10  -5 2118.53 307.116   9
   9 -10  -4 13586.9 677.513  15
   9  10  -4 14264.5 783.941   9
   9 -10  -4 15507.9 825.560  11
   9 -10  -3 1038.85 234.930  11
   9 -10  -3 1183.50 223.354  15
   9  10  -3 963.268 228.020   9
   9 -10  -2 1089.63 222.458  11
   9 -10  -2 955.720 217.594  15
   9  10  -2 1237.69 243.288   9
   9 -10  -1 281.994 158.776  11
   9 -10  -1 46.6645 194.204  15
   9  10  -1 260.289 161.427   9
   9  10  -1 373.591 150.906   7
   9  10   0 84.0927 134.993   9
   9  10   0 188.756 126.403   7
   9 -10   1 271.837 165.577  15
   9  10   1 696.666 161.899   7
   9 -10   2 5767.78 440.162  10
   9  10   2 5571.95 401.618   9
   9 -10   2 4909.62 392.412  15
   9  10   2 6005.00 386.839   7
   9 -10   3-178.653 112.778  15
   9  10   3-167.020 113.636   9
   9 -10   4 14577.0 632.237  10
   9  10   4 17008.5 640.873   9
   9 -11  -8 237.052 97.3809  11
  -9 -11   8 82.7514 57.7242   6
   9 -11  -8 79.3028 68.4045   3
   9  11  -8 42.4118 66.2959   9
   9 -11  -7 719.218 161.168  11
  -9 -11   7 563.976 104.545   6
   9 -11  -7 639.072 118.685   3
   9  11  -7 586.051 138.823   9
   9 -11  -6 1456.78 228.571  11
   9  11  -6 1660.61 220.144   9
   9  11  -5 8959.58 537.499   9
   9 -11  -5 8662.68 564.645  11
   9  11  -4 4081.01 372.719   9
  -9 -11   4 4269.95 333.145   5
   9 -11  -4 4175.70 398.785  11
   9 -11  -3 14088.9 700.397  15
   9  11  -3 16759.1 796.919   9
   9 -11  -3 15868.6 795.164  11
   9 -11  -2 15919.0 795.888  15
   9  11  -2 18167.7 845.476   9
   9  11  -2 18500.3 815.227   7
   9 -11  -2 17130.2 822.420  11
   9  11  -1 2630.89 298.294   9
   9 -11  -1 2226.89 293.622  15
   9  11  -1 2808.11 274.486   7
   9 -11  -1 2620.97 277.235  11
   9  11   0 6717.33 452.948   9
   9 -11   0 6203.05 448.345  15
   9  11   0 6390.85 405.994   7
   9 -11   1 489.970 159.687  15
   9  11   1 1077.53 191.200   9
   9  11   2 9278.63 499.800   9
   9 -11   2 8024.04 481.398  15
   9  11   3 3761.27 270.180   9
   9 -11   3 2888.41 238.596  15
   9 -12  -7 674.147 127.058  11
   9  12  -7 609.643 106.119   9
  -9 -12   7 705.450 110.078   5
   9 -12  -6 828.156 161.634  11
   9  12  -6 815.075 147.466   9
  -9 -12   6 942.095 135.860   5
   9  12  -5 2781.52 263.316   9
  -9 -12   5 3345.60 265.344   5
   9 -12  -5 2988.62 297.236  11
   9 -12  -4 841.784 178.578  11
   9  12  -4 777.547 152.981   9
  -9 -12   4 891.638 147.675   5
   9  12  -3 20341.0 831.698   9
   9 -12  -3 20434.4 868.405  11
   9  12  -2 3165.55 290.243   9
   9 -12  -2 2828.46 269.920  15
   9 -12  -2 3079.80 293.831  11
   9  12  -1 18266.5 769.745   9
   9 -12  -1 16197.7 748.360  15
   9 -12  -1 16695.0 733.338  11
   9  12   0 3044.75 270.977   9
   9 -12   0 2598.33 265.677  15
   9  12   1 13145.4 585.178   9
   9 -12   1 11002.9 564.180  15
   9 -12   2 87.1752 85.7280  15
   9  12   2 40.8824 67.9755   9
  -9 -13   6 3038.95 195.953   5
   9 -13  -6 3191.47 244.437  11
  -9 -13   5 3630.04 232.948   5
   9  13  -5 3040.17 224.130   9
   9 -13  -5 3341.86 273.313  11
   9 -13  -4 183.724 104.264  11
   9  13  -4 145.500 79.1752   9
  -9 -13   4 109.533 59.3401   5
   9 -13  -3 10719.0 434.751  15
   9  13  -3 11031.3 511.169   9
   9 -13  -3 11258.8 560.236  11
   9  13  -2 9183.25 453.647   9
   9 -13  -2 8053.93 403.669  15
   9 -13  -2 9135.43 471.716  11
   9 -13  -1 502.536 124.687  15
   9  13  -1-24.2786 78.3090   9
   9  13   0 2505.06 209.959   9
   9 -13   0 2504.63 218.520  15
   9  13   1 2452.87 189.821   9
   9 -13   1 2527.15 202.333  15
   9 -14  -5 636.732 101.312  11
   9 -14  -4 4356.21 280.400  11
   9 -14  -3 7321.94 377.076  11
   9 -14  -2-58.0913 70.3343  11
 -10   0  11-23.9156 63.0951  12
  10   0 -10 723.113 161.311  11
  10   0  -9-20.4386 149.437  11
  10   0  -8 27826.5 1226.92  11
  10   0  -7-74.1798 169.461  11
  10   0  -7 60.5813 109.108   3
  10   0  -6 14399.6 866.636  11
  10   0  -5 269.811 196.456  11
  10   0  -4 46877.3 1841.16  11
  10   0  -3 86.7745 141.811  11
  10   0  -2 39118.2 1440.01  15
  10   0  -1 20670.1 750.942  15
  10   0  -1 40.4401 161.754   7
  10   0   0 18213.9 869.189  10
  10   0   0 19105.7 722.475  15
  10   0   1-272.770 222.073   8
  10   0   1 70.2416 153.160   7
  10   0   2 7567.86 626.439  13
  10   0   2 8943.44 613.248   8
  10   0   2 7917.82 598.611   7
  10   0   3 106.489 175.471  13
  10   0   3-75.1935 141.537   7
  10   0   4 1461.11 241.860  13
  10   0   4 1260.29 209.637   7
 -10  -1  11 120.598 65.5869  12
 -10   1  11 359.059 93.9278  12
  10   1 -10 3465.05 319.410  11
  10  -1 -10 3607.72 318.567  11
  10   1  -9 2869.59 330.844  11
  10  -1  -9 2512.77 308.529  11
  10  -1  -9 2833.49 298.541   3
  10  -1  -8 7010.87 506.291   3
  10   1  -8 8358.71 595.733  11
  10  -1  -8 9000.34 617.122  11
  10   1  -7 10803.7 704.075  11
  10  -1  -7 10572.1 700.799  11
  10   1  -6-88.6004 163.518  11
  10  -1  -6 233.265 194.609  11
  10  -1  -6 18.3920 111.121   3
  10   1  -5 15516.6 899.588  11
  10  -1  -5 14715.9 889.951  11
  10   1  -4 1525.60 294.555  11
  10  -1  -4 1832.52 317.016  11
  10   1  -4 1355.87 232.897   9
  10   1  -3 7314.21 609.892  11
  10  -1  -3 8279.10 654.291  11
  10  -1  -2 11660.6 785.022   7
  10  -1  -2 12085.2 778.101  11
  10  -1  -1 2311.33 338.566   7
  10   1  -1 2263.20 354.997   7
  10   1   0 23488.5 1196.23   8
  10  -1   0 23001.9 1176.76   8
  10  -1   0 23717.5 1186.59   7
  10   1   0 24605.7 1234.18   7
  10   1   1 217.601 204.648   8
  10  -1   1 251.821 157.194   7
  10   1   1 274.564 161.267   7
  10  -1   2 9061.34 593.809  10
  10   1   2 6611.08 575.546  13
  10   1   2 8722.92 577.997   8
  10  -1   2 6865.78 526.337   8
  10  -1   2 6693.70 528.815   7
  10   1   2 6283.74 527.086   7
  10  -1   3 2533.75 336.596  10
  10   1   3 10175.5 608.971   8
  10  -1   3 8174.16 525.783   8
  10  -1   3 91.0492 163.968  13
  10   1   3 71.1661 168.153  13
  10  -1   3 3.73265 129.607   7
  10   1   3 265.330 167.990   7
  10   1   4 29835.6 1295.03  13
  10  -1   4 31443.1 1264.72   7
  10   1   4 33007.3 1304.14   7
 -10  -2  11 4755.10 264.859  12
  10   2 -10 528.624 148.275  11
  10  -2 -10 580.048 151.006  11
 -10  -2  10 484.408 118.480  12
  10  -2  -9 3353.74 330.249   3
  10   2  -9 3282.26 354.185  11
  10  -2  -9 3359.66 344.690  11
  10   2  -8-173.691 178.153  11
  10  -2  -8 244.855 181.345  11
  10  -2  -8 66.2265 118.025   3
  10  -2  -7 4295.61 391.765   3
  10   2  -7 5070.38 485.212  11
  10  -2  -7 4983.85 480.603  11
  10   2  -6 995.868 260.994  11
  10  -2  -6 1044.03 275.818  11
  10   2  -5 37.8767 168.918  11
  10  -2  -5-159.048 187.657  11
  10   2  -4 788.343 244.081  11
  10  -2  -4 638.286 249.433  11
  10   2  -3 5007.78 472.327   9
  10   2  -3 4577.56 463.230  11
  10  -2  -3 5848.12 533.675  11
  10   2  -2 9752.08 651.417   9
  10  -2  -2 9946.06 670.022   7
  10  -2  -2 10667.5 705.090  11
  10  -2  -1 40060.0 1436.01  10
  10  -2  -1 33746.4 1176.35  15
  10   2  -1 19554.0 991.812   9
  10   2  -1 20673.4 1107.16   8
  10  -2  -1 20811.3 1065.33   7
  10   2   0 1468.72 288.323   8
  10  -2   0 1539.30 309.798   8
  10  -2   0 2305.61 315.398   7
  10   2   0 1948.48 339.908   7
  10  -2   1 48455.4 1846.84  10
  10  -2   1 48524.1 1655.02  15
  10   2   1 47123.7 1799.11   8
  10  -2   1 47918.3 1814.80   8
  10  -2   1 50469.6 1823.90   7
  10   2   1 49937.2 1890.95   7
  10  -2   2 2468.59 340.952   8
  10  -2   2 2143.20 307.016   7
  10   2   2 2148.43 333.872   7
  10  -2   3 15546.4 826.605  10
  10   2   3 16719.5 911.787  13
  10  -2   3 17230.4 848.145   7
  10   2   3 17411.6 901.607   7
  10   2   4 1022.86 208.542  13
  10  -2   4 893.365 165.446   7
  10   2   4 1217.31 212.470   7
  10   2   5 7517.24 433.177   7
 -10  -3  11 1324.17 124.982  12
  10   3 -10 225.092 127.700  11
  10  -3 -10 262.407 114.342  11
  10  -3 -10 414.974 121.223   3
 -10  -3  10 210.340 91.2302  12
  10  -3  -9 7004.12 469.673   3
  10   3  -9 8481.04 549.259  11
  10  -3  -9 7407.21 510.212  11
  10   3  -8 2055.12 311.724  11
  10  -3  -8 2058.58 302.032  11
  10  -3  -8 1672.77 248.529   3
  10   3  -7 26414.6 1179.84  11
  10  -3  -7 25203.0 1163.86  11
  10   3  -6 5722.94 517.042  11
  10  -3  -6 4981.82 497.862  11
  10   3  -5 19749.3 1029.37  11
  10  -3  -5 20860.4 1077.98  11
  10   3  -4 6168.17 573.889  11
  10  -3  -4 6986.20 628.624  11
  10   3  -3 19752.9 1029.63   9
  10   3  -3 17663.1 979.951  11
  10  -3  -3 21319.4 1099.74  11
  10   3  -2 5335.03 472.094   9
  10   3  -2 5002.34 496.332   8
  10  -3  -2 5499.69 494.728  11
  10   3  -1 21356.7 1052.98   9
  10   3  -1 22036.8 1130.53   8
  10   3   0 2262.96 278.506   9
  10   3   0 1662.11 283.985   8
  10  -3   0 1882.65 314.022   8
  10  -3   0 2066.41 281.620   7
  10   3   0 2229.19 350.773   7
  10   3   1-83.3206 111.253   9
  10  -3   1 122.647 105.754   7
  10   3   1-19.1994 155.597   7
  10  -3   2-4.81061 114.408   7
  10   3   2 67.3241 158.671   7
  10  -3   3 1780.47 280.231  10
  10  -3   3 1259.68 209.976   7
  10   3   3 1677.21 279.672   7
  10  -3   4 6693.20 428.900  10
  10   3   4 6910.44 464.204   7
  10   3   5 11492.8 544.959   7
  10  -4 -10 3822.16 291.591   3
 -10  -4  10 3315.56 227.505  12
  10   4 -10 3992.82 322.673  11
  10  -4 -10 3785.90 289.689  11
  10   4  -9 1523.20 236.174  11
  10  -4  -9 1698.69 252.790  11
  10  -4  -9 1454.51 219.456   3
 -10  -4   9 1292.82 162.903  12
  10  -4  -8 9541.93 568.456   3
  10   4  -8 9588.67 635.919  11
  10  -4  -8 10014.9 635.488  11
  10   4  -7 2059.74 322.023  11
  10  -4  -7 1916.88 313.647  11
  10  -4  -7 2080.65 262.257   3
  10   4  -6 11458.2 734.688  11
  10  -4  -6 11348.4 746.455  11
  10   4  -5 217.848 192.158  11
  10  -4  -5 259.433 206.876  11
  10   4  -4 41212.4 1710.80   9
  10   4  -4 40027.1 1689.62  11
  10  -4  -4 45371.5 1802.86  11
  10   4  -3-0.50747 141.076  11
  10  -4  -3-42.6242 172.667  11
  10   4  -3 58.3580 141.668   9
  10   4  -3-209.831 189.100   8
  10   4  -2 6270.81 510.773   9
  10   4  -2 6665.11 535.004   8
  10  -4  -2 6780.38 549.276  11
  10   4  -1 16676.5 881.787   9
  10   4  -1 16458.1 911.775   8
  10  -4   0 7883.96 639.466  10
  10   4   0 3886.12 368.505   9
  10  -4   0 8289.39 544.986  15
  10   4   0 3542.35 379.619   8
  10  -4   0 4049.81 421.759   8
  10   4   0 4156.20 450.601   7
  10  -4   1 12520.9 761.494  10
  10   4   1 10972.0 621.337   9
  10  -4   1 12975.3 682.374  15
  10   4   1 12164.0 686.923   8
  10  -4   1 10169.7 657.060   8
  10   4   1 11622.1 733.341   7
  10  -4   2 1872.40 310.404  10
  10  -4   2 9104.97 477.933  15
  10   4   2 1473.13 215.761   9
  10   4   2 9830.30 544.623   8
  10  -4   2 2237.88 308.217   8
  10   4   2 1360.32 267.757   7
  10  -4   3 5439.19 451.685  10
  10   4   3 6112.24 487.848   7
  10  -4   4 3008.31 285.840  10
  10   4   4 2377.05 262.597   7
  10   4   5 2588.98 222.284   7
  10  -5 -10 4407.78 290.209   3
 -10  -5  10 3386.65 207.024  12
  10   5 -10 4429.62 321.576  11
  10  -5 -10 3815.72 267.119  11
  10   5  -9-104.581 126.481  11
  10  -5  -9 174.664 143.076  11
  10  -5  -9 27.7630 96.3243   3
 -10  -5   9-45.9893 56.6678  12
  10  -5  -8 10488.0 577.529   3
  10   5  -8 11914.2 674.765  11
  10  -5  -8 12092.6 675.874  11
  10   5  -7 1075.81 251.471  11
  10  -5  -7 1047.34 262.537  11
  10  -5  -7 1034.21 187.632   3
  10   5  -6 147.608 165.272  11
  10  -5  -6 282.558 206.465  11
  10   5  -5 598.384 222.957  11
  10  -5  -5 331.650 220.350  11
  10  -5  -4 267.613 196.381  11
  10   5  -4 508.162 210.476   9
  10   5  -3 59.0681 111.165  11
  10  -5  -3-138.652 177.765  11
  10   5  -3 104.883 159.452   9
  10   5  -3-109.227 147.384   8
  10   5  -2 9306.82 629.901   9
  10   5  -2 8924.39 591.966   8
  10  -5  -2 9765.84 651.848  11
  10   5  -1 1612.59 264.566   9
  10   5  -1 1612.34 256.882   8
  10  -5   0 54447.3 1899.38  10
  10   5   0 46936.0 1695.08   9
  10  -5   0 43444.5 1695.71  15
  10   5   0 44970.2 1677.77   8
  10  -5   0 47931.1 1771.67   8
  10   5   0 50727.6 1848.17   7
  10  -5   1 3361.34 407.879  10
  10  -5   1 4525.20 387.073  15
  10   5   1 1877.08 249.423   9
  10   5   1 4262.48 380.391   8
  10  -5   1 1148.07 227.285   8
  10   5   1 1858.57 289.318   7
  10  -5   2 17374.8 875.883  10
  10   5   2 16798.6 771.286   9
  10  -5   2 16775.6 747.461  15
  10  -5   2 17217.1 794.232   8
  10   5   2 17195.5 874.836   7
  10  -5   3 931.447 212.276  10
  10   5   3 602.290 187.739   7
  10  -5   4 15798.0 710.443  10
  10   5   4 17525.4 743.632   7
  10  -6 -10 3848.21 250.903   3
  10   6 -10 3749.63 279.865  11
  10  -6  -9 4870.89 335.994   3
  10   6  -9 5486.06 403.424  11
  10  -6  -9 5084.39 364.752  11
  10   6  -8 1304.59 239.313  11
  10  -6  -8 1536.59 247.980  11
  10  -6  -8 1259.20 188.573   3
  10   6  -7 2830.12 335.897  11
  10  -6  -7 2534.88 333.824  11
  10  -6  -7 2185.56 244.725   3
  10   6  -6 21792.7 1074.00  11
  10  -6  -6 24731.6 1135.20  11
  10   6  -5 1288.07 281.264  11
  10  -6  -5 1083.85 288.798  11
  10   6  -4 18993.8 1000.54   9
  10   6  -4 16489.6 922.993  11
  10  -6  -4 18809.4 1021.87  11
  10   6  -3 8491.58 603.809   9
  10   6  -3 6928.40 518.504  11
  10  -6  -3 8659.92 625.236  11
  10   6  -2 6557.92 515.496   9
  10  -6  -2 6133.76 496.828  11
  10   6  -1 3795.21 385.833   9
  10  -6  -1 3491.98 382.698   8
  10   6   0 10535.2 626.642   9
  10  -6   0 11474.5 669.916  15
  10   6   0 10207.2 582.007   8
  10  -6   0 9999.29 631.018   8
  10   6   0 11058.7 697.608   7
  10  -6   1 10025.0 663.098  10
  10   6   1 7837.91 504.326   9
  10  -6   1 8834.05 532.725  15
  10   6   1 9205.19 500.467   8
  10  -6   1 7485.60 493.820   8
  10   6   1 8179.38 572.705   7
  10  -6   2 4640.70 435.729  10
  10   6   2 3636.98 321.003   9
  10  -6   2 6100.84 382.937  15
  10  -6   2 6339.69 390.820   8
  10   6   2 3945.21 381.102   7
  10  -6   3 8133.65 500.372  10
  10   6   3 7785.86 428.937   9
  10   6   3 8556.57 510.641   7
  10  -6   4 3568.95 287.950  10
  10   6   4 2635.99 239.258   7
 -10  -7  10 126.273 56.7326   6
  10  -7  -9 3389.96 251.440   3
  10   7  -9 3725.08 306.662  11
  10  -7  -9 3578.02 279.628  11
  10  -7  -8 2296.50 225.436   3
  10   7  -8 2946.54 312.094  11
  10  -7  -8 2686.76 291.372  11
  10   7  -7 45026.3 1626.19  11
  10  -7  -7 42991.0 1620.35  11
  10   7  -6 178.384 137.836  11
  10  -7  -6 96.1158 178.179  11
  10   7  -5 23399.1 1123.64   9
  10  -7  -5 25647.2 1173.87  11
  10   7  -4 305.277 149.877  11
  10  -7  -4 476.187 208.341  11
  10   7  -3 12587.4 728.698   9
  10  -7  -3 12418.2 729.050  11
  10  -7  -2 230.657 126.102  11
  10   7  -2 203.017 158.121   9
  10  -7  -1 11842.3 702.014  15
  10   7  -1 11060.8 675.033   9
  10  -7  -1 11095.5 657.934   8
  10   7  -1 11505.5 721.682   7
  10   7   0 1296.11 224.122   9
  10  -7   0 973.920 184.836   8
  10   7   0 1621.01 277.047   7
  10   7   1 113.205 114.964   9
  10  -7   1 538.734 151.986   8
  10   7   1 183.849 144.267   7
  10  -7   2 3187.57 340.718  10
  10  -7   2 3034.54 264.641  15
  10   7   2 1096.28 177.766   9
  10   7   2 1308.24 215.561   7
  10   7   3 951.080 142.635   9
  10   7   3 1348.73 188.096   7
  10  -7   4 3980.07 280.853  10
  10   7   4 1888.81 176.553   7
  10  -8  -9 6187.90 315.112   3
  10  -8  -9 6650.61 349.669  11
 -10  -8   9 6511.63 314.185   6
  10   8  -8 3774.19 330.906  11
  10  -8  -8 3996.24 321.588  11
  10   8  -7 1655.78 247.795  11
  10  -8  -7 1896.91 259.768  11
  10   8  -7 1713.28 250.520   9
  10   8  -6 6983.06 502.577   9
  10   8  -6 6572.42 483.272  11
  10  -8  -6 7301.41 522.787  11
  10   8  -5 1395.63 255.214  11
  10  -8  -5 2008.59 304.025  11
  10   8  -5 1656.95 291.062   9
  10   8  -4 3199.25 366.180   9
  10   8  -4 2262.72 308.462  11
  10  -8  -4 3298.32 372.311  11
  10  -8  -3 2804.17 330.981  11
  10   8  -3 3016.21 349.865   9
  10  -8  -2-5.93987 108.477  11
  10   8  -2-14.2999 134.808   9
  10   8  -1 19743.2 886.065   9
  10  -8  -1 18188.3 853.893  15
  10  -8  -1 16650.2 780.429   8
  10   8  -1 19694.2 920.906   7
  10   8   0-1.53419 123.287   9
  10   8   0 239.678 152.426   7
  10   8   1 19662.4 853.781   9
  10   8   1 21577.7 917.521   7
  10   8   2 1100.26 172.069   9
  10   8   2 1421.76 206.722   7
  10   8   3 9051.55 440.763   9
  10   8   3 9704.47 466.504   7
  10   9  -8 3233.77 255.128   9
  10  -9  -8 3205.51 257.109  11
 -10  -9   8 2455.25 177.538   6
  10   9  -7 8404.97 474.227   9
  10  -9  -7 8174.02 480.735  11
  10   9  -6 828.679 181.178  11
  10  -9  -6 575.120 173.224  11
  10   9  -6 737.768 177.975   9
  10   9  -5 3303.21 330.496   9
  10   9  -5 3214.90 313.631  11
  10  -9  -5 3231.58 338.703  11
  10   9  -4 5147.72 461.081   9
  10  -9  -4 4983.67 455.530  11
  10   9  -3 6061.54 465.505   9
  10  -9  -3 5767.36 445.747  11
  10   9  -2 4854.35 404.112   9
  10   9  -2 4105.44 378.545   7
  10  -9  -2 4354.23 358.665  11
  10   9  -1 6748.34 460.839   9
  10  -9  -1 6778.92 450.725  15
  10   9  -1 6978.67 477.641   7
  10   9   0 19828.6 846.839   9
  10  -9   0 17827.5 803.847  15
  10   9   0 20607.1 868.982   7
  10  -9   1 1871.00 219.792  15
  10   9   1 1462.08 202.497   9
  10   9   1 1349.96 197.582   7
  10   9   2 18020.3 719.020   9
  10   9   2 18232.6 710.506   7
  10  -9   3 6852.10 334.317  10
  10   9   3 152.911 69.5578   9
  10  10  -8 7449.24 350.642   9
  10 -10  -7 746.687 145.853  11
  10  10  -7 705.252 132.859   9
  10  10  -6 24878.6 965.957   9
  10 -10  -6 26077.2 1007.18  11
  10 -10  -5-103.300 123.149  11
  10  10  -5 25.5793 115.501   9
  10  10  -4 13253.1 697.766   9
  10 -10  -4 12576.2 690.940  11
  10 -10  -3 807.159 176.017  11
  10  10  -3 726.508 182.633   9
  10 -10  -2 14500.8 650.358  15
  10  10  -2 15309.7 705.743   9
  10  10  -2 14764.2 689.130   7
  10 -10  -2 13598.3 649.820  11
  10  10  -1 425.120 140.842   9
  10  10  -1 344.279 116.881   7
  10  10   0 1447.05 196.909   9
  10  10   0 1403.28 177.252   7
  10  10   1 1861.04 197.516   9
  10  10   1 1520.26 160.903   7
  10 -10   2 3243.02 206.695  15
  10  10   2 378.687 101.543   9
  10 -11  -7 1796.54 166.211  11
  10 -11  -6 260.841 104.556  11
  10  11  -6 414.921 102.370   9
  10  11  -5 8868.25 455.366   9
  10 -11  -5 9173.58 486.792  11
  10 -11  -4-195.274 120.154  11
  10  11  -4-57.3126 93.5427   9
  10  11  -4-0.73343 69.2495   7
  10  11  -3 10811.5 549.222   9
  10  11  -3 9437.55 497.366   7
  10 -11  -3 10543.4 543.573  11
  10  11  -2 13249.9 602.146   9
  10  11  -2 11657.8 537.361   7
  10 -11  -2 11986.3 554.586  11
  10 -11  -1 3652.37 256.953  15
  10  11  -1 171.419 109.323   9
  10  11   0 15307.6 616.412   9
  10 -11   0 13388.6 562.137  15
  10 -11   1 3650.77 218.280  15
  10  11   1 903.648 133.455   9
  10 -12  -5 55.0676 64.5924  11
  10  12  -5 88.8354 53.5150   9
  10  12  -4 10795.9 468.807   9
  10 -12  -4 11230.7 499.705  11
  10  12  -3 4539.03 280.269   9
  10 -12  -3 4401.09 275.527  11
  10 -12  -2 9736.86 316.083  15
  10  12  -2 1060.86 165.735   9
  10  12  -1 11101.8 488.998   9
  10 -12  -1 13160.1 472.894  15
  10 -12   0 4468.62 204.494  15
  10  12   0-36.8532 59.4718   9
  11   0 -10 398.377 93.4289  11
 -11   0  10 431.291 79.8260  12
  11   0  -9-90.9700 114.200  11
  11   0  -8 8159.18 508.072  11
  11   0  -7-201.520 158.912  11
  11   0  -6 3275.78 353.909  11
  11   0  -5 9.91705 137.889  11
  11   0  -4 37668.6 1465.89  11
  11   0  -3-122.126 138.087  11
  11   0  -3 106.658 116.693   7
  11   0  -2 42857.8 1631.61   8
  11   0  -2 41584.1 1594.24   7
  11   0  -1-170.552 209.356   8
  11   0  -1 157.571 129.223   7
  11   0   0 18171.3 877.654   8
  11   0   0 18830.8 896.918   7
  11   0   1 2058.54 280.467   8
  11   0   1 41.6297 110.611   7
  11   0   2 12267.4 561.158   8
  11   0   2 5652.94 428.185   7
  11   0   3-63.0375 79.2799   7
  11   1 -10 5379.08 295.608  11
  11  -1 -10 5129.29 283.114  11
  11   1  -9 46.7615 94.5266  11
  11  -1  -9 154.160 106.986  11
  11   1  -8 20121.2 886.363  11
  11  -1  -8 20521.8 892.375  11
  11   1  -7 1136.28 224.423  11
  11  -1  -7 966.077 212.402  11
  11   1  -6 1395.97 247.269  11
  11  -1  -6 1425.23 269.835  11
  11   1  -5 23140.3 1059.18  11
  11  -1  -5 24701.6 1100.31  11
  11   1  -4 801.960 182.659  11
  11  -1  -4 1101.00 224.557  11
  11  -1  -4 589.786 158.909   7
  11  -1  -3 6030.02 440.694   7
  11   1  -3 5532.83 419.935  11
  11  -1  -3 5868.88 449.824  11
  11   1  -2 1546.55 279.039   8
  11  -1  -2 1540.87 283.882   8
  11  -1  -2 1736.59 241.997   7
  11   1  -2 1680.58 274.545   7
  11   1  -1 2114.27 289.903   8
  11  -1  -1 2087.97 291.056   8
  11  -1  -1 2478.78 287.162   7
  11   1  -1 2275.37 309.534   7
  11   1   0 8129.60 548.071   8
  11  -1   0 8076.72 541.728   8
  11  -1   0 8501.49 531.321   7
  11   1   0 8490.10 576.807   7
  11  -1   1 1623.30 226.044   7
  11   1   1 1738.64 257.569   7
  11   1   2 16788.2 646.262   8
  11  -1   2 13367.9 620.418   8
  11  -1   2 7681.26 491.003   7
  11   1   2 8896.27 552.046   7
  11  -1   3 4822.07 304.704   7
  11   1   3 5266.69 350.034   7
  11   2 -10-17.3184 61.1986  11
 -11  -2   9 18756.3 698.229  12
  11   2  -9 21242.2 827.908  11
  11  -2  -9 21362.2 824.268  11
  11   2  -8 1453.36 216.996  11
  11  -2  -8 1493.15 224.330  11
  11   2  -7 1331.43 228.170  11
  11  -2  -7 1572.59 255.441  11
  11   2  -7 1326.89 186.913   9
  11   2  -6 503.691 171.025  11
  11  -2  -6 795.668 218.724  11
  11   2  -6 279.243 112.624   9
  11   2  -5 12243.5 636.879   9
  11   2  -5 12231.5 701.301  11
  11  -2  -5 13919.4 761.913  11
  11   2  -4 2641.75 307.215  11
  11   2  -4 2953.01 286.416   9
  11  -2  -4 3254.97 352.747  11
  11   2  -3 2673.03 335.263   8
  11  -2  -3 3032.46 323.277  11
  11   2  -2-131.188 228.612   8
  11  -2  -2 60.4350 220.386   8
  11   2  -2 491.753 185.787   7
  11   2  -1 2588.93 300.724   8
  11  -2  -1 2740.61 346.467   8
  11  -2  -1 2660.25 272.807   7
  11   2  -1 3230.74 359.926   7
  11   2   0 2178.83 280.428   8
  11  -2   0 1835.53 276.317   8
  11  -2   0 2310.10 247.923   7
  11   2   0 2674.33 324.651   7
  11  -2   1 11402.9 631.940   8
  11   2   1 11385.4 668.311   7
  11   2   2 13340.9 554.563   8
  11  -2   2 9638.92 503.893   8
  11   2   3 17366.1 730.842   7
  11   3  -9 1079.39 163.472  11
  11  -3  -9 1023.51 156.005  11
  11   3  -9 972.565 127.558   9
 -11  -3   9 667.504 90.7084  12
  11   3  -8 721.687 167.135  11
  11  -3  -8 722.764 169.861  11
 -11  -3   8 535.486 94.0749  12
  11   3  -7 23310.1 975.630  11
  11  -3  -7 24458.3 1007.36  11
  11   3  -6 2312.87 293.328  11
  11  -3  -6 2047.48 289.594  11
  11   3  -6 1845.49 229.463   9
  11   3  -5 10697.7 601.833   9
  11   3  -5 11244.9 649.751  11
  11  -3  -5 12206.4 701.852  11
  11   3  -4 163.502 126.131  11
  11  -3  -4 79.0126 132.319  11
  11   3  -4 90.6229 102.192   9
  11   3  -4-133.471 174.475   8
  11   3  -3 16199.0 771.829   9
  11   3  -3 17533.4 843.797   8
  11  -3  -3 16888.4 822.682  11
  11   3  -2 204.037 112.865   9
  11   3  -2 70.2916 175.914   8
  11  -3  -2 332.604 183.953   8
  11   3  -2 351.489 187.500   7
  11   3  -1 20606.4 1016.51   8
  11  -3  -1 22384.7 1088.31   8
  11   3  -1 23271.9 1123.86   7
  11  -3   0 386.112 177.508   8
  11   3   0 488.649 204.980   7
  11  -3   1 4845.14 384.065   8
  11   3   1 3687.73 369.227   7
  11   3   2 14937.5 571.494   8
  11  -3   2 11232.0 521.024   8
  11   3   3 4547.09 318.676   7
  11   4  -9 3103.37 225.367   9
  11   4  -9 3251.70 258.303  11
  11  -4  -9 3292.89 255.611  11
  11   4  -8 6023.11 380.483   9
  11   4  -8 6846.24 428.930  11
  11  -4  -8 6578.21 427.919  11
  11   4  -7 7374.98 456.725   9
  11   4  -7 8019.12 503.974  11
  11  -4  -7 7921.65 514.745  11
  11   4  -6 2914.01 292.326   9
  11   4  -6 3156.09 331.298  11
  11  -4  -6 3722.78 370.008  11
  11   4  -5 338.911 149.102  11
  11  -4  -5 344.738 176.673  11
  11   4  -5 253.629 136.853   9
  11   4  -4 24043.3 989.919   9
  11   4  -4 23583.1 965.350   8
  11  -4  -4 24513.8 1049.85  11
  11  -4  -3 38.3235 127.150  11
  11   4  -3 22.8910 115.076   9
  11   4  -2 6910.23 472.907   9
  11   4  -2 6270.87 469.759   8
  11  -4  -2 7209.88 552.467   8
  11   4  -2 7264.07 565.732   7
  11   4  -1 635.756 154.511   9
  11   4  -1 698.893 189.783   8
  11  -4  -1 237.327 157.221   8
  11   4  -1 804.173 214.108   7
  11   4   0 12381.8 651.673   8
  11  -4   0 10798.2 661.162   8
  11   4   0 12149.1 726.656   7
  11  -4   1 10850.7 601.650   8
  11   4   1 10268.6 638.041   7
  11  -4   2 14462.7 554.338   8
  11   4   2 7821.85 516.999   7
  11   4   3 5114.57 322.773   7
  11   5  -9 2442.78 190.482   9
  11   5  -9 2302.14 205.107  11
  11  -5  -9 2305.98 196.394  11
  11   5  -8 10152.2 504.986   9
  11   5  -8 9929.71 527.869  11
  11  -5  -8 10301.0 536.392  11
  11   5  -7 13.3531 103.959  11
  11  -5  -7 80.2299 126.015  11
  11   5  -7-54.1263 108.278   9
  11   5  -6 3496.06 317.131   9
  11   5  -6 3486.36 334.232  11
  11  -5  -6 4119.58 376.038  11
  11   5  -5 5126.51 393.085   9
  11   5  -5 4495.40 382.059  11
  11  -5  -5 5792.45 446.159  11
  11   5  -4 94.3906 105.948  11
  11  -5  -4 5.67597 125.511  11
  11   5  -4 74.4220 118.850   9
  11   5  -3 2848.20 315.734   9
  11  -5  -3 2825.20 317.756  11
  11   5  -2 287.164 133.333   9
  11   5  -2 791.969 166.032   8
  11  -5  -2 12.4930 178.196   8
  11   5  -2 522.313 180.942   7
  11   5  -1-30.2785 93.4240   9
  11  -5  -1-358.022 203.133   8
  11   5  -1-35.1190 147.661   7
  11   5   0 5928.03 390.717   9
  11   5   0 6379.87 404.120   8
  11  -5   0 5289.00 413.183   8
  11   5   0 6152.49 473.755   7
  11  -5   1 2523.11 259.555   8
  11   5   1 204.727 166.903   7
  11  -5   2 18868.8 659.796   8
  11   5   2 17368.2 758.603   7
  11   5   3 1200.28 146.644   7
  11   6  -9 5815.44 309.681  11
  11   6  -8 6737.47 377.885   9
  11   6  -8 6367.48 387.963  11
  11  -6  -8 7456.91 408.887  11
  11   6  -7 3685.43 299.534   9
  11   6  -7 3641.97 308.452  11
  11  -6  -7 3824.74 324.866  11
  11   6  -6 7136.34 442.918   9
  11   6  -6 6189.05 433.901  11
  11  -6  -6 7139.48 473.192  11
  11   6  -5-71.6808 90.3841  11
  11  -6  -5-6.93038 134.233  11
  11   6  -5-61.5299 113.184   9
  11   6  -4 11912.6 624.462   9
  11  -6  -4 11930.9 639.184  11
  11  -6  -3 342.593 136.483  11
  11   6  -3 452.802 158.668   9
  11   6  -2 9688.04 576.640   9
  11  -6  -2 8981.09 582.359   8
  11   6  -2 9610.27 630.889   7
  11   6  -1 216.190 117.994   9
  11   6  -1 91.3737 139.329   7
  11   6   0 7120.66 435.123   9
  11  -6   0 6357.73 420.741   8
  11   6   0 7459.61 504.552   7
  11   6   1 3372.78 271.287   9
  11   6   1 3900.40 339.139   7
  11   6   2 2741.94 235.205   7
  11   7  -8 4884.24 289.351   9
  11   7  -8 4121.23 280.540  11
  11  -7  -8 4664.85 288.450  11
  11   7  -7 3780.62 282.202   9
  11   7  -7 3051.24 265.758  11
  11  -7  -7 3598.34 290.462  11
  11   7  -6-61.6060 103.842  11
  11  -7  -6 222.929 135.247  11
  11   7  -6 6.80828 96.2330   9
  11   7  -5 24560.0 936.048   9
  11  -7  -5 24266.9 949.866  11
  11  -7  -4 92.2056 117.967  11
  11   7  -4-9.52585 104.072   9
  11   7  -3 13637.2 682.158   9
  11  -7  -3 12562.9 661.326   8
  11   7  -3 14263.3 737.904   7
  11  -7  -3 12076.1 639.047  11
  11   7  -2 588.042 149.789   9
  11   7  -2 781.529 185.716   7
  11   7  -1 10862.4 563.137   9
  11   7  -1 10946.3 619.550   7
  11   7   0 122.246 98.0692   9
  11   7   0 99.6228 115.122   7
  11   7   1 10055.8 487.640   9
  11   7   1 11549.9 568.434   7
  11   7   2 62.7831 56.8453   7
  11   8  -7 2667.57 215.755   9
  11  -8  -7 2437.39 217.925  11
  11   8  -6 4325.67 307.980   9
  11  -8  -6 4398.04 317.512  11
  11   8  -5 2352.48 236.968   9
  11  -8  -5 2364.07 242.149  11
  11  -8  -4 1550.26 194.227  11
  11   8  -4 2008.45 222.190   9
  11  -8  -4 1439.47 171.757   8
  11  -8  -3-10.0691 85.2493  11
  11   8  -3 61.1004 106.417   7
  11   8  -2 218.762 119.906   9
  11   8  -2 235.401 134.486   7
  11   8  -1 7204.45 446.922   9
  11   8  -1 7552.96 480.521   7
  11   8   0 1404.65 179.152   9
  11   8   0 1596.00 202.979   7
  11  -8   1 9031.35 293.497  15
  11   8   1 707.078 132.504   7
  11  -9  -6 664.670 122.563  11
  11   9  -6 891.314 130.955   9
  11   9  -5 2515.18 220.822   9
  11  -9  -5 2404.98 215.964  11
  11   9  -4 2442.06 223.723   9
  11   9  -4 2241.38 220.549   7
  11  -9  -4 2008.50 195.245  11
  11   9  -3 966.493 169.190   9
  11   9  -3 928.604 173.900   7
  11   9  -2 2698.03 251.892   9
  11   9  -2 2425.53 246.707   7
  11   9  -1 5263.41 343.254   9
  11   9  -1 4927.94 340.310   7
  11   9   0 1715.85 187.661   9
  11  -9   0 11852.5 346.170  15
  11  10  -5 334.249 80.0034   9
  11  10  -4 11833.6 493.147   9
  11  10  -3 207.218 83.6696   9
  11 -10  -2 13924.4 432.023  15
  11  10  -2 7421.92 411.597   9
  12   0  -8 1767.71 171.103  11
  12   0  -7 147.220 91.6413  11
  12   0  -6 433.556 119.151  11
  12   0  -5-130.678 101.479  11
  12   0  -5-436.370 161.707   8
  12   0  -4 11461.8 597.729   8
  12   0  -3-250.681 159.808   8
  12   0  -2 32906.0 1207.73   8
  12   0  -1 409.706 146.786   8
  12   0   0 16752.8 682.240   8
  12   0   1 8349.38 392.525   8
  12   1  -8 15878.4 622.207  11
  12  -1  -8 16341.6 628.572  11
  12   1  -7-20.7019 83.7735  11
  12  -1  -7-73.0118 93.2569  11
  12   1  -7-272.034 87.5359   8
  12   1  -6 983.157 151.881  11
  12  -1  -6 1052.71 169.021  11
  12   1  -6 767.996 138.894   8
  12   1  -5 3689.11 297.392   8
  12   1  -5 3350.37 267.775  11
  12  -1  -5 3581.05 283.579  11
  12   1  -4 8405.43 481.293   8
  12  -1  -4 7962.38 483.705   8
  12   1  -4 7763.36 436.277   7
  12   1  -3 5893.15 400.525   8
  12  -1  -3 5763.87 409.380   8
  12   1  -3 5956.49 381.872   7
  12   1  -2 1189.92 179.613   8
  12  -1  -2 1127.50 183.647   8
  12   1  -2 1426.77 186.601   7
  12   1  -1 9683.47 493.772   8
  12  -1  -1 9005.99 497.974   8
  12   1  -1 8957.93 483.112   7
  12   1   0 6868.10 361.705   8
  12  -1   0 5808.58 357.169   8
  12   1   1 11353.3 452.682   8
  12  -1   1 9646.17 441.878   8
  12   2  -8 260.425 82.3688  11
  12  -2  -8 105.084 68.4596  11
  12   2  -7 7891.99 417.391  11
  12  -2  -7 8639.02 437.372  11
  12   2  -6 1876.41 181.025   8
  12   2  -6 2364.26 222.599  11
  12  -2  -6 2491.16 233.152  11
  12   2  -5 11415.5 528.644   8
  12   2  -5 9991.77 500.977   7
  12  -2  -5 10397.9 517.111  11
  12   2  -4-224.956 135.381   8
  12  -2  -4-294.362 161.021   8
  12   2  -4 1.21199 88.6559   7
  12   2  -3 7902.14 452.847   8
  12  -2  -3 8067.67 490.097   8
  12   2  -3 7549.06 453.859   7
  12   2  -2 2489.04 240.622   8
  12  -2  -2 2529.67 268.741   8
  12   2  -2 2782.95 264.248   7
  12  -2  -1 318.754 136.305   8
  12   2  -1 155.660 97.5240   7
  12   2   0 5473.09 294.564   8
  12  -2   0 3195.26 261.665   8
  12  -2   1 17143.2 624.275   8
  12   3  -7 5239.49 317.082  11
  12  -3  -7 5693.93 332.110  11
  12   3  -6-73.2113 72.4597  11
  12  -3  -6 117.802 93.0463  11
  12   3  -6 201.095 80.9231   7
  12   3  -5 2901.89 248.767   7
  12  -3  -5 2630.33 236.512  11
  12   3  -4 2957.48 236.713   8
  12  -3  -4 3460.38 304.594   8
  12   3  -4 3684.39 292.660   7
  12   3  -3 11507.6 544.774   8
  12  -3  -3 13479.2 639.242   8
  12   3  -3 12842.6 617.831   7
  12   3  -2 992.730 159.455   8
  12   3  -2 644.120 150.976   7
  12   3  -1 14970.4 613.614   8
  12  -3  -1 15930.9 687.993   8
  12   3   0 3556.83 218.788   8
  12  -3   0 2885.66 232.945   8
  12   4  -7 1816.74 168.679  11
  12  -4  -7 2371.02 194.163  11
  12   4  -6 1442.64 159.949  11
  12   4  -6 1868.48 182.673   7
  12  -4  -6 2089.64 195.865  11
  12   4  -5 2385.07 225.155   7
  12  -4  -5 1974.80 194.174  11
  12  -4  -4 10602.6 534.447   8
  12   4  -4 9371.27 504.111   7
  12  -4  -3 359.143 127.108   8
  12   4  -3 684.449 146.149   7
  12  -4  -2 5291.14 353.923   8
  12   4  -2 5424.85 368.000   7
  12  -4  -1 777.606 143.954   8
  12   4  -1 494.505 114.903   7
  12  -4   0 14773.9 579.345   8
  12   4   0 17259.5 665.260   7
  12   5  -6 13672.8 563.949   7
  12  -5  -6 13689.8 555.650  11
  12  -5  -5 4.87357 60.7428  11
  12  -5  -5-106.071 107.748   8
  12  -5  -4 3988.84 292.316   8
  12   5  -4 4295.38 308.497   7
  12  -5  -3 727.498 140.415   8
  12   5  -3 1542.19 188.483   7
  12  -5  -2 288.510 98.0990   8
  12   5  -2 831.564 150.915   7
  12  -5  -1 1291.25 147.864   8
  12   5  -1 587.782 128.293   7
  12   5   0 270.171 83.4116   7
  12   6  -6 5991.21 312.122   7
  12  -6  -5 4675.85 279.248   8
  12   6  -5 5554.26 318.975   7
  12  -6  -4 87.1331 75.4751   8
  12   6  -4 564.117 122.772   7
  12  -6  -3-144.516 85.6956   8
  12   6  -3-33.6924 84.0977   7
  12   6  -2 16481.6 668.138   7
  12   6  -1 479.069 103.369   7
  12   7  -4 391.264 90.2660   7
  12   7  -3 15813.2 615.387   7
   0   0   0    0.00    0.00   0

TITL jmwtf67 in P2(1)/c
REM P2(1)/c (#14 in standard setting)
CELL 1.54184  10.161027  16.050601  11.429996  90.0000 104.6217  90.0000
ZERR    4.00   0.000188   0.000306   0.000219   0.0000   0.0019   0.0000
LATT  1
SYMM -x, y+1/2,-z+1/2
SFAC C H N O Se
UNIT 84.00 96.00 8.00 4.00 4.00
TREF
HKLF 4
END
;
_shelx_hkl_checksum   14978

