data_tf-1a
_audit_creation_date               2019-10-30
_audit_creation_method
;
Olex2 1.2
(compiled May 18 2018 14:05:52 for OlexSys, GUI svn.r5506)
;
_shelx_SHELXL_version_number       '2018/3'
_audit_contact_author_address      ?
_audit_contact_author_email        ?
_audit_contact_author_name         ''
_audit_contact_author_phone        ?
_publ_contact_author_id_orcid      ?
_publ_section_references
;
Dolomanov, O.V., Bourhis, L.J., Gildea, R.J, Howard, J.A.K. & Puschmann, H.
 (2009), J. Appl. Cryst. 42, 339-341.

Sheldrick, G.M. (2015). Acta Cryst. A71, 3-8.

Sheldrick, G.M. (2015). Acta Cryst. C71, 3-8.
;
_chemical_name_common              ?
_chemical_name_systematic          ?
_chemical_formula_moiety           '2(C14 H8 F3 N O Se)'
_chemical_formula_sum              'C28 H16 F6 N2 O2 Se2'
_chemical_formula_weight           684.35
_chemical_melting_point            ?
loop_
  _atom_type_symbol
  _atom_type_description
  _atom_type_scat_dispersion_real
  _atom_type_scat_dispersion_imag
  _atom_type_scat_source
 'C' 'C' 0.0181 0.0091 'International Tables Vol C Tables 4.2.6.8 and 6.1.1.4'
 'H' 'H' 0.0000 0.0000 'International Tables Vol C Tables 4.2.6.8 and 6.1.1.4'
 'F' 'F' 0.0727 0.0534 'International Tables Vol C Tables 4.2.6.8 and 6.1.1.4'
 'N' 'N' 0.0311 0.0180 'International Tables Vol C Tables 4.2.6.8 and 6.1.1.4'
 'O' 'O' 0.0492 0.0322 'International Tables Vol C Tables 4.2.6.8 and 6.1.1.4'
 'Se' 'Se' -0.7943 1.1372
 'International Tables Vol C Tables 4.2.6.8 and 6.1.1.4'

_shelx_space_group_comment
;
The symmetry employed for this shelxl refinement is uniquely defined
by the following loop, which should always be used as a source of
symmetry information in preference to the above space-group names.
They are only intended as comments.
;
_space_group_crystal_system        'monoclinic'
_space_group_IT_number             14
_space_group_name_H-M_alt          'P 1 21/c 1'
_space_group_name_Hall             '-P 2ybc'
loop_
  _space_group_symop_operation_xyz
 'x, y, z'
 '-x, y+1/2, -z+1/2'
 '-x, -y, -z'
 'x, -y-1/2, z-1/2'

_cell_length_a                     7.54860(10)
_cell_length_b                     11.7195(2)
_cell_length_c                     27.6207(5)
_cell_angle_alpha                  90
_cell_angle_beta                   90.998(2)
_cell_angle_gamma                  90
_cell_volume                       2443.12(7)
_cell_formula_units_Z              4
_cell_measurement_reflns_used      ?
_cell_measurement_temperature      293(2)
_cell_measurement_theta_max        ?
_cell_measurement_theta_min        ?
_shelx_estimated_absorpt_T_max     ?
_shelx_estimated_absorpt_T_min     ?
_exptl_absorpt_coefficient_mu      4.497
_exptl_absorpt_correction_T_max    ?
_exptl_absorpt_correction_T_min    ?
_exptl_absorpt_correction_type     ?
_exptl_absorpt_process_details     ?
_exptl_absorpt_special_details     ?
_exptl_crystal_colour              ?
_exptl_crystal_density_diffrn      1.861
_exptl_crystal_density_meas        ?
_exptl_crystal_density_method      ?
_exptl_crystal_description         ?
_exptl_crystal_F_000               1344
_exptl_crystal_size_max            0.135
_exptl_crystal_size_mid            0.1
_exptl_crystal_size_min            0.022
_exptl_transmission_factor_max     ?
_exptl_transmission_factor_min     ?
_diffrn_reflns_av_R_equivalents    0.0408
_diffrn_reflns_av_unetI/netI       0.0396
_diffrn_reflns_Laue_measured_fraction_full  0.995
_diffrn_reflns_Laue_measured_fraction_max  0.971
_diffrn_reflns_limit_h_max         9
_diffrn_reflns_limit_h_min         -9
_diffrn_reflns_limit_k_max         12
_diffrn_reflns_limit_k_min         -14
_diffrn_reflns_limit_l_max         34
_diffrn_reflns_limit_l_min         -32
_diffrn_reflns_number              15455
_diffrn_reflns_point_group_measured_fraction_full  0.995
_diffrn_reflns_point_group_measured_fraction_max  0.971
_diffrn_reflns_theta_full          67.684
_diffrn_reflns_theta_max           77.301
_diffrn_reflns_theta_min           3.201
_diffrn_ambient_temperature        293(2)
_diffrn_detector_area_resol_mean   ?
_diffrn_measured_fraction_theta_full  0.995
_diffrn_measured_fraction_theta_max  0.971
_diffrn_measurement_device_type    ?
_diffrn_measurement_method         ?
_diffrn_radiation_type             CuK\a
_diffrn_radiation_wavelength       1.54184
_diffrn_source                     ?
_reflns_Friedel_coverage           0.000
_reflns_Friedel_fraction_full      .
_reflns_Friedel_fraction_max       .
_reflns_number_gt                  4332
_reflns_number_total               5042
_reflns_special_details
;
 Reflections were merged by SHELXL according to the crystal
 class for the calculation of statistics and refinement.
 
 _reflns_Friedel_fraction is defined as the number of unique
 Friedel pairs measured divided by the number that would be
 possible theoretically, ignoring centric projections and
 systematic absences.
;
_reflns_threshold_expression       'I > 2\s(I)'
_computing_cell_refinement         ?
_computing_data_collection         ?
_computing_data_reduction          ?
_computing_molecular_graphics      'Olex2 (Dolomanov et al., 2009)'
_computing_publication_material    'Olex2 (Dolomanov et al., 2009)'
_computing_structure_refinement    'ShelXL (Sheldrick, 2015)'
_computing_structure_solution      'ShelXT (Sheldrick, 2015)'
_refine_diff_density_max           3.151
_refine_diff_density_min           -1.494
_refine_diff_density_rms           0.233
_refine_ls_extinction_coef         .
_refine_ls_extinction_method       none
_refine_ls_goodness_of_fit_ref     1.148
_refine_ls_hydrogen_treatment      constr
_refine_ls_matrix_type             full
_refine_ls_number_parameters       356
_refine_ls_number_reflns           5042
_refine_ls_number_restraints       0
_refine_ls_R_factor_all            0.1024
_refine_ls_R_factor_gt             0.0957
_refine_ls_restrained_S_all        1.148
_refine_ls_shift/su_max            0.001
_refine_ls_shift/su_mean           0.000
_refine_ls_structure_factor_coef   Fsqd
_refine_ls_weighting_details      
 'w=1/[\s^2^(Fo^2^)+(0.0493P)^2^+85.2586P] where P=(Fo^2^+2Fc^2^)/3'
_refine_ls_weighting_scheme        calc
_refine_ls_wR_factor_gt            0.2489
_refine_ls_wR_factor_ref           0.2515
_refine_special_details            ?
_olex2_refinement_description
;
1. Fixed Uiso
 At 1.2 times of:
  All C(H) groups
2.a Aromatic/amide H refined with riding coordinates:
 C00G(H00G), C00K(H00K), C00L(H00L), C00N(H00N), C00O(H00O), C00P(H00P),
 C00Q(H00Q), C00S(H00S), C00T(H00T), C00U(H00U), C00V(H00V), C00W(H00W),
 C00X(H00X), C00Y(H00Y), C00Z(H00Z), C014(H014)
;
_atom_sites_solution_hydrogens     geom
_atom_sites_solution_primary       dual
_atom_sites_solution_secondary     ?
loop_
  _atom_site_label
  _atom_site_type_symbol
  _atom_site_fract_x
  _atom_site_fract_y
  _atom_site_fract_z
  _atom_site_U_iso_or_equiv
  _atom_site_adp_type
  _atom_site_occupancy
  _atom_site_site_symmetry_order
  _atom_site_calc_flag
  _atom_site_refinement_flags_posn
  _atom_site_refinement_flags_adp
  _atom_site_refinement_flags_occupancy
  _atom_site_disorder_assembly
  _atom_site_disorder_group
 Se01 Se 1.00866(13) 0.45810(8) 0.26805(3) 0.0163(3) Uani 1 1 d . . . . .
 Se02 Se 0.50912(14) 0.99584(8) 0.26888(4) 0.0166(3) Uani 1 1 d . . . . .
 F003 F 0.0374(9) 0.8815(6) 0.4954(3) 0.0394(17) Uani 1 1 d . . . . .
 O004 O 0.8261(10) 0.7763(6) 0.2671(3) 0.0231(15) Uani 1 1 d . . . . .
 O005 O 0.3281(10) 0.6777(6) 0.2679(3) 0.0256(16) Uani 1 1 d . . . . .
 F006 F 0.2132(10) 0.7427(7) 0.5100(3) 0.0445(19) Uani 1 1 d . . . . .
 F007 F 0.5642(11) 0.6543(9) 0.4987(3) 0.059(3) Uani 1 1 d . . . . .
 F008 F 0.7279(13) 0.5090(7) 0.5121(3) 0.054(2) Uani 1 1 d . . . . .
 F009 F 0.8376(12) 0.6751(9) 0.5158(3) 0.059(3) Uani 1 1 d . . . . .
 F00A F 0.3059(13) 0.9139(9) 0.5190(3) 0.067(3) Uani 1 1 d . . . . .
 N00B N 0.9040(11) 0.5927(8) 0.2911(3) 0.0213(17) Uani 1 1 d . . . . .
 N00C N 0.4032(11) 0.8601(7) 0.2922(3) 0.0205(17) Uani 1 1 d . . . . .
 C00D C 0.5025(12) 0.9233(8) 0.2073(3) 0.0141(17) Uiso 1 1 d . . . . .
 C00E C 0.3802(12) 0.7747(9) 0.2587(3) 0.0193(19) Uani 1 1 d . . . . .
 C00F C 0.8798(14) 0.6793(9) 0.2578(4) 0.022(2) Uani 1 1 d . . . . .
 C00G C 0.4228(14) 0.9355(9) 0.3736(4) 0.022(2) Uani 1 1 d . . . . .
 H00G H 0.499269 0.991709 0.362642 0.026 Uiso 1 1 calc R . . . .
 C00H C 0.9284(12) 0.6390(9) 0.2093(4) 0.0181(19) Uani 1 1 d . . . . .
 C00I C 1.0033(13) 0.5294(9) 0.2067(3) 0.020(2) Uani 1 1 d . . . . .
 C00J C 0.3564(13) 0.8541(9) 0.3415(4) 0.020(2) Uani 1 1 d . . . . .
 C00K C 0.9227(14) 0.5181(9) 0.3728(4) 0.024(2) Uani 1 1 d . . . . .
 H00K H 0.998829 0.461789 0.361758 0.029 Uiso 1 1 calc R . . . .
 C00L C 1.0579(13) 0.4837(9) 0.1633(4) 0.022(2) Uani 1 1 d . . . . .
 H00L H 1.107936 0.411273 0.162105 0.027 Uiso 1 1 calc R . . . .
 C00M C 0.4290(14) 0.8153(9) 0.2101(4) 0.022(2) Uani 1 1 d . . . . .
 C00N C 0.5348(15) 0.9058(9) 0.1230(4) 0.025(2) Uani 1 1 d . . . . .
 H00N H 0.571481 0.934820 0.093512 0.030 Uiso 1 1 calc R . . . .
 C00O C 0.2394(14) 0.7715(10) 0.3586(4) 0.025(2) Uani 1 1 d . . . . .
 H00O H 0.191143 0.717675 0.337489 0.030 Uiso 1 1 calc R . . . .
 C00P C 0.4034(13) 0.7530(9) 0.1679(3) 0.021(2) Uani 1 1 d . . . . .
 H00P H 0.350833 0.681323 0.169104 0.025 Uiso 1 1 calc R . . . .
 C00Q C 0.1955(14) 0.7697(9) 0.4070(4) 0.025(2) Uani 1 1 d . . . . .
 H00Q H 0.118832 0.713740 0.418094 0.030 Uiso 1 1 calc R . . . .
 C00R C 0.8566(13) 0.5993(9) 0.3408(4) 0.021(2) Uani 1 1 d . . . . .
 C00S C 1.0361(15) 0.5485(9) 0.1219(4) 0.025(2) Uani 1 1 d . . . . .
 H00S H 1.073277 0.519326 0.092438 0.030 Uiso 1 1 calc R . . . .
 C00T C 0.7408(13) 0.6834(9) 0.3582(4) 0.023(2) Uani 1 1 d . . . . .
 H00T H 0.695216 0.738262 0.337043 0.027 Uiso 1 1 calc R . . . .
 C00U C 0.9589(16) 0.6575(9) 0.1233(4) 0.027(2) Uani 1 1 d . . . . .
 H00U H 0.945271 0.699538 0.094906 0.032 Uiso 1 1 calc R . . . .
 C00V C 0.5598(13) 0.9713(9) 0.1642(4) 0.021(2) Uani 1 1 d . . . . .
 H00V H 0.611926 1.043156 0.163188 0.025 Uiso 1 1 calc R . . . .
 C00W C 0.8762(14) 0.5201(9) 0.4212(4) 0.024(2) Uani 1 1 d . . . . .
 H00W H 0.919558 0.464336 0.442267 0.029 Uiso 1 1 calc R . . . .
 C00X C 0.4563(15) 0.7976(9) 0.1239(4) 0.026(2) Uani 1 1 d . . . . .
 H00X H 0.439888 0.756232 0.095488 0.031 Uiso 1 1 calc R . . . .
 C00Y C 0.6945(13) 0.6852(9) 0.4061(4) 0.024(2) Uani 1 1 d . . . . .
 H00Y H 0.615844 0.740160 0.417129 0.028 Uiso 1 1 calc R . . . .
 C00Z C 0.9031(15) 0.7026(10) 0.1668(4) 0.028(2) Uani 1 1 d . . . . .
 H00Z H 0.849549 0.773971 0.167842 0.033 Uiso 1 1 calc R . . . .
 C010 C 0.7227(14) 0.6111(10) 0.4907(4) 0.028(2) Uani 1 1 d . . . . .
 C011 C 0.2059(16) 0.8478(10) 0.4906(4) 0.030(2) Uani 1 1 d . . . . .
 C012 C 0.7653(13) 0.6048(9) 0.4383(4) 0.024(2) Uani 1 1 d . . . . .
 C013 C 0.2636(14) 0.8499(10) 0.4394(4) 0.025(2) Uani 1 1 d . . . . .
 C014 C 0.3756(15) 0.9336(9) 0.4221(4) 0.025(2) Uani 1 1 d . . . . .
 H014 H 0.419840 0.989107 0.443134 0.031 Uiso 1 1 calc R . . . .

loop_
  _atom_site_aniso_label
  _atom_site_aniso_U_11
  _atom_site_aniso_U_22
  _atom_site_aniso_U_33
  _atom_site_aniso_U_23
  _atom_site_aniso_U_13
  _atom_site_aniso_U_12
 Se01 0.0197(5) 0.0112(5) 0.0181(5) 0.0002(4) 0.0002(4) 0.0001(4)
 Se02 0.0210(5) 0.0114(5) 0.0173(5) -0.0004(4) 0.0007(4) -0.0003(4)
 F003 0.041(4) 0.042(4) 0.036(4) 0.005(3) 0.016(3) 0.014(3)
 O004 0.028(4) 0.016(4) 0.025(4) 0.001(3) 0.001(3) 0.005(3)
 O005 0.035(4) 0.017(4) 0.024(4) 0.000(3) 0.000(3) -0.001(3)
 F006 0.045(4) 0.054(5) 0.035(4) 0.011(3) 0.011(3) 0.016(4)
 F007 0.043(4) 0.108(8) 0.024(4) 0.009(4) 0.010(3) 0.034(5)
 F008 0.085(6) 0.035(4) 0.042(4) 0.013(3) 0.018(4) 0.007(4)
 F009 0.069(6) 0.083(7) 0.027(4) -0.016(4) 0.004(4) -0.039(5)
 F00A 0.077(6) 0.097(7) 0.028(4) -0.015(4) 0.009(4) -0.059(6)
 N00B 0.015(4) 0.023(4) 0.026(4) 0.007(3) 0.000(3) -0.001(3)
 N00C 0.024(4) 0.016(4) 0.022(4) -0.001(3) 0.002(3) 0.001(3)
 C00E 0.013(4) 0.023(5) 0.021(5) -0.002(4) -0.004(4) -0.003(4)
 C00F 0.026(5) 0.020(5) 0.021(5) 0.004(4) -0.003(4) -0.007(4)
 C00G 0.024(5) 0.018(5) 0.023(5) 0.000(4) 0.001(4) -0.004(4)
 C00H 0.007(4) 0.022(5) 0.025(5) 0.000(4) -0.001(3) -0.003(3)
 C00I 0.023(5) 0.020(5) 0.018(5) 0.002(4) 0.003(4) -0.008(4)
 C00J 0.019(5) 0.019(5) 0.022(5) 0.001(4) 0.000(4) 0.002(4)
 C00K 0.030(6) 0.014(5) 0.027(5) 0.001(4) 0.000(4) 0.005(4)
 C00L 0.021(5) 0.020(5) 0.025(5) 0.000(4) -0.002(4) -0.002(4)
 C00M 0.024(5) 0.023(5) 0.020(5) 0.004(4) -0.004(4) 0.008(4)
 C00N 0.036(6) 0.021(5) 0.018(5) 0.005(4) -0.001(4) 0.002(4)
 C00O 0.025(5) 0.026(6) 0.024(5) -0.001(4) -0.001(4) -0.002(4)
 C00P 0.019(5) 0.023(5) 0.021(5) -0.002(4) -0.004(4) -0.003(4)
 C00Q 0.026(5) 0.023(5) 0.026(5) -0.003(4) 0.003(4) -0.004(4)
 C00R 0.020(5) 0.019(5) 0.023(5) 0.004(4) -0.001(4) -0.002(4)
 C00S 0.035(6) 0.020(5) 0.019(5) -0.003(4) 0.001(4) -0.006(4)
 C00T 0.019(5) 0.025(5) 0.024(5) 0.002(4) -0.004(4) 0.002(4)
 C00U 0.041(6) 0.020(5) 0.020(5) 0.004(4) -0.002(4) -0.007(5)
 C00V 0.021(5) 0.018(5) 0.025(5) 0.002(4) 0.001(4) 0.001(4)
 C00W 0.025(5) 0.024(5) 0.024(5) 0.004(4) -0.002(4) -0.004(4)
 C00X 0.035(6) 0.022(5) 0.021(5) -0.003(4) -0.005(4) 0.001(4)
 C00Y 0.016(5) 0.024(5) 0.030(5) -0.002(4) 0.000(4) -0.001(4)
 C00Z 0.035(6) 0.024(6) 0.024(5) 0.004(4) -0.005(4) 0.001(5)
 C010 0.020(5) 0.027(6) 0.036(6) 0.000(5) 0.002(4) -0.007(4)
 C011 0.033(6) 0.027(6) 0.030(6) -0.001(5) 0.002(5) -0.006(5)
 C012 0.020(5) 0.029(6) 0.023(5) 0.000(4) 0.001(4) -0.003(4)
 C013 0.022(5) 0.029(6) 0.025(5) 0.000(4) -0.001(4) 0.005(4)
 C014 0.032(6) 0.019(5) 0.025(5) -0.003(4) 0.002(4) -0.004(4)

_geom_special_details
;
 All esds (except the esd in the dihedral angle between two l.s. planes)
 are estimated using the full covariance matrix.  The cell esds are taken
 into account individually in the estimation of esds in distances, angles
 and torsion angles; correlations between esds in cell parameters are only
 used when they are defined by crystal symmetry.  An approximate (isotropic)
 treatment of cell esds is used for estimating esds involving l.s. planes.
;
loop_
  _geom_bond_atom_site_label_1
  _geom_bond_atom_site_label_2
  _geom_bond_distance
  _geom_bond_site_symmetry_2
  _geom_bond_publ_flag
 Se01 N00B 1.880(9) . ?
 Se01 C00I 1.890(10) . ?
 Se02 N00C 1.898(9) . ?
 Se02 C00D 1.902(9) . ?
 F003 C011 1.340(14) . ?
 O004 C00F 1.235(13) . ?
 O005 C00E 1.231(13) . ?
 F006 C011 1.345(14) . ?
 F007 C010 1.321(13) . ?
 F008 C010 1.335(14) . ?
 F009 C010 1.332(13) . ?
 F00A C011 1.328(13) . ?
 N00B C00F 1.379(13) . ?
 N00B C00R 1.427(13) . ?
 N00C C00E 1.372(13) . ?
 N00C C00J 1.415(12) . ?
 C00D C00M 1.384(14) . ?
 C00D C00V 1.393(13) . ?
 C00E C00M 1.476(14) . ?
 C00F C00H 1.475(14) . ?
 C00G C00J 1.391(14) . ?
 C00G C014 1.392(14) . ?
 C00H C00I 1.406(14) . ?
 C00H C00Z 1.399(14) . ?
 C00I C00L 1.381(14) . ?
 C00J C00O 1.399(14) . ?
 C00K C00R 1.386(14) . ?
 C00K C00W 1.389(15) . ?
 C00L C00S 1.381(14) . ?
 C00M C00P 1.385(14) . ?
 C00N C00V 1.382(14) . ?
 C00N C00X 1.400(15) . ?
 C00O C00Q 1.382(15) . ?
 C00P C00X 1.388(15) . ?
 C00Q C013 1.390(15) . ?
 C00R C00T 1.408(14) . ?
 C00S C00U 1.405(15) . ?
 C00T C00Y 1.377(14) . ?
 C00U C00Z 1.386(15) . ?
 C00W C012 1.387(15) . ?
 C00Y C012 1.396(15) . ?
 C010 C012 1.489(15) . ?
 C011 C013 1.486(15) . ?
 C013 C014 1.385(15) . ?

loop_
  _geom_angle_atom_site_label_1
  _geom_angle_atom_site_label_2
  _geom_angle_atom_site_label_3
  _geom_angle
  _geom_angle_site_symmetry_1
  _geom_angle_site_symmetry_3
  _geom_angle_publ_flag
 N00B Se01 C00I 86.0(4) . . ?
 N00C Se02 C00D 85.6(4) . . ?
 C00F N00B Se01 116.4(7) . . ?
 C00F N00B C00R 124.6(9) . . ?
 C00R N00B Se01 119.0(7) . . ?
 C00E N00C Se02 115.6(7) . . ?
 C00E N00C C00J 125.6(9) . . ?
 C00J N00C Se02 118.8(7) . . ?
 C00M C00D Se02 111.3(7) . . ?
 C00M C00D C00V 123.3(9) . . ?
 C00V C00D Se02 125.4(7) . . ?
 O005 C00E N00C 124.9(9) . . ?
 O005 C00E C00M 124.8(9) . . ?
 N00C C00E C00M 110.3(9) . . ?
 O004 C00F N00B 125.5(9) . . ?
 O004 C00F C00H 124.8(9) . . ?
 N00B C00F C00H 109.7(9) . . ?
 C00J C00G C014 120.5(10) . . ?
 C00I C00H C00F 116.5(9) . . ?
 C00Z C00H C00F 124.0(9) . . ?
 C00Z C00H C00I 119.5(9) . . ?
 C00H C00I Se01 111.1(7) . . ?
 C00L C00I Se01 127.2(8) . . ?
 C00L C00I C00H 121.7(9) . . ?
 C00G C00J N00C 119.2(9) . . ?
 C00G C00J C00O 118.7(9) . . ?
 C00O C00J N00C 122.1(9) . . ?
 C00R C00K C00W 120.6(10) . . ?
 C00I C00L C00S 118.2(10) . . ?
 C00D C00M C00E 116.9(9) . . ?
 C00D C00M C00P 119.0(9) . . ?
 C00P C00M C00E 124.1(10) . . ?
 C00V C00N C00X 122.7(10) . . ?
 C00Q C00O C00J 120.1(10) . . ?
 C00M C00P C00X 120.0(10) . . ?
 C00O C00Q C013 121.3(10) . . ?
 C00K C00R N00B 118.9(9) . . ?
 C00K C00R C00T 118.8(9) . . ?
 C00T C00R N00B 122.3(9) . . ?
 C00L C00S C00U 121.4(10) . . ?
 C00Y C00T C00R 120.6(10) . . ?
 C00Z C00U C00S 120.2(10) . . ?
 C00N C00V C00D 116.0(9) . . ?
 C012 C00W C00K 120.3(10) . . ?
 C00P C00X C00N 119.0(10) . . ?
 C00T C00Y C012 120.1(10) . . ?
 C00U C00Z C00H 119.0(10) . . ?
 F007 C010 F008 106.8(9) . . ?
 F007 C010 F009 106.3(10) . . ?
 F007 C010 C012 113.1(9) . . ?
 F008 C010 C012 112.3(10) . . ?
 F009 C010 F008 105.1(10) . . ?
 F009 C010 C012 112.6(9) . . ?
 F003 C011 F006 105.2(9) . . ?
 F003 C011 C013 112.6(10) . . ?
 F006 C011 C013 112.6(10) . . ?
 F00A C011 F003 107.5(10) . . ?
 F00A C011 F006 106.2(10) . . ?
 F00A C011 C013 112.3(10) . . ?
 C00W C012 C00Y 119.5(10) . . ?
 C00W C012 C010 120.6(10) . . ?
 C00Y C012 C010 119.9(10) . . ?
 C00Q C013 C011 119.3(10) . . ?
 C014 C013 C00Q 118.5(10) . . ?
 C014 C013 C011 122.0(10) . . ?
 C013 C014 C00G 120.7(10) . . ?

_shelx_res_file
;
TITL tf-1a_a.res in P2(1)/c
    tf-1a.res
    created by SHELXL-2018/3 at 15:39:17 on 30-Oct-2019
REM Old TITL tf-1a in P2(1)/n
REM SHELXT solution in P2(1)/c: R1 0.122, Rweak 0.121, Alpha 0.062
REM <I/s> 1.940 for 259 systematic absences, Orientation as input
REM Formula found by SHELXT: C28 N2 O8 Br2
CELL 1.54184 7.5486 11.7195 27.6207 90 90.998 90
ZERR 4 0.0001 0.0002 0.0005 0 0.002 0
LATT 1
SYMM -X,0.5+Y,0.5-Z
SFAC C H F N O Se
UNIT 112 64 24 8 8 8

L.S. 4
PLAN  20
list 4
fmap 2
ACTA
REM <olex2.extras>
REM <HklSrc "%./tf-1a.hkl">
REM </olex2.extras>

WGHT    0.049300   85.258606
FVAR       0.25202
SE01  6    1.008664    0.458101    0.268048    11.00000    0.01974    0.01120 =
         0.01805    0.00019    0.00020    0.00014
SE02  6    0.509121    0.995839    0.268877    11.00000    0.02100    0.01142 =
         0.01732   -0.00038    0.00067   -0.00034
F003  3    0.037432    0.881542    0.495381    11.00000    0.04076    0.04175 =
         0.03638    0.00481    0.01637    0.01359
O004  5    0.826120    0.776312    0.267068    11.00000    0.02816    0.01640 =
         0.02474    0.00120    0.00116    0.00521
O005  5    0.328116    0.677659    0.267855    11.00000    0.03519    0.01745 =
         0.02406   -0.00030    0.00002   -0.00056
F006  3    0.213192    0.742750    0.510041    11.00000    0.04507    0.05352 =
         0.03541    0.01121    0.01126    0.01592
F007  3    0.564175    0.654267    0.498675    11.00000    0.04313    0.10846 =
         0.02431    0.00900    0.00993    0.03450
F008  3    0.727937    0.508979    0.512063    11.00000    0.08498    0.03494 =
         0.04174    0.01290    0.01827    0.00677
F009  3    0.837598    0.675135    0.515797    11.00000    0.06875    0.08264 =
         0.02692   -0.01569    0.00381   -0.03855
F00A  3    0.305925    0.913870    0.518976    11.00000    0.07679    0.09653 =
         0.02823   -0.01500    0.00888   -0.05903
N00B  4    0.904007    0.592682    0.291069    11.00000    0.01514    0.02306 =
         0.02572    0.00665   -0.00031   -0.00077
N00C  4    0.403167    0.860121    0.292156    11.00000    0.02416    0.01582 =
         0.02150   -0.00118    0.00181    0.00124
C00D  1    0.502472    0.923252    0.207297    11.00000    0.01407
C00E  1    0.380237    0.774668    0.258682    11.00000    0.01334    0.02288 =
         0.02140   -0.00169   -0.00424   -0.00288
C00F  1    0.879779    0.679319    0.257839    11.00000    0.02632    0.01983 =
         0.02111    0.00394   -0.00348   -0.00722
C00G  1    0.422790    0.935534    0.373628    11.00000    0.02425    0.01768 =
         0.02344    0.00011    0.00125   -0.00362
AFIX  43
H00G  2    0.499269    0.991709    0.362642    11.00000   -1.20000
AFIX   0
C00H  1    0.928445    0.639013    0.209264    11.00000    0.00730    0.02151 =
         0.02536    0.00018   -0.00060   -0.00277
C00I  1    1.003316    0.529413    0.206671    11.00000    0.02302    0.01968 =
         0.01800    0.00207    0.00252   -0.00848
C00J  1    0.356400    0.854077    0.341466    11.00000    0.01939    0.01944 =
         0.02233    0.00129    0.00034    0.00229
C00K  1    0.922676    0.518096    0.372793    11.00000    0.03027    0.01443 =
         0.02697    0.00113    0.00044    0.00542
AFIX  43
H00K  2    0.998829    0.461789    0.361758    11.00000   -1.20000
AFIX   0
C00L  1    1.057879    0.483701    0.163344    11.00000    0.02072    0.02037 =
         0.02542   -0.00014   -0.00245   -0.00177
AFIX  43
H00L  2    1.107936    0.411273    0.162105    11.00000   -1.20000
AFIX   0
C00M  1    0.428990    0.815315    0.210107    11.00000    0.02379    0.02253 =
         0.02029    0.00417   -0.00448    0.00799
C00N  1    0.534752    0.905813    0.123027    11.00000    0.03627    0.02090 =
         0.01845    0.00489   -0.00072    0.00177
AFIX  43
H00N  2    0.571481    0.934820    0.093512    11.00000   -1.20000
AFIX   0
C00O  1    0.239440    0.771495    0.358648    11.00000    0.02513    0.02589 =
         0.02406   -0.00074   -0.00122   -0.00152
AFIX  43
H00O  2    0.191143    0.717675    0.337489    11.00000   -1.20000
AFIX   0
C00P  1    0.403421    0.753010    0.167934    11.00000    0.01911    0.02295 =
         0.02068   -0.00174   -0.00441   -0.00269
AFIX  43
H00P  2    0.350833    0.681323    0.169104    11.00000   -1.20000
AFIX   0
C00Q  1    0.195484    0.769704    0.407007    11.00000    0.02558    0.02313 =
         0.02609   -0.00314    0.00286   -0.00411
AFIX  43
H00Q  2    0.118832    0.713740    0.418094    11.00000   -1.20000
AFIX   0
C00R  1    0.856637    0.599263    0.340768    11.00000    0.01995    0.01946 =
         0.02318    0.00401   -0.00105   -0.00199
C00S  1    1.036095    0.548479    0.121883    11.00000    0.03525    0.01982 =
         0.01916   -0.00278    0.00119   -0.00565
AFIX  43
H00S  2    1.073277    0.519326    0.092438    11.00000   -1.20000
AFIX   0
C00T  1    0.740824    0.683413    0.358159    11.00000    0.01871    0.02516 =
         0.02365    0.00208   -0.00371    0.00159
AFIX  43
H00T  2    0.695216    0.738262    0.337043    11.00000   -1.20000
AFIX   0
C00U  1    0.958927    0.657490    0.123281    11.00000    0.04052    0.02049 =
         0.01959    0.00437   -0.00223   -0.00695
AFIX  43
H00U  2    0.945271    0.699538    0.094906    11.00000   -1.20000
AFIX   0
C00V  1    0.559842    0.971300    0.164204    11.00000    0.02066    0.01809 =
         0.02451    0.00164    0.00074    0.00089
AFIX  43
H00V  2    0.611926    1.043156    0.163188    11.00000   -1.20000
AFIX   0
C00W  1    0.876169    0.520064    0.421228    11.00000    0.02492    0.02421 =
         0.02374    0.00414   -0.00164   -0.00437
AFIX  43
H00W  2    0.919558    0.464336    0.442267    11.00000   -1.20000
AFIX   0
C00X  1    0.456314    0.797616    0.123943    11.00000    0.03505    0.02168 =
         0.02131   -0.00250   -0.00534    0.00136
AFIX  43
H00X  2    0.439888    0.756232    0.095488    11.00000   -1.20000
AFIX   0
C00Y  1    0.694474    0.685236    0.406147    11.00000    0.01641    0.02392 =
         0.03042   -0.00231    0.00005   -0.00134
AFIX  43
H00Y  2    0.615844    0.740160    0.417129    11.00000   -1.20000
AFIX   0
C00Z  1    0.903079    0.702556    0.166842    11.00000    0.03477    0.02422 =
         0.02357    0.00387   -0.00492    0.00057
AFIX  43
H00Z  2    0.849549    0.773971    0.167842    11.00000   -1.20000
AFIX   0
C010  1    0.722673    0.611132    0.490705    11.00000    0.01978    0.02725 =
         0.03594    0.00037    0.00246   -0.00673
C011  1    0.205853    0.847839    0.490564    11.00000    0.03296    0.02671 =
         0.03023   -0.00061    0.00158   -0.00595
C012  1    0.765270    0.604814    0.438340    11.00000    0.01984    0.02907 =
         0.02276   -0.00023    0.00084   -0.00330
C013  1    0.263599    0.849917    0.439406    11.00000    0.02175    0.02906 =
         0.02452   -0.00040   -0.00057    0.00524
C014  1    0.375639    0.933601    0.422111    11.00000    0.03222    0.01932 =
         0.02497   -0.00281    0.00175   -0.00395
AFIX  43
H014  2    0.419840    0.989107    0.443134    11.00000   -1.20000
AFIX   0
HKLF 4




REM  tf-1a_a.res in P2(1)/c
REM wR2 = 0.2515, GooF = S = 1.148, Restrained GooF = 1.148 for all data
REM R1 = 0.0957 for 4332 Fo > 4sig(Fo) and 0.1024 for all 5042 data
REM 356 parameters refined using 0 restraints

END

WGHT      0.0493     85.2568

REM Highest difference peak  3.151,  deepest hole -1.494,  1-sigma level  0.233
Q1    1   0.5654  1.0868  0.2682  11.00000  0.05    3.15
Q2    1   1.0651  0.5525  0.2699  11.00000  0.05    2.77
Q3    1   0.4243  1.0923  0.2670  11.00000  0.05    2.63
Q4    1   0.8642  0.4546  0.2652  11.00000  0.05    2.45
Q5    1   0.3698  0.9973  0.2688  11.00000  0.05    2.38
Q6    1   1.1337  0.4618  0.2710  11.00000  0.05    2.07
Q7    1   0.9250  0.5484  0.2668  11.00000  0.05    1.81
Q8    1   0.6306  0.9935  0.2708  11.00000  0.05    1.73
Q9    1   0.8467  0.3619  0.2673  11.00000  0.05    1.29
Q10   1   0.5017  0.9045  0.2686  11.00000  0.05    1.21
Q11   1   0.7488  0.7316  0.5047  11.00000  0.05    1.20
Q12   1   0.3547  0.8900  0.2644  11.00000  0.05    1.19
Q13   1   1.0001  0.3555  0.2690  11.00000  0.05    1.11
Q14   1   0.6540  0.9042  0.2697  11.00000  0.05    1.07
Q15   1   0.2073  0.7659  0.2670  11.00000  0.05    1.02
Q16   1   0.8488  0.8615  0.2303  11.00000  0.05    0.95
Q17   1   1.1221  0.6074  0.2988  11.00000  0.05    0.90
Q18   1   1.0777  0.6321  0.2058  11.00000  0.05    0.89
Q19   1   0.8302  0.7819  0.3496  11.00000  0.05    0.88
Q20   1   0.4296  0.9600  0.1650  11.00000  0.05    0.86
;
_shelx_res_checksum                19999
_shelx_hkl_file
;
   0   0  -2 3804.63  141.06
   0   0  -2 3883.38  141.13
   0   0  -3    1.05    0.76
   0   0  -3   -0.52    0.93
   0   0  -4 7108.75  264.44
   0   0  -4 7274.64  264.32
   0   0  -5    0.55    1.45
   0   0  -6   37.75    3.23
   0   0  -7    0.11    2.12
   0   0  -8 9063.01  333.89
   0   0  -9    0.71    2.03
   0   0 -10   36.91    3.79
   0   0 -11    0.88    2.26
   0   0 -12 1441.49   56.33
   0   0 -13    0.22    2.62
   0   0 -14 2269.72   87.39
   0   0 -15    0.26    2.58
   0   0 -16   10.93    3.10
   0   0 -17    0.30    2.51
   0   0  18 1345.77   54.88
   0   0 -18 1609.73   58.68
   0   0  19   -0.17    1.65
   0   0 -19    2.82    3.03
   0   0  20  676.93   27.45
   0   0  20  656.16   28.23
   0   0  21    0.97    1.83
   0   0  21    0.72    1.49
   0   0 -21    0.40    2.62
   0   0  22  334.13   15.16
   0   0  22  332.04   15.89
   0   0 -23    0.43    2.75
   0   0  23   -1.42    1.72
   0   0  23   -1.27    2.16
   0   0  24  108.28    7.26
   0   0 -24  104.57    9.35
   0   0 -25    1.83    2.65
   0   0  25   -0.44    1.96
   0   0 -26  457.23   24.42
   0   0  26  468.03   20.90
   0   0  27    1.26    2.11
   0   0  28 1670.71   64.93
   0   0  29   -0.19    2.34
   0   0  30  852.00   33.73
   0   0  30  810.69   33.58
   0   0  31    0.78    1.77
   0   0  31   -2.01    2.05
   0   0  32  494.48   20.15
   0   0  32  469.57   20.05
   0   0  33   -0.11    1.37
   0   0  33    1.34    1.42
   0   0  34  357.86   14.54
   0   0  34  346.87   14.37
   0  -1   0    4.06    1.02
   0  -1  -1   48.54    2.43
   0  -1  -1   41.79    1.86
   0  -1   1   43.45    2.59
   0   1  -1   40.70    1.84
   0  -1  -2  152.31    6.74
   0  -1  -2  173.18    6.77
   0  -1  -2  174.53    6.68
   0   1  -2  159.79    6.62
   0   1  -3   26.09    1.86
   0  -1  -3   23.23    1.82
   0  -1  -4  108.93    5.27
   0  -1   4  113.98    5.43
   0   1  -4  111.28    5.28
   0  -1  -5    8.46    1.70
   0   1  -5    5.38    1.63
   0  -1   5    8.57    1.70
   0   1  -6    1.01    1.71
   0  -1  -6    2.22    1.72
   0  -1   6    1.17    1.42
   0   1  -7   10.09    2.31
   0  -1  -7    9.99    2.39
   0  -1   7    9.56    1.81
   0   1  -8  249.24   11.38
   0  -1  -8  247.07   11.35
   0   1  -9    8.33    2.22
   0  -1  -9    8.11    2.24
   0   1 -10  161.11    8.59
   0   1 -11    5.23    2.56
   0   1 -12  861.58   35.09
   0   1 -13   44.05    4.67
   0   1 -14   73.49    6.05
   0   1 -15    5.09    2.74
   0   1 -16    6.37    2.82
   0   1 -17    4.50    2.74
   0   1  18   62.27    4.65
   0  -1  18   60.34    4.67
   0   1 -18   75.15    6.72
   0  -1  19    1.05    1.68
   0   1  19    1.22    1.76
   0  -1  19   -0.14    1.35
   0   1 -19    1.04    2.52
   0  -1  20  188.92    9.30
   0   1  20  175.20    9.68
   0   1 -20  192.66   12.42
   0   1  21   17.46    2.90
   0  -1  21   20.03    2.66
   0   1 -21   17.73    4.09
   0   1  22  166.14   11.34
   0  -1  22  156.50    8.54
   0   1  22  152.01    8.93
   0   1 -22  173.57   11.84
   0  -1  22  150.28    8.83
   0   1 -23   -0.43    2.57
   0   1  23   -0.63    1.97
   0  -1  23   -0.62    2.05
   0  -1  23    0.34    1.76
   0   1  23   -0.80    2.62
   0   1  24    8.38    2.68
   0  -1  24    7.54    3.30
   0   1  24    4.54    3.18
   0  -1  24    7.72    2.60
   0  -1  24    6.77    2.08
   0   1 -24    6.19    3.16
   0   1  25    0.64    2.08
   0   1 -25   -0.45    2.71
   0  -1  25    0.88    1.69
   0  -1  25   -0.22    2.23
   0   1  25    2.10    2.75
   0   1  25   -0.87    2.19
   0  -1  25    0.85    2.83
   0   1  26   12.01    2.93
   0  -1  26   11.62    2.53
   0   1  26   11.77    3.80
   0  -1  26   13.30    2.97
   0   1  26   15.20    3.05
   0   1 -26   15.01    4.04
   0  -1  26   11.49    3.58
   0   1  27    4.84    2.46
   0  -1  27    6.16    2.51
   0  -1  27    5.29    1.98
   0   1  27    1.67    2.37
   0   1  28    7.79    2.52
   0   1  28    7.45    2.61
   0  -1  28    9.15    2.58
   0   1  29    7.12    2.47
   0  -1  29    5.11    2.25
   0   1  29    7.33    2.57
   0   1  30    9.46    2.51
   0  -1  30    7.20    2.30
   0   1  31    3.22    1.84
   0  -1  31    2.70    1.83
   0   1  32   -0.13    1.52
   0  -1  32    0.13    1.54
   0  -1  33    0.60    1.24
   0   1  33   -0.98    1.31
   0  -1  34   17.44    1.77
   0   1  34   15.70    1.85
   0  -2   0 1933.22   72.58
   0  -2   1  150.77    7.31
   0  -2  -1  155.50    7.01
   0   2  -2 1839.28   68.68
   0  -2  -2 1852.01   68.69
   0  -2  -2 1986.46   69.85
   0  -2  -3   97.01    4.39
   0   2  -3   93.84    4.32
   0  -2  -3   94.82    4.97
   0  -2  -4 1169.12   43.58
   0  -2   4 1196.42   44.72
   0   2  -4 1131.91   43.52
   0  -2   5  112.29    6.25
   0   2  -5  102.28    5.38
   0  -2  -5  116.83    5.56
   0  -2   6 1254.30   47.75
   0   2  -6 1233.99   47.16
   0  -2  -6 1296.40   47.29
   0  -2  -6 1182.86   47.45
   0  -2  -7   35.89    3.11
   0  -2  -7   34.04    3.35
   0   2  -7   36.09    3.06
   0  -2   7   39.50    3.49
   0  -2  -8  156.14    8.49
   0  -2  -8  177.71    8.36
   0  -2   8  155.75    8.10
   0   2  -8  162.86    8.12
   0  -2  -9   31.32    3.22
   0  -2  -9   21.79    3.18
   0   2  -9   27.44    3.08
   0  -2 -10  194.79    9.55
   0   2 -10  180.11    9.32
   0  -2 -10  168.67    9.44
   0   2 -11    1.56    2.09
   0  -2 -11   -0.19    2.19
   0  -2 -11   -1.24    2.14
   0  -2 -12  101.92    6.76
   0   2 -12  102.91    6.73
   0  -2 -13    4.70    2.32
   0   2 -13    4.61    2.43
   0  -2 -14   75.76    6.12
   0   2 -14   73.88    6.02
   0   2 -15   10.27    2.87
   0  -2 -15   11.16    3.06
   0   2 -16   93.00    7.15
   0  -2 -16   86.52    7.01
   0  -2 -17    1.19    2.45
   0   2 -17   -0.29    2.18
   0   2  18  253.70   12.14
   0  -2 -18  266.12   14.57
   0  -2  18  231.59   11.95
   0  -2  19   67.24    4.92
   0  -2 -19   79.28    7.10
   0  -2  19   64.82    4.80
   0   2 -19   78.21    7.01
   0  -2  19   62.68    4.97
   0   2  19   63.57    4.97
   0   2  20  880.12   36.19
   0  -2  20  889.62   36.28
   0   2 -20  926.22   39.39
   0  -2 -20  971.31   39.73
   0  -2  20  897.92   36.09
   0  -2  20  877.41   35.81
   0  -2  21   13.03    2.61
   0   2  21   14.48    2.86
   0  -2 -21   19.83    4.02
   0  -2  21   16.79    2.80
   0  -2  21   18.66    2.95
   0  -2  21   18.26    2.78
   0   2 -21   19.73    4.19
   0   2  22  238.20   14.28
   0  -2  22  238.20   11.78
   0  -2  22  225.10   11.75
   0   2  22  224.24   11.71
   0  -2  22  228.37   14.25
   0  -2  22  219.51   11.25
   0   2 -22  229.29   14.38
   0  -2 -22  234.31   14.49
   0  -2  22  221.21   11.31
   0  -2  23   30.88    5.22
   0   2  23   30.72    5.11
   0   2  23   35.35    3.95
   0  -2  23   29.55    3.49
   0  -2  23   35.60    3.72
   0  -2 -23   36.39    5.54
   0   2 -23   35.69    5.33
   0  -2  23   43.79    4.23
   0  -2  23   34.43    3.96
   0  -2  24  444.51   18.82
   0  -2 -24  389.03   21.62
   0  -2  24  397.66   18.57
   0  -2  24  410.53   18.14
   0   2  24  371.09   21.12
   0   2 -24  401.40   21.73
   0   2  24  411.36   18.62
   0  -2  24  372.82   21.27
   0   2  25   19.18    3.20
   0   2 -25   21.37    4.53
   0  -2  25   23.26    4.58
   0  -2  25   20.49    3.33
   0   2  25   20.74    4.34
   0  -2 -25   19.42    4.44
   0   2  25   21.87    3.45
   0  -2  25   24.96    3.28
   0  -2  25   20.49    3.32
   0  -2  26  782.26   30.84
   0  -2 -26  682.19   34.24
   0  -2  26  753.15   30.17
   0   2  26  730.92   30.55
   0   2  26  759.17   30.66
   0   2  26  673.32   33.57
   0   2 -26  652.41   33.72
   0  -2  26  672.45   33.72
   0  -2  26  753.45   30.74
   0  -2  27  107.62    6.91
   0   2  27   93.58    6.62
   0  -2  27   89.33    6.54
   0  -2  27   94.86    6.31
   0   2  27   89.46    6.60
   0   2  28  693.93   28.23
   0  -2  28  665.62   28.13
   0  -2  28  646.47   27.50
   0  -2  28  711.84   28.35
   0   2  28  648.12   28.08
   0   2  29   20.37    3.15
   0  -2  29   18.98    2.99
   0  -2  29   20.32    3.07
   0   2  29   18.31    2.94
   0  -2  30  293.15   13.52
   0   2  30  280.90   13.49
   0   2  30  292.15   13.54
   0  -2  30  289.67   13.59
   0  -2  31   36.35    3.41
   0   2  31   37.93    3.58
   0  -2  31   36.95    3.57
   0   2  31   36.14    3.53
   0   2  32  243.73   11.10
   0  -2  32  232.90   10.99
   0  -2  32  237.02   10.82
   0   2  32  246.47   11.12
   0  -2  33    4.02    1.28
   0   2  33    2.28    1.32
   0  -2  33    4.53    1.39
   0   2  33    5.14    1.55
   0   2  34   45.11    2.98
   0  -3   0    2.19    2.40
   0  -3  -1    2.64    2.38
   0  -3  -1    0.70    1.25
   0  -3   1    1.23    2.48
   0  -3  -2    5.47    1.48
   0  -3  -2    5.91    2.36
   0  -3   2    5.25    0.63
   0  -3  -2    4.04    0.63
   0  -3   2    4.46    2.81
   0   3   2    4.36    0.63
   0   3  -2    3.72    0.56
   0  -3  -3    2.85    2.09
   0  -3  -3    2.92    0.86
   0  -3  -3    4.46    1.67
   0   3  -3    2.72    0.78
   0  -3  -4   77.79    3.87
   0  -3  -4   79.70    4.72
   0   3  -4   75.95    3.81
   0   3  -5   19.26    1.96
   0  -3   5   19.16    3.31
   0  -3  -5   20.56    2.04
   0  -3   6   30.52    3.78
   0  -3  -6   37.63    2.91
   0   3  -6   33.06    2.70
   0  -3  -7   41.04    3.33
   0   3  -7   43.04    3.34
   0  -3   7   42.54    4.26
   0   3  -8  869.26   35.11
   0  -3  -8  932.88   35.35
   0  -3  -9  316.09   14.99
   0   3  -9  307.31   14.08
   0  -3  -9  331.67   14.35
   0   3 -10 1148.00   44.90
   0  -3 -10 1189.51   46.07
   0  -3 -10 1120.00   44.92
   0  -3 -11  100.76    7.06
   0  -3 -11   91.25    6.24
   0   3 -11   96.72    6.24
   0  -3 -12  257.77   13.59
   0  -3 -12  256.53   12.83
   0   3 -12  262.46   12.78
   0  -3 -13   45.20    4.53
   0   3 -13   48.45    4.58
   0  -3 -14  202.23   11.39
   0   3 -14  214.24   11.43
   0   3 -15   58.28    5.29
   0  -3 -15   47.63    5.06
   0   3 -16  332.69   16.94
   0  -3 -16  351.34   17.16
   0  -3 -17   28.51    4.25
   0   3 -17   23.96    3.91
   0  -3 -18   70.89    6.59
   0  -3  18   63.52    4.86
   0   3  18   70.34    5.00
   0   3 -18   70.84    6.60
   0  -3  18   65.18    4.79
   0  -3  18   67.66    4.93
   0  -3  19   29.68    3.25
   0  -3 -19   29.43    4.38
   0   3 -19   31.04    4.57
   0  -3  19   20.23    2.97
   0   3  19   32.39    3.33
   0  -3  19   22.02    2.98
   0  -3  20  592.49   27.34
   0  -3  20  582.21   24.43
   0   3  20  579.82   24.55
   0   3 -20  594.35   27.38
   0  -3  20  579.60   24.40
   0  -3 -20  586.94   27.41
   0   3  20  579.58   27.20
   0  -3  20  558.50   24.50
   0   3  21   51.18    4.53
   0  -3 -21   49.18    5.93
   0  -3  21   54.50    4.64
   0   3 -21   54.64    6.15
   0  -3  21   49.01    4.42
   0   3  21   49.47    5.98
   0  -3  21   46.30    4.32
   0  -3  21   45.79    5.86
   0  -3 -22  102.47    8.70
   0   3  22   91.83    6.55
   0  -3  22   95.98    6.52
   0  -3  22  101.98    6.65
   0   3  22  105.52    8.81
   0   3 -22   95.05    8.51
   0  -3  22   99.15    6.44
   0  -3  22   99.57    6.75
   0  -3  22   91.99    8.39
   0  -3  23    1.89    2.14
   0  -3 -23    0.41    2.49
   0  -3  23    1.19    1.77
   0   3  23    1.58    2.78
   0   3  23    1.42    2.08
   0  -3  23   -0.18    1.99
   0  -3  23    0.55    1.96
   0   3 -23   -1.62    2.77
   0  -3  23    2.41    2.94
   0   3 -24   50.41    6.42
   0   3  24   52.61    6.38
   0  -3  24   54.52    4.77
   0   3  24   62.86    5.05
   0  -3  24   60.88    5.06
   0  -3  24   56.76    4.79
   0  -3 -24   57.22    6.69
   0  -3  24   48.79    6.43
   0  -3  24   54.70    4.93
   0  -3  25    1.01    1.93
   0  -3  25    0.87    1.72
   0  -3  25    0.41    2.35
   0  -3  25   -2.52    2.13
   0   3  25    1.63    2.02
   0  -3 -25   -0.86    2.53
   0   3 -25    4.22    2.85
   0  -3  25    0.56    1.96
   0   3  25    0.81    2.21
   0  -3  26   10.54    2.54
   0  -3  26    5.35    2.28
   0  -3  26    6.99    2.47
   0   3  26    8.96    2.59
   0   3  26    7.43    2.43
   0  -3  27    5.87    2.25
   0  -3  27    5.93    2.30
   0   3  27    6.97    2.42
   0   3  27    5.98    2.42
   0  -3  27    9.68    2.55
   0  -3  28   21.25    3.10
   0  -3  28   20.99    3.09
   0   3  28   22.85    3.27
   0  -3  28   23.51    3.08
   0   3  28   19.78    3.10
   0  -3  29    2.21    1.78
   0   3  29   -0.67    1.86
   0  -3  29    1.17    1.73
   0   3  29   -0.34    1.91
   0  -3  29    0.16    1.85
   0   3  30    7.40    2.17
   0  -3  30   12.68    2.33
   0   3  30   10.50    2.33
   0  -3  30   14.43    2.32
   0  -3  31    4.13    1.73
   0   3  31    3.12    1.60
   0  -3  31    1.89    1.48
   0   3  31    3.20    1.76
   0   3  32   26.21    2.72
   0   3  32   36.91    3.05
   0  -3  32   31.78    2.85
   0   3  33    1.14    1.15
   0  -3  33    1.47    0.95
   0   3  34   29.17    2.12
   0  -4   0 1837.43   67.30
   0  -4   0 1687.49   65.08
   0  -4  -1  866.92   34.21
   0  -4  -1  912.22   36.02
   0  -4   1  888.45   36.27
   0  -4  -2 2555.53   98.16
   0  -4   2 2686.22  100.31
   0  -4  -2 2707.14   99.70
   0  -4   3  531.08   21.70
   0  -4  -3  537.04   19.73
   0  -4   4  220.87    8.76
   0   4   4  222.63    8.82
   0  -4  -4  219.22    8.84
   0   4  -4  208.54    8.72
   0  -4  -5  103.51    6.07
   0  -4   5   90.90    4.46
   0  -4  -5   95.40    4.57
   0   4  -5   94.24    4.49
   0  -4  -6 1333.31   50.73
   0  -4   6 1455.65   53.76
   0  -4  -6 1405.54   52.41
   0   4  -6 1299.16   50.63
   0  -4  -7  738.94   29.42
   0   4  -7  744.93   29.36
   0  -4  -7  798.32   31.12
   0  -4  -8  598.76   24.11
   0   4  -8  594.53   24.01
   0   4  -9   78.65    5.07
   0  -4  -9   77.88    5.11
   0  -4 -10  670.65   27.06
   0   4 -10  642.50   26.88
   0  -4 -11  454.52   19.79
   0   4 -11  446.03   19.64
   0   4 -12  329.13   15.64
   0  -4 -12  341.26   15.83
   0  -4 -13   21.78    3.84
   0   4 -13   27.92    3.64
   0  -4 -13   24.49    3.44
   0   4 -14  111.57    7.70
   0  -4 -14  123.19    8.02
   0  -4 -15   21.02    3.53
   0   4 -15   27.74    3.74
   0   4 -16  168.13   10.55
   0  -4  16  177.05    9.11
   0  -4 -16  172.64   10.66
   0  -4  17  120.94    7.15
   0   4  17  122.94    7.16
   0  -4  17  134.74    7.61
   0   4 -17  147.29    9.32
   0  -4 -17  125.68    8.86
   0  -4  17  127.87    7.12
   0  -4  17  139.48    9.03
   0  -4  18   51.37    4.18
   0  -4  18   55.57    4.35
   0  -4  18   55.12    4.69
   0   4 -18   63.84    6.13
   0  -4  18   53.36    5.69
   0  -4 -18   59.17    5.95
   0   4  18   58.39    5.90
   0   4  18   58.98    4.50
   0   4  19   14.24    3.46
   0  -4  19    9.12    3.14
   0   4  19   10.23    2.34
   0   4 -19   12.00    3.25
   0  -4  19   10.90    2.62
   0  -4 -19   12.25    3.28
   0  -4  19   12.89    2.35
   0  -4  19    9.37    2.19
   0   4  20  571.52   26.37
   0  -4  20  555.97   23.69
   0  -4  20  579.85   23.88
   0   4  20  557.85   23.63
   0   4 -20  539.52   26.31
   0  -4  20  537.07   26.15
   0  -4 -20  525.89   26.12
   0  -4  20  557.26   23.45
   0   4  21  371.14   20.28
   0  -4  21  394.99   17.86
   0  -4  21  404.06   17.78
   0  -4 -21  368.73   20.26
   0  -4  21  353.94   20.14
   0   4 -21  402.91   20.76
   0   4  21  419.43   17.97
   0  -4  21  405.94   17.98
   0  -4 -22  623.59   29.90
   0  -4  22  645.57   26.73
   0   4  22  615.66   29.57
   0  -4  22  670.24   26.94
   0   4  22  637.81   26.75
   0  -4  22  634.47   26.85
   0   4 -22  624.20   29.91
   0  -4  22  577.08   29.38
   0  -4  22  644.62   26.68
   0  -4 -23  102.20    9.09
   0  -4  23   87.31    8.48
   0  -4  23  108.43    6.92
   0   4 -23   93.63    8.71
   0   4  23   91.21    8.40
   0   4  23  109.32    6.94
   0  -4  23  108.52    7.01
   0  -4  23  104.47    6.93
   0  -4  23  116.97    7.02
   0  -4 -24  378.77   21.16
   0  -4  24  419.13   18.20
   0   4  24  407.74   18.15
   0  -4  24  414.96   18.32
   0   4 -24  368.05   21.09
   0  -4  24  419.95   18.18
   0  -4  24  404.67   18.16
   0  -4  24  367.19   20.92
   0   4  24  372.68   20.79
   0  -4  25  181.55   10.09
   0   4  25  192.76   10.34
   0  -4  25  202.34   10.48
   0   4  25  203.49   10.45
   0  -4  25  185.57   10.18
   0  -4  25  192.64   10.27
   0  -4  26  368.88   16.36
   0  -4  26  353.49   16.13
   0   4  26  364.81   16.35
   0  -4  26  372.88   16.48
   0  -4  26  326.44   15.82
   0   4  26  348.17   16.34
   0  -4  27  137.74    7.89
   0   4  27  129.89    7.92
   0  -4  27  121.25    7.35
   0  -4  27  133.47    7.68
   0  -4  27  138.82    7.95
   0   4  27  144.49    8.01
   0  -4  28  475.80   20.44
   0  -4  28  467.79   20.07
   0  -4  28  467.50   20.31
   0   4  28  489.49   20.57
   0   4  28  478.73   20.44
   0  -4  29  164.46    8.65
   0  -4  29  166.68    8.72
   0   4  29  169.93    8.83
   0   4  29  166.37    8.69
   0  -4  30  278.94   12.50
   0  -4  30  263.71   12.45
   0   4  30  291.70   12.79
   0   4  30  281.01   12.56
   0   4  31  113.23    6.07
   0  -4  31  106.15    5.94
   0   4  31  125.47    6.39
   0   4  32  315.67   13.29
   0   4  33   38.44    2.63
   0  -5   0    0.95    1.42
   0  -5   1  197.46    9.33
   0  -5  -1  206.39    9.66
   0  -5   2   66.94    4.18
   0  -5  -2   70.15    4.69
   0  -5  -3  675.87   27.51
   0  -5  -4  226.64   11.08
   0  -5  -5   22.92    1.60
   0  -5  -5   28.79    3.34
   0  -5  -6  632.31   24.98
   0  -5   6  568.95   22.22
   0   5   6  596.15   22.41
   0  -5  -6  557.49   22.34
   0   5   7  655.84   24.58
   0   5  -7  594.30   24.29
   0  -5  -7  611.97   24.45
   0  -5   7  618.31   24.34
   0  -5  -8   13.94    1.92
   0  -5  -8   15.39    3.21
   0   5  -8   17.95    1.97
   0   5   8   16.81    2.09
   0  -5   8   12.74    1.87
   0   5  -9    5.78    1.52
   0  -5  -9    9.61    2.86
   0  -5   9    7.42    1.69
   0   5   9    6.11    1.69
   0  -5  -9    8.53    1.73
   0   5 -10  279.11   12.97
   0   5  10  288.95   13.14
   0  -5 -10  327.02   15.69
   0  -5 -10  283.02   13.03
   0  -5  10  276.76   12.93
   0  -5  11  454.18   19.95
   0   5 -11  452.56   19.94
   0  -5 -11  452.47   20.02
   0   5  11  468.73   20.12
   0   5  12  129.96    7.79
   0   5 -12  129.04    7.70
   0  -5  12  126.47    7.63
   0  -5 -12  127.24    7.71
   0   5  13   81.89    6.01
   0   5 -13   75.84    5.83
   0  -5  13   77.58    5.86
   0  -5 -13   80.78    6.00
   0  -5 -14  481.00   21.62
   0   5 -14  459.60   21.36
   0   5  14  493.74   21.61
   0  -5  14  485.32   20.30
   0  -5  14  459.85   21.28
   0  -5  15  349.62   15.70
   0  -5  15  343.40   16.84
   0   5  15  339.96   16.88
   0   5 -15  337.56   16.94
   0  -5 -15  356.28   17.16
   0   5  16  146.63    9.62
   0  -5  16  157.51    9.67
   0  -5 -16  141.64    8.15
   0  -5 -16  152.44    9.69
   0  -5  16  162.09    8.69
   0   5 -16  165.46   10.00
   0   5  17  103.23    7.69
   0  -5  17  113.31    6.77
   0   5 -17  106.70    7.89
   0  -5 -17   98.06    7.64
   0  -5  17  100.97    7.57
   0  -5  17   88.82    5.90
   0  -5 -17   92.31    6.07
   0  -5  18  166.07    8.91
   0   5 -18  171.92   10.70
   0  -5 -18  154.21   10.22
   0  -5 -18  142.74    8.13
   0  -5  18  152.64   10.02
   0   5  18  138.49    9.78
   0  -5  18  157.25    8.35
   0   5 -19    2.01    2.33
   0  -5 -19    1.87    1.50
   0  -5  19    1.71    1.67
   0  -5  19    4.02    2.33
   0  -5 -19    2.96    2.47
   0   5  19    2.51    2.21
   0  -5  19    1.56    2.10
   0  -5  19    3.61    1.82
   0   5  20    7.99    1.99
   0   5 -20    6.00    2.91
   0   5  20   12.43    3.07
   0  -5  20    9.28    2.12
   0  -5  20    6.27    2.05
   0  -5  20    6.20    2.77
   0  -5  20    9.16    2.53
   0  -5 -20   12.46    3.12
   0  -5  21   24.76    3.06
   0  -5  21   28.07    3.59
   0  -5 -21   25.13    4.27
   0   5  21   20.84    2.91
   0  -5  21   20.71    2.83
   0  -5  21   15.28    3.73
   0  -5  22  240.30   11.84
   0  -5  22  230.23   11.13
   0  -5  22  245.93   11.73
   0  -5  22  201.91   13.21
   0  -5 -22  210.25   13.65
   0  -5  22  205.34   11.03
   0   5  22  210.99   11.04
   0  -5 -23   27.26    4.67
   0  -5  23   36.39    3.60
   0  -5  23   35.60    3.92
   0   5  23   33.80    3.58
   0  -5  23   29.77    3.32
   0  -5  23   30.72    3.78
   0  -5  24    1.91    2.33
   0  -5  24    1.05    1.85
   0   5  24    2.02    1.96
   0  -5  24    1.88    1.52
   0  -5  24    2.82    1.93
   0   5  24    0.51    1.67
   0  -5  25    5.47    1.74
   0  -5  25    5.18    2.29
   0  -5  25    5.07    2.02
   0   5  25    5.95    2.00
   0  -5  25    5.48    2.23
   0   5  25    8.08    2.32
   0   5  26   45.97    3.97
   0   5  26   44.08    4.13
   0  -5  26   45.37    3.99
   0  -5  26   46.26    4.12
   0  -5  26   47.91    4.36
   0  -5  27    0.49    1.90
   0   5  27   -1.14    1.58
   0   5  27   -0.32    1.86
   0  -5  27    1.56    1.74
   0  -5  27    0.58    1.43
   0  -5  28    1.07    1.46
   0  -5  28   -1.20    1.93
   0   5  28   -0.59    1.63
   0   5  28   -0.13    1.30
   0   5  29    0.11    1.18
   0  -5  29    0.27    1.60
   0   5  29   -1.83    1.65
   0   5  30    1.78    1.42
   0  -5  30    0.90    1.49
   0   5  31   36.56    2.82
   0   5  32   26.76    2.08
   0  -6   0  916.14   36.24
   0  -6  -1 1016.10   39.58
   0  -6   1  988.07   39.15
   0  -6  -2  501.44   21.28
   0  -6   2  497.18   20.63
   0  -6   3  713.27   28.76
   0  -6  -3  742.31   29.91
   0  -6  -4  601.23   25.19
   0  -6   4  584.72   23.75
   0  -6  -5  646.42   26.00
   0  -6   5  575.68   23.84
   0  -6   6  182.85    8.84
   0  -6  -6  217.98   11.14
   0  -6  -7  289.27   14.82
   0  -6  -8  274.67   14.57
   0  -6  -9  309.35   16.26
   0  -6 -10   68.13    6.70
   0  -6  11   47.02    4.52
   0  -6  11   46.94    3.78
   0  -6 -11   50.59    5.79
   0  -6  12   17.97    2.57
   0  -6 -12   23.60    4.41
   0  -6 -12   17.84    2.70
   0  -6  13    9.50    2.16
   0  -6 -13    8.92    3.51
   0  -6 -13    5.84    2.01
   0  -6  14   19.58    2.93
   0  -6 -14   16.91    2.70
   0  -6 -15   23.12    3.01
   0  -6  15   20.27    3.07
   0  -6 -16   18.30    2.67
   0  -6  16   18.32    3.01
   0  -6  17   29.92    3.69
   0  -6 -17   29.07    3.24
   0  -6 -18   90.07    5.97
   0  -6  18   94.52    6.51
   0  -6 -19  136.61    7.79
   0  -6  19  145.39    8.59
   0  -6  20   75.80    5.83
   0  -6 -20   73.31    5.08
   0  -6  21  119.39    7.69
   0  -6  22  153.76    9.01
   0  -6  22  160.88    9.15
   0  -6  23  198.30   10.62
   0  -6  23  213.74   10.75
   0   6  23  186.46   10.09
   0  -6  24  149.57    8.25
   0  -6  24  128.57    7.89
   0   6  24  124.13    7.52
   0  -6  25  150.80    8.42
   0  -6  25  161.68    8.68
   0   6  25  136.75    7.98
   0  -6  26  124.51    7.36
   0   6  26  126.70    7.23
   0  -6  26  141.32    7.75
   0  -6  27  184.86    9.18
   0   6  27  167.37    8.65
   0  -6  27  169.11    8.69
   0  -6  28  101.86    5.87
   0   6  28  111.74    6.09
   0  -6  28  120.46    6.56
   0  -6  29  149.25    7.28
   0   6  29  126.02    6.63
   0   6  30   52.82    3.26
   0  -7   0   -0.18    1.46
   0  -7  -1    2.71    1.87
   0  -7   1    1.02    1.42
   0  -7   2   45.52    3.81
   0  -7  -2   45.32    4.26
   0  -7  -3  415.69   18.49
   0  -7   3  384.21   17.09
   0  -7  -4  151.65    8.93
   0  -7   4  131.11    7.17
   0  -7  -5  468.33   21.60
   0  -7  -6  258.17   13.89
   0  -7   7  664.07   27.73
   0  -7  -7  664.73   26.88
   0  -7  -7  632.92   29.08
   0  -7  -8  125.13    7.91
   0  -7  -8  115.92    8.85
   0  -7  -8  121.29    7.06
   0  -7  -9  333.60   17.81
   0  -7  -9  335.21   15.40
   0  -7  -9  345.87   16.24
   0  -7 -10  225.77   11.62
   0  -7 -10  234.94   13.67
   0  -7 -10  233.83   11.22
   0  -7  10  226.37   10.82
   0  -7 -10  220.93   11.84
   0  -7  10  199.32   10.21
   0  -7 -11  596.93   24.88
   0  -7  11  613.77   24.60
   0  -7  11  583.40   25.70
   0  -7 -11  574.51   25.28
   0  -7 -11  622.57   28.21
   0  -7  11  564.70   23.95
   0  -7  12  116.60    7.10
   0  -7 -12  120.09    7.30
   0  -7 -12  122.71    9.61
   0  -7  13  249.87   12.12
   0  -7 -13  238.00   12.16
   0  -7 -14   93.43    6.47
   0  -7  14  110.20    6.93
   0  -7 -15  178.92    9.83
   0  -7  15  187.46   10.16
   0  -7 -16   56.94    4.71
   0  -7  16   57.56    5.15
   0  -7 -17  150.35    8.66
   0  -7  17  155.58    9.13
   0  -7 -18   35.39    3.65
   0  -7  18   43.71    4.48
   0  -7 -19    2.75    1.56
   0  -7  19    3.77    2.46
   0  -7 -20    0.76    1.41
   0  -7  20    1.85    2.23
   0  -7  21   34.40    3.93
   0  -7 -21   28.70    2.98
   0  -7  22   48.74    4.46
   0   7  22   37.53    3.57
   0  -7  23   35.49    3.85
   0   7  23   24.60    2.94
   0  -7  24   11.33    2.71
   0   7  24    5.75    1.75
   0  -7  24    9.52    2.43
   0  -7  25   25.98    3.26
   0  -7  25   24.60    3.12
   0   7  25   16.01    2.32
   0  -7  26   17.18    2.75
   0  -7  26   20.29    2.69
   0  -7  27    3.71    1.76
   0  -7  27    6.50    2.16
   0  -7  28    0.47    1.59
   0  -7  28    0.52    1.21
   0  -7  29    0.98    1.44
   0  -8   0  165.80    9.24
   0  -8   0  152.20    9.31
   0  -8   0  168.06    8.72
   0  -8   0  175.38   10.24
   0  -8  -1  158.28    9.87
   0  -8   1  180.51   10.50
   0  -8   1  154.23    9.35
   0  -8   1  179.37    9.73
   0  -8   1  188.41    9.19
   0  -8  -1  174.01    9.61
   0  -8  -1  171.15    8.94
   0  -8   2    2.11    2.61
   0  -8   2    5.12    1.83
   0  -8  -2    5.53    1.78
   0  -8   2    2.48    1.92
   0  -8  -2    2.53    1.79
   0  -8  -2    2.84    2.06
   0  -8  -3  325.42   15.72
   0  -8   3  287.58   14.70
   0  -8  -3  325.40   13.92
   0  -8  -3  286.60   14.28
   0  -8   3  283.62   14.25
   0  -8   3  290.78   13.55
   0  -8  -3  276.91   15.05
   0  -8  -4  272.44   13.89
   0  -8  -4  253.65   13.92
   0  -8  -4  254.72   12.81
   0  -8   4  259.46   12.08
   0  -8   4  254.10   13.09
   0  -8   4  237.30   12.67
   0  -8   5  260.90   13.87
   0  -8  -5  262.07   15.00
   0  -8   5  304.91   13.25
   0  -8  -5  274.92   13.86
   0  -8  -5  310.85   15.13
   0  -8  -6   43.80    5.17
   0  -8   6   48.07    4.72
   0  -8  -6   49.66    4.59
   0  -8   6   45.15    3.82
   0  -8  -6   49.82    5.33
   0  -8   7  107.98    7.60
   0  -8   7  118.94    6.74
   0  -8  -7  126.49    7.69
   0  -8  -7  112.53    7.03
   0  -8  -7  114.39    8.21
   0  -8  -7  100.58    8.49
   0  -8  -8   11.31    2.38
   0  -8   8   13.81    2.44
   0  -8  -8   14.14    3.56
   0  -8   8   12.03    2.18
   0  -8  -8    9.87    2.60
   0  -8  -8   10.26    3.07
   0  -8   8   14.58    3.02
   0  -8  -9   50.19    4.50
   0  -8  -9   59.13    6.39
   0  -8   9   56.07    4.26
   0  -8  -9   54.37    5.01
   0  -8 -10    4.93    2.74
   0  -8  10    1.96    1.51
   0  -8 -10    3.30    2.12
   0  -8 -10    3.47    2.00
   0  -8 -11  108.18    6.77
   0  -8  11  105.04    6.62
   0  -8 -11   88.56    6.81
   0  -8  11   85.93    5.84
   0  -8 -12   79.67    6.19
   0  -8  12   76.56    5.33
   0  -8 -12   84.49    6.07
   0  -8  12   92.44    6.22
   0  -8 -13   74.09    5.73
   0  -8  13   85.52    6.15
   0  -8 -14   42.32    4.23
   0  -8  14   40.69    4.49
   0  -8 -15  128.74    7.66
   0  -8  15  110.89    7.66
   0  -8  16    6.59    2.68
   0  -8 -16    1.70    1.86
   0  -8  17  147.05    9.06
   0  -8 -17  152.70    8.66
   0  -8 -18  113.54    6.97
   0  -8  18  110.47    7.60
   0  -8  19  220.12   11.38
   0  -8 -19  199.25   10.34
   0  -8 -20    0.15    1.40
   0  -8  20   -0.39    2.12
   0  -8  20   -1.60    2.45
   0  -8  21    4.95    2.42
   0  -8  21    1.50    2.17
   0  -8 -21    3.36    1.50
   0  -8  22   22.68    3.29
   0  -8  22   24.86    3.35
   0  -8  23  142.39    8.07
   0  -8  24   17.95    2.73
   0  -8  25   98.65    5.97
   0  -8  26   19.40    2.42
   0  -8  27   65.28    4.36
   0  -8  27   63.04    3.92
   0  -8  28   12.42    1.75
   0  -9   0    0.95    1.73
   0  -9   0    0.96    2.19
   0  -9   1    1.94    2.43
   0  -9   1    3.96    2.12
   0  -9  -1    5.31    2.03
   0  -9  -1    7.19    2.56
   0  -9  -2   -0.96    2.34
   0  -9   2    0.93    1.66
   0  -9  -2    0.19    1.72
   0  -9   2    2.93    2.43
   0  -9   3  148.63    8.61
   0  -9  -3  159.88    8.87
   0  -9  -3  160.98    9.53
   0  -9  -3  153.19   10.10
   0  -9   3  164.66    9.69
   0  -9   4   28.36    3.39
   0  -9   4   27.39    3.97
   0  -9  -4   35.46    4.15
   0  -9  -4   30.44    4.40
   0  -9  -4   29.01    3.60
   0  -9   5  622.52   27.42
   0  -9  -5  558.92   28.28
   0  -9   5  655.35   26.37
   0  -9  -5  656.64   27.49
   0  -9   6   42.22    4.01
   0  -9   6   43.80    4.07
   0  -9   6   37.37    4.72
   0  -9  -6   42.75    4.62
   0  -9  -6   35.09    4.94
   0  -9  -7  680.25   33.26
   0  -9  -7  756.20   31.78
   0  -9   7  791.11   30.97
   0  -9   7  722.31   31.95
   0  -9   7  760.56   30.69
   0  -9  -8   59.52    5.50
   0  -9   8   59.96    5.07
   0  -9   8   56.63    5.74
   0  -9   8   56.19    4.62
   0  -9  -8   55.47    4.98
   0  -9   9  807.46   33.63
   0  -9   9  844.09   35.62
   0  -9   9  861.90   34.27
   0  -9  -9  802.23   34.82
   0  -9  -9  865.85   34.47
   0  -9 -10   39.17    4.52
   0  -9 -10   41.43    4.34
   0  -9  10   38.29    3.76
   0  -9  11  859.07   35.16
   0  -9 -11  925.63   36.21
   0  -9 -11  857.74   36.40
   0  -9 -12   59.43    5.07
   0  -9 -12   42.36    4.84
   0  -9  13 1340.27   51.89
   0  -9 -13 1270.38   51.46
   0  -9 -14   93.80    6.69
   0  -9  14  103.43    7.38
   0  -9 -15 1459.62   56.38
   0  -9  15 1419.86   56.93
   0  -9  16   64.62    5.63
   0  -9 -16   62.93    5.12
   0  -9 -17  346.18   16.15
   0  -9  17  373.30   17.07
   0  -9 -18   17.98    2.63
   0  -9  18   18.94    3.41
   0  -9  18   17.49    3.02
   0  -9  19  430.62   18.67
   0  -9 -19  412.82   18.11
   0  -9  19  423.94   18.98
   0  -9 -20   39.08    3.42
   0  -9  20   41.30    4.10
   0  -9  20   46.81    4.39
   0  -9  21  664.15   26.81
   0  -9  21  634.06   26.88
   0  -9  22   28.45    3.33
   0  -9  22   24.74    3.23
   0  -9  23  152.96    8.05
   0  -9  23  153.08    8.14
   0  -9  24    2.22    1.72
   0  -9  24    3.13    1.65
   0  -9  25    1.11    1.45
   0  -9  25    1.65    1.45
   0  -9  26    0.63    1.10
   0  -9  26    0.56    1.25
   0 -10   0    9.14    2.84
   0 -10   0    7.32    3.07
   0 -10   1  505.82   22.19
   0 -10  -1  529.86   23.39
   0 -10  -1  495.96   22.16
   0 -10   1  496.56   23.15
   0 -10  -2    5.26    2.48
   0 -10   2    1.92    2.65
   0 -10   2    3.86    2.25
   0 -10  -2    5.35    2.99
   0 -10  -3  355.20   17.19
   0 -10  -3  339.95   16.24
   0 -10   3  361.26   16.28
   0 -10   3  325.33   17.11
   0 -10   4    3.91    2.21
   0 -10  -4    5.01    2.80
   0 -10   4    3.04    2.74
   0 -10  -4    5.70    2.31
   0 -10   4    1.79    2.13
   0 -10   5  138.48    8.24
   0 -10  -5  139.13    8.47
   0 -10   5  148.49    9.63
   0 -10   5  134.67    8.24
   0 -10  -5  155.59    9.46
   0 -10   6   -0.39    2.28
   0 -10   6    1.16    1.93
   0 -10  -6    2.34    2.31
   0 -10   6   -0.56    2.81
   0 -10  -7  160.44    9.96
   0 -10   7  169.86    9.23
   0 -10   7  166.53    9.37
   0 -10   7  158.08   10.44
   0 -10   8    3.18    3.02
   0 -10   8    1.64    2.38
   0 -10   8    3.84    1.91
   0 -10  -8    0.25    2.36
   0 -10  -8    4.72    2.49
   0 -10   9  293.26   13.99
   0 -10  -9  267.15   14.21
   0 -10   9  269.65   13.26
   0 -10   9  286.21   15.22
   0 -10  -9  277.47   13.81
   0 -10 -10    2.44    2.28
   0 -10 -10    3.24    2.40
   0 -10  10    2.77    1.91
   0 -10  10    1.93    2.36
   0 -10 -11  130.57    8.84
   0 -10  11  145.08    8.21
   0 -10 -12    1.05    2.17
   0 -10 -12    2.19    2.07
   0 -10 -13  109.15    7.11
   0 -10  14    0.89    2.70
   0 -10  14    1.58    1.68
   0 -10 -14    2.69    2.07
   0 -10  15    3.46    2.00
   0 -10 -15    2.72    2.06
   0 -10  15    3.42    2.50
   0 -10 -16    4.90    1.94
   0 -10  16    2.87    2.42
   0 -10  16    2.63    1.76
   0 -10  17   49.62    4.71
   0 -10  17   42.35    3.96
   0 -10 -17   54.19    4.20
   0 -10  18    1.61    1.75
   0 -10 -18    3.50    1.69
   0 -10  18    2.74    2.50
   0 -10  19    7.95    2.55
   0 -10 -19    8.46    1.82
   0 -10  19   10.04    2.07
   0 -10  20    2.75    1.62
   0 -10  20    5.11    2.15
   0 -10  21   33.68    3.31
   0 -10  21   28.41    2.89
   0 -10  22    3.87    1.62
   0 -10  22    2.72    1.72
   0 -10  23  206.18    9.58
   0 -10  23  221.68    9.88
   0 -10  24    2.36    1.39
   0 -10  24    5.62    1.37
   0 -10  25   63.66    3.60
   0 -11   0    0.85    1.87
   0 -11   0    0.21    2.11
   0 -11   0   -0.28    2.49
   0 -11  -1  111.93    7.08
   0 -11  -1   99.87    7.58
   0 -11   1  107.63    7.85
   0 -11  -1   90.06    6.14
   0 -11   1  105.10    6.94
   0 -11   1   95.81    6.34
   0 -11   2    0.41    2.03
   0 -11   2   -0.18    1.90
   0 -11  -2    1.64    2.66
   0 -11   2    0.28    2.72
   0 -11  -2   -0.21    2.16
   0 -11  -3    1.62    2.57
   0 -11   3    0.41    2.01
   0 -11  -3    0.84    2.05
   0 -11   3    0.91    1.87
   0 -11   3    1.98    2.56
   0 -11   4   -1.01    2.17
   0 -11  -4    3.45    2.44
   0 -11  -4   -0.84    2.13
   0 -11   4   -0.57    2.68
   0 -11   4   -0.37    1.96
   0 -11   5  125.12    9.18
   0 -11   5  138.42    8.19
   0 -11   5  134.29    8.01
   0 -11  -5  142.75    8.41
   0 -11  -5  130.88    8.79
   0 -11   6    2.28    2.14
   0 -11   6    2.89    3.30
   0 -11   6    1.17    2.14
   0 -11  -6   -0.26    2.38
   0 -11  -7  207.08   11.76
   0 -11   7  221.12   12.64
   0 -11   7  211.10   10.99
   0 -11   7  219.07   11.25
   0 -11   8   -0.89    1.90
   0 -11   8   -0.81    2.32
   0 -11  -8    3.62    2.41
   0 -11  -9  121.54    8.22
   0 -11  -9  136.59    8.10
   0 -11   9  134.10    8.15
   0 -11   9  129.22    7.59
   0 -11 -10    4.12    2.27
   0 -11 -10    1.43    2.09
   0 -11  10    2.29    2.37
   0 -11 -11  282.59   14.83
   0 -11 -11  323.30   15.17
   0 -11 -12    1.13    1.93
   0 -11 -13  495.64   21.35
   0 -11 -14    7.26    2.30
   0 -11 -15  850.13   33.90
   0 -11  16    4.11    2.47
   0 -11 -16    1.37    1.76
   0 -11 -17  592.96   24.21
   0 -11  17  613.31   25.02
   0 -11 -18    4.90    1.39
   0 -11  18    4.94    2.14
   0 -11  19  364.20   15.79
   0 -11  20   -1.05    1.62
   0 -11  21  154.64    7.54
   0 -11  22   -0.59    1.22
   0 -11  23   36.27    2.55
   0 -12   0   25.74    4.12
   0 -12   0   23.15    3.45
   0 -12   0   27.42    3.18
   0 -12  -1  109.40    6.75
   0 -12   1  100.49    6.61
   0 -12  -1   96.50    7.24
   0 -12   1   99.04    7.52
   0 -12  -1   94.63    5.96
   0 -12   1   92.55    6.11
   0 -12   2    7.27    3.48
   0 -12  -2    5.38    2.87
   0 -12  -2    6.20    1.93
   0 -12   2   11.91    2.85
   0 -12  -2    3.79    2.27
   0 -12   2    9.63    2.58
   0 -12  -3   35.47    4.38
   0 -12   3   32.68    3.77
   0 -12   3   36.55    3.58
   0 -12  -3   27.21    2.96
   0 -12   3   33.14    4.66
   0 -12  -3   30.90    3.65
   0 -12  -4    2.06    2.13
   0 -12   4    3.55    2.22
   0 -12   4    0.18    1.96
   0 -12  -4    4.92    2.62
   0 -12   4    1.84    2.79
   0 -12  -5    5.01    2.52
   0 -12   5    5.16    2.31
   0 -12   5    5.86    2.23
   0 -12  -5    6.50    2.35
   0 -12   6    2.83    2.11
   0 -12   6    3.52    2.11
   0 -12  -6    1.32    2.23
   0 -12   7    1.76    1.79
   0 -12   7   -0.18    2.28
   0 -12  -7    0.21    2.11
   0 -12   8   -0.54    2.33
   0 -12  -8    1.56    1.95
   0 -12   8    0.45    1.59
   0 -12   9   -1.08    2.23
   0 -12  -9    3.02    1.84
   0 -12  -9   -1.04    1.96
   0 -12 -10    2.35    1.88
   0 -12  10    5.46    2.28
   0 -12  11   29.95    3.56
   0 -12 -11   30.22    3.24
   0 -12  12   -0.16    1.98
   0 -12 -12    1.02    1.62
   0 -12  13    0.31    1.89
   0 -12 -13    2.14    1.58
   0 -12 -14    3.98    1.59
   0 -12 -15   17.59    2.12
   0 -12 -16    0.73    1.12
   0 -12 -17   17.78    1.82
   0 -12  17   17.60    2.42
   0 -12  18   -0.39    1.34
   0 -12  19   28.56    2.48
   0 -12  20    1.16    0.92
   0 -13   0   -0.30    1.71
   0 -13  -1   75.54    5.08
   0 -13  -1   63.77    5.49
   0 -13   1   80.85    5.18
   0 -13   2   12.84    2.37
   0 -13  -2   14.59    2.56
   0 -13   2   11.78    2.23
   0 -13  -2   14.03    2.86
   0 -13  -3  198.65    9.42
   0 -13  -3  174.36    9.70
   0 -13   3  191.57    9.24
   0 -13   3  163.46    8.76
   0 -13   4   15.50    2.43
   0 -13  -4   18.20    2.78
   0 -13  -4   15.91    2.91
   0 -13   4   14.36    2.44
   0 -13   5   68.20    4.79
   0 -13  -5   66.19    5.17
   0 -13   5   70.03    4.78
   0 -13  -5   79.95    5.12
   0 -13   6    9.21    2.17
   0 -13  -6   11.22    2.25
   0 -13  -6    8.81    2.24
   0 -13   7  347.98   14.17
   0 -13  -7  286.89   13.90
   0 -13   8   54.81    4.10
   0 -13   9  341.73   14.82
   0 -13  10   20.86    2.64
   0 -13 -10   24.34    2.66
   0 -13 -11  664.96   25.73
   0 -13  11  626.28   25.68
   0 -13 -12  101.94    5.38
   0 -13  12   94.21    5.47
   0 -13  13  591.75   23.74
   0 -13 -13  605.04   23.52
   0 -13  14   30.07    2.60
   0 -13 -14   27.75    2.24
   0 -13  15  420.03   15.92
   0 -13 -15  374.19   15.30
   0 -14   0    2.36    1.31
   0 -14   1    0.19    1.19
   0 -14  -1   -0.10    1.28
   0 -14  -2    0.20    1.21
   0 -14  -3    3.09    1.34
   0 -14  -4   -0.10    1.26
   0 -14  -5    3.96    1.37
   0 -14  -6    1.77    1.24
   0 -14   7    2.52    0.99
   0 -14   8    1.41    0.86
   0 -14  -9    4.66    1.17
   0 -14 -10    0.44    0.81
  -1   0  33   -0.66    1.30
  -1   0  32    5.02    1.82
  -1   0  31   -0.77    1.73
  -1   0  30    2.76    2.12
  -1   0  29    0.76    2.13
  -1   0  28    6.52    2.50
  -1   0  27    0.21    2.19
  -1   0  26    2.42    2.28
   1   0 -26    6.29    3.12
  -1   0  25   -1.11    2.21
  -1   0  25    0.36    1.75
   1   0 -25    0.46    2.76
   1   0 -24   -0.45    2.79
  -1   0  24    0.18    1.72
  -1   0  24    1.32    2.23
  -1   0  23   -0.22    1.99
   1   0 -23    1.34    2.73
  -1   0  23    1.64    1.85
  -1   0  23    1.05    1.82
  -1   0  22    5.05    2.23
  -1   0  22    6.59    2.05
  -1   0  22    3.04    1.92
   1   0 -22    6.03    3.16
  -1   0  21    1.57    1.95
  -1   0  21    0.65    1.66
  -1   0  21    1.01    1.83
   1   0 -21   -0.82    2.86
  -1   0  21   -1.04    1.87
  -1   0  20    1.33    1.66
   1   0 -20    7.03    3.23
  -1   0  20    2.29    1.69
  -1   0  20    1.29    1.89
  -1   0  20    3.48    1.94
   1   0 -19    1.47    2.86
  -1   0  19    0.55    1.64
  -1   0  19    1.41    1.63
  -1   0  19    2.15    1.56
  -1   0  19    3.81    1.85
   1   0 -18    1.72    2.68
  -1   0  18    3.61    1.80
  -1   0  18    5.01    1.86
   1   0 -17    0.96    2.62
   1   0 -16    1.49    2.84
   1   0 -15    2.20    2.63
   1   0 -14    1.02    2.70
   1   0 -13    0.70    2.55
   1   0 -12   12.43    3.17
   1   0 -11    2.32    2.39
   1   0 -11    0.45    1.82
   1   0 -10   -0.82    1.69
   1   0  -9    1.07    1.52
   1   0  -8    7.89    1.75
   1   0  -7   -0.25    1.37
   1   0  -6    1.95    1.29
   1   0  -5    0.18    1.09
  -1   0   5    0.44    1.51
  -1   0   4    6.15    1.55
   1   0  -4    5.46    1.18
  -1   0   3   -0.32    1.22
  -1   0   2    7.82    1.32
  -1   0   1    0.31    0.91
  -1   0   0    4.42    1.06
  -1   0  -1    0.21    0.96
  -1   0  -2    5.02    1.32
  -1   0  -3    0.37    1.23
  -1   0  -4    6.31    1.56
  -1   0  -5    0.08    1.65
  -1   0  -6    2.12    1.77
  -1   0  -7   -0.11    1.88
  -1   0  -8    8.25    2.28
  -1   0  -9   -0.15    2.11
  -1   0 -10    1.01    2.10
  -1   0 -11    0.56    2.28
   1   0  12    6.56    1.21
  -1   0 -12    9.82    2.95
  -1   0 -13   -0.89    2.46
  -1   0 -14    2.92    2.66
  -1   0 -15   -0.53    2.58
  -1   0 -16    4.89    2.79
  -1   0 -17   -0.31    2.95
  -1   0 -18    4.37    3.11
  -1   0 -18    2.72    1.65
   1   0  18    1.83    1.51
  -1   0 -19    0.36    2.58
   1   0  19   -0.53    1.58
  -1   0 -20   10.47    3.74
   1   0  20    5.28    2.07
   1   0  21   -0.40    2.02
  -1   0 -21    1.25    2.84
  -1   0 -22    2.19    3.00
   1   0  22    1.24    1.91
   1   0  23   -1.29    2.20
  -1   0 -23    1.84    3.05
  -1   0 -24   -0.47    2.74
   1   0  24    0.87    2.10
  -1   0 -25    1.44    3.10
   1   0  25   -0.66    2.14
  -1   0 -26   -0.96    2.83
   1   0  26    1.74    2.24
   1   0  27    1.48    2.28
   1   0  27   -0.62    2.28
   1   0  28    1.01    2.17
   1   0  28   -1.18    2.15
   1   0  29    0.55    2.07
   1   0  29    0.37    2.18
   1   0  30    0.34    1.87
   1   0  30   -0.17    1.86
   1   0  31   -0.30    1.71
   1   0  31    1.60    1.75
  -1   0 -32    0.14    1.37
   1   0  32    1.22    1.47
   1   0  32    2.20    1.55
   1   0  33    1.16    1.23
   1   0  33    2.11    1.36
   1   0  34    0.47    0.83
   1   0  34    0.48    0.95
  -1  -1  34    2.68    1.05
  -1   1  34    3.39    1.15
  -1   1  33  180.63    8.24
  -1  -1  33  162.99    8.08
  -1   1  32    1.42    1.52
  -1   1  32    4.05    1.73
  -1  -1  32    1.63    1.56
  -1  -1  31   32.96    3.59
  -1   1  31   38.47    3.62
  -1   1  31   32.48    3.47
  -1   1  30   -1.19    1.88
  -1  -1  30    0.69    1.81
  -1   1  30   -0.17    1.88
  -1  -1  29   37.07    4.26
  -1   1  29   38.37    4.18
  -1   1  29   31.36    3.85
  -1   1  28    1.20    2.13
  -1  -1  28    0.83    2.15
  -1   1  28    3.42    2.36
  -1  -1  27    8.46    2.34
  -1   1  27   13.09    2.90
  -1   1  27   14.14    3.03
  -1  -1  27   16.06    3.21
  -1   1  26    1.30    2.16
  -1  -1  26    3.48    2.12
  -1  -1  26    2.67    2.47
  -1   1  26    2.39    2.07
  -1   1  26    4.33    2.93
   1  -1 -26    1.34    2.78
   1   1 -26    2.21    2.61
  -1  -1  26    3.06    3.04
  -1   1  25   15.29    4.30
  -1  -1  25   16.13    2.90
  -1  -1  25   15.01    3.10
   1   1 -25   13.46    3.89
  -1   1  25   18.03    3.35
  -1   1  25   15.77    3.07
  -1  -1  25   17.62    4.51
  -1  -1  25   15.68    2.79
  -1  -1  24    3.19    2.06
  -1  -1  24    2.35    2.15
  -1   1  24    4.78    2.38
  -1   1  24    5.92    2.45
  -1  -1  24    3.92    3.27
  -1  -1  24    1.33    2.27
   1   1 -24    4.03    3.24
  -1   1  24    2.17    2.84
  -1   1  23  589.49   29.83
  -1   1  23  618.43   26.81
   1   1 -23  611.25   30.27
  -1   1  23  623.57   26.80
  -1  -1  23  637.19   26.36
  -1  -1  23  639.54   26.57
  -1  -1  23  645.80   26.93
  -1   1  22   14.57    2.59
  -1  -1  22   16.26    2.94
  -1  -1  22   21.46    3.00
  -1   1  22   15.06    4.16
   1   1 -22   20.81    4.39
  -1  -1  22   20.01    3.37
  -1   1  22   15.32    3.00
  -1   1  22   16.30    2.97
  -1  -1  21  524.03   22.34
  -1   1  21  509.10   22.30
  -1   1  21  530.31   22.98
  -1  -1  21  517.08   22.59
   1   1 -21  520.43   26.09
  -1   1  21  546.13   22.91
  -1   1  21  544.60   26.03
  -1  -1  21  539.21   22.98
  -1  -1  20   11.89    2.42
  -1   1  20    9.80    2.28
  -1  -1  20   12.96    2.62
  -1   1  20   16.99    4.04
  -1   1  20   11.50    2.25
  -1   1  20   12.98    2.61
  -1   1  20   14.13    2.72
   1   1 -20   15.04    3.76
  -1  -1  20   11.74    2.37
  -1   1  19 2195.76   82.56
  -1  -1  19 2056.37   78.53
  -1  -1  19 2051.16   79.04
  -1   1  19 2093.41   79.24
   1   1 -19 2222.90   82.89
  -1  -1  19 2019.74   79.12
  -1   1  19 2037.16   78.28
  -1  -1  19 2083.02   78.83
  -1   1  19 2042.03   78.60
  -1  -1  18   25.97    2.98
  -1   1  18   25.39    4.45
  -1  -1  18   27.97    3.28
  -1  -1  18   26.41    3.29
  -1   1  18   29.18    3.37
   1   1 -18   36.86    5.05
  -1   1  17  828.63   36.47
   1   1 -17  879.17   37.02
  -1   1  16   19.89    3.89
   1   1 -16   22.03    4.01
   1   1 -15 2234.76   84.33
  -1   1  15 2094.39   83.66
   1   1 -14   18.64    3.90
  -1   1  14   24.44    3.93
  -1   1  13 1480.51   57.65
   1  -1 -13 1468.90   57.65
   1   1 -13 1429.95   58.21
   1   1 -12   41.07    4.38
   1  -1 -12   35.97    4.13
   1   1 -11 4091.20  152.80
   1  -1 -11 4065.39  152.38
   1  -1 -10   20.56    2.89
  -1   1   9  755.11   27.79
   1  -1  -9  617.40   27.19
   1  -1  -8   30.29    2.91
  -1   1   8   30.79    3.16
   1   1  -7 3139.73  115.48
  -1   1   7 3168.26  116.26
   1  -1  -7 3049.59  116.04
   1  -1  -6   14.18    2.05
   1   1  -6   14.69    1.64
  -1   1   6   16.38    2.45
   1   1  -5  114.73    5.14
   1  -1  -5  125.50    6.01
  -1   1   4    7.34    1.57
   1   1  -4    6.09    0.84
  -1   1   4    7.74    1.64
  -1   1   3  106.50    5.63
  -1   1   3  147.81    5.93
  -1   1   2   13.98    1.59
  -1   1   1  134.39    5.88
  -1   1   0   46.72    2.68
  -1   1  -1  285.55   11.44
   1   1   2   29.47    2.17
  -1   1  -2   32.09    2.24
   1   1   3  680.61   26.48
  -1   1  -3  707.84   26.58
  -1   1  -4    2.01    1.42
  -1   1  -5  256.18   10.92
  -1   1  -6   56.69    3.87
  -1   1  -7 2610.59   97.69
  -1   1  -8   14.82    2.56
  -1   1  -9 1872.43   71.25
  -1   1 -10   67.95    5.11
  -1   1 -11 2521.59   88.16
   1  -1  11 2186.48   86.35
   1  -1  12   20.38    2.42
  -1   1 -12   25.80    3.56
   1  -1  13 2896.35  110.54
  -1   1 -13 3151.11  113.02
  -1   1 -14   73.04    6.09
  -1   1 -15 1911.22   74.85
  -1   1 -16    8.54    3.09
  -1   1 -17  892.55   38.17
   1   1  18   26.60    3.17
   1  -1  18   23.43    3.08
  -1   1 -18   29.58    4.71
  -1   1 -18   26.18    3.02
  -1   1 -19 1373.88   50.78
  -1   1 -19 1461.79   54.73
   1   1  19 1223.39   50.63
   1  -1  19 1224.40   50.71
  -1   1 -20    9.22    3.23
  -1   1 -20    9.85    2.18
   1   1  20    9.38    2.32
  -1   1 -21  440.10   22.28
   1   1  21  405.79   18.69
   1   1  22   17.34    2.94
   1  -1  22   11.04    2.37
  -1   1 -22   16.04    4.32
   1   1  23  220.22   11.53
   1  -1  23  186.57   10.42
   1   1  24    2.17    2.22
  -1   1 -24    3.73    3.05
   1  -1  24    2.92    1.71
  -1   1 -25   11.34    3.83
   1  -1  25    4.20    2.34
   1   1  25    4.80    2.49
   1  -1  25    4.62    1.97
  -1   1 -26   -1.88    3.26
   1   1  26   -1.29    2.25
   1   1  26    2.08    2.55
   1  -1  26   -1.68    2.95
   1  -1  26   -0.63    2.38
   1   1  27   16.78    3.19
   1  -1  27   20.92    3.30
   1  -1  28    1.15    2.09
   1   1  28    1.00    2.27
   1  -1  29   96.79    6.33
   1   1  29   90.24    6.35
   1   1  30    0.50    1.87
   1  -1  30    3.97    1.86
   1  -1  31   63.86    4.48
   1   1  31   56.96    4.52
  -1   1 -32    1.89    1.34
   1  -1  32    3.06    1.48
   1   1  32    1.90    1.54
   1   1  33  296.37   12.34
   1   1  33  280.54   12.26
   1  -1  33  274.12   11.91
   1   1  34    2.93    1.09
   1   1  34    1.95    0.99
  -1   2  34    0.89    0.90
  -1  -2  33    1.04    1.14
  -1   2  33    3.31    1.33
  -1  -2  32    0.57    1.40
  -1  -2  32    0.12    1.39
  -1   2  32   -0.94    1.63
  -1   2  32   -0.60    1.48
  -1  -2  31   67.48    4.72
  -1   2  31   61.84    4.56
  -1  -2  31   65.03    4.74
  -1   2  31   64.89    4.71
  -1   2  30    6.95    2.26
  -1   2  30    6.24    2.17
  -1  -2  30    6.47    2.19
  -1  -2  30    4.92    2.08
  -1   2  29   18.63    3.01
  -1  -2  29   25.93    3.31
  -1   2  29   18.63    3.02
  -1  -2  29   22.19    3.19
  -1   2  28    2.49    2.16
  -1  -2  28    1.88    1.83
  -1  -2  28    2.18    2.21
  -1  -2  28    3.96    2.44
  -1   2  28    4.84    2.27
  -1  -2  27   23.81    3.83
  -1  -2  27   25.44    3.51
  -1   2  27   30.09    3.84
  -1  -2  27   24.90    3.75
  -1  -2  27   26.27    3.64
  -1   2  27   24.28    3.72
  -1   2  26    9.54    2.62
   1   2 -26    5.98    3.10
  -1  -2  26    9.09    2.79
   1  -2 -26   13.01    3.87
  -1   2  26    9.42    2.74
  -1  -2  26    9.82    2.84
  -1  -2  26    9.53    2.51
  -1  -2  26    8.66    2.63
  -1   2  25  197.34   13.95
  -1   2  25  222.49   11.64
  -1  -2  25  226.84   11.79
  -1   2  25  207.70   11.40
  -1  -2  25  216.01   11.47
   1   2 -25  207.29   14.20
  -1  -2  25  198.40   14.07
   1  -2 -25  196.32   13.96
  -1  -2  25  223.25   11.68
  -1  -2  25  232.35   11.49
  -1  -2  24   31.49    4.13
   1  -2 -24   28.17    5.39
   1   2 -24   40.28    5.97
  -1   2  24   34.06    4.10
  -1  -2  24   29.81    5.32
  -1  -2  24   30.40    4.00
  -1  -2  24   44.42    4.27
  -1   2  24   35.45    4.18
  -1  -2  24   34.72    4.12
  -1   2  24   25.65    5.17
   1   2 -23  503.40   26.26
  -1   2  23  499.03   25.97
   1  -2 -23  532.90   26.64
  -1  -2  23  522.67   23.03
  -1   2  23  527.23   23.03
  -1  -2  23  519.61   22.97
  -1  -2  23  507.32   26.16
  -1  -2  23  532.39   22.63
  -1   2  23  516.45   22.90
  -1  -2  23  555.29   23.23
  -1   2  22   33.20    3.87
   1   2 -22   35.09    5.43
   1  -2 -22   23.45    4.99
  -1  -2  22   32.70    3.89
  -1  -2  22   38.33    5.65
  -1   2  22   30.95    5.15
  -1  -2  22   32.77    3.87
  -1  -2  22   33.43    3.70
  -1  -2  22   33.77    3.91
  -1   2  22   31.76    3.86
  -1  -2  21   45.44    4.39
  -1   2  21   49.67    4.40
  -1   2  21   50.96    6.37
  -1  -2  21   50.54    4.60
   1   2 -21   52.24    6.22
  -1   2  21   45.78    4.49
  -1  -2  21   53.31    4.70
   1  -2 -21   46.49    6.00
  -1  -2  21   52.74    6.29
  -1  -2  21   50.28    4.34
   1  -2 -20    9.90    3.48
  -1   2  20    4.81    2.17
  -1  -2  20    5.13    2.19
  -1  -2  20    7.34    3.22
  -1   2  20   10.35    3.54
  -1  -2  20    4.03    2.02
  -1  -2  20    6.40    2.37
   1   2 -20   10.55    3.50
  -1  -2  20    8.18    2.19
   1   2 -19   94.37    8.15
  -1  -2  19   94.11    6.23
  -1   2  19   90.75    6.16
   1  -2 -19   90.22    8.06
  -1  -2  19   91.70    6.14
  -1  -2  19   92.76    5.93
  -1  -2  19   92.29    7.91
  -1  -2  19   94.66    6.21
  -1   2  19  108.75    8.50
   1   2 -18   16.01    3.76
   1  -2 -18   19.82    3.94
  -1  -2  18   22.81    2.85
  -1  -2  18   20.57    2.86
  -1   2  18   18.00    2.73
  -1  -2  18   20.45    4.03
  -1  -2  18   23.95    2.79
  -1   2  18   21.01    4.18
  -1  -2  18   19.13    2.83
  -1  -2  17    1.55    1.60
  -1  -2  17    2.73    2.43
   1   2 -17   -0.31    2.60
  -1   2  17    3.06    2.61
   1  -2 -17    0.94    2.43
  -1  -2  16    3.66    2.81
  -1   2  16    6.53    2.95
   1  -2 -16    8.38    3.13
   1   2 -16    6.04    3.00
   1  -2 -15  233.75   12.67
  -1  -2  15  230.72   12.59
   1   2 -15  210.85   12.33
   1  -2 -15  228.25   12.73
  -1   2  15  225.48   12.49
   1   2 -14    3.70    2.69
   1  -2 -14    6.15    2.61
  -1   2  14    1.20    2.56
   1  -2 -14    3.96    2.45
  -1  -2  14    2.64    2.41
   1   2 -13 1157.60   46.26
   1  -2 -13 1226.33   46.69
  -1  -2  13 1131.26   46.09
  -1   2  13 1130.88   46.07
   1  -2 -13 1116.96   46.15
   1  -2 -12   69.12    5.60
   1  -2 -12   69.73    5.64
  -1  -2  12   72.80    5.59
  -1   2  12   62.67    5.27
   1   2 -12   58.27    5.26
   1  -2 -11  107.98    7.40
  -1   2  11  128.17    7.56
   1  -2 -11  137.84    8.04
  -1  -2  11  111.19    7.41
   1   2 -11  126.95    7.75
   1   2 -10    6.47    2.56
  -1  -2  10    7.45    2.42
   1  -2 -10    8.71    2.42
   1  -2 -10    4.27    2.37
  -1   2  10    6.07    2.23
  -1  -2   9  372.49   15.39
   1  -2  -9  368.83   15.52
   1  -2  -9  320.84   13.58
  -1   2   9  370.87   15.32
   1  -2  -8    9.00    2.25
  -1  -2   8    9.75    2.24
  -1   2   8    7.55    2.08
   1  -2  -7  257.22   11.92
  -1  -2   7  255.45   11.58
  -1   2   7  277.03   11.71
   1  -2  -6    1.67    1.75
  -1   2   6    1.50    1.54
   1  -2  -5 1108.79   42.42
  -1  -2   5 1079.87   41.75
  -1   2   5 1115.84   41.81
  -1   2   4   51.27    3.29
  -1  -2   4   58.74    3.39
  -1  -2   4   46.75    3.22
  -1   2   4   58.51    3.41
  -1   2   3   79.91    4.10
  -1  -2   3   68.77    3.89
  -1   2   2   13.01    1.63
  -1  -2   2   11.37    1.51
  -1  -2   1  774.95   29.25
  -1   2   1  767.66   29.20
  -1   2   0   51.59    2.86
  -1  -2   0   51.06    2.87
  -1  -2  -1 5287.53  197.42
   1  -2   1 5332.14  197.40
  -1   2  -1 5489.58  197.47
   1   2   1 5376.35  197.41
   1  -2   2  124.32    5.52
   1   2   2  119.85    5.48
  -1   2  -3  577.70   22.56
  -1  -2  -3  590.82   22.65
  -1  -2  -4   94.32    4.81
  -1   2  -4   92.21    4.77
  -1   2  -5  383.57   15.75
  -1  -2  -5  380.15   15.70
  -1   2  -6    6.54    1.67
  -1  -2  -6    2.17    1.55
  -1   2  -7  255.54   11.20
  -1  -2  -7  241.37   11.07
  -1   2  -8    3.22    1.90
  -1  -2  -8    4.14    1.94
   1  -2   9  204.86   10.87
  -1   2  -9  232.09   10.76
  -1  -2  -9  224.20   10.71
   1  -2  10   23.27    3.22
  -1  -2 -10   30.21    3.50
  -1   2 -10   25.49    3.27
  -1   2 -11  427.10   18.89
  -1  -2 -11  439.33   19.05
   1  -2  11  417.81   18.61
  -1  -2 -12   15.10    3.06
  -1   2 -12   20.85    3.26
  -1  -2 -13  406.83   16.84
  -1   2 -13  437.08   17.08
  -1   2 -14   14.02    3.13
  -1  -2 -14   12.19    3.10
   1  -2  14   14.09    2.27
  -1  -2 -15   80.35    7.06
  -1   2 -15  102.29    7.49
  -1  -2 -16   13.97    3.32
  -1   2 -16   10.79    3.08
  -1  -2 -17    5.63    2.74
   1  -2  17    6.24    1.87
   1   2  17    4.06    1.73
  -1   2 -17    4.90    2.66
   1  -2  18    6.18    2.10
  -1   2 -18    5.72    1.95
  -1   2 -18    7.92    2.97
   1   2  18    5.86    1.96
  -1  -2 -18    9.08    3.10
  -1   2 -19   19.84    2.80
   1   2  19   13.17    2.78
  -1  -2 -19   19.79    4.51
   1  -2  19   16.59    3.03
  -1   2 -19   24.10    4.50
  -1  -2 -20   19.93    4.28
  -1   2 -20   20.83    4.16
  -1   2 -20   15.92    2.61
   1   2  20   17.51    2.84
   1  -2  20   18.32    2.96
  -1  -2 -21   26.43    4.97
  -1   2 -21   23.77    4.65
   1   2  21   29.07    3.60
   1  -2  21   27.93    3.65
  -1  -2 -22    6.81    3.49
  -1   2 -22    5.49    3.57
   1  -2  22   10.32    2.70
   1   2  22    7.22    2.47
  -1   2 -23  780.63   36.78
   1   2  23  816.44   33.15
   1  -2  23  803.47   33.19
   1  -2  23  805.95   32.95
  -1  -2 -23  760.49   36.58
  -1   2 -24   66.97    7.87
   1  -2  24   78.00    6.04
   1  -2  24   79.52    5.60
   1  -2  24   77.06    5.90
  -1  -2 -24   78.21    8.28
   1   2  24   80.37    6.08
   1  -2  25  107.31    9.79
   1   2  25  102.94    9.80
  -1   2 -25  119.59   10.47
   1  -2  25  118.15    7.94
  -1  -2 -25  104.00    9.93
   1   2  25  134.69    8.20
   1  -2  25  120.38    7.43
   1  -2  25  150.25    8.31
   1  -2  26    1.33    1.79
   1  -2  26    1.41    1.89
   1  -2  26    3.00    2.20
   1   2  26    0.21    2.16
   1  -2  27  110.79    6.89
   1   2  27  116.57    7.54
   1  -2  27  129.88    7.67
   1  -2  27  119.41    7.59
   1  -2  28   13.57    2.41
   1   2  28   14.29    2.80
   1  -2  28   18.55    2.97
   1   2  28   13.41    2.95
   1  -2  28   16.96    2.79
   1  -2  29    8.32    2.42
   1   2  29    9.34    2.62
   1   2  29    5.87    2.31
   1  -2  29    9.52    2.43
   1  -2  30    4.47    1.86
   1  -2  30    7.63    2.20
   1   2  30    5.92    2.05
   1   2  30    1.92    1.91
   1  -2  31   75.83    4.93
   1   2  31   77.41    5.25
   1  -2  31   82.64    5.27
   1   2  31   83.82    5.35
   1  -2  32   10.44    1.95
  -1   2 -32    7.65    1.73
   1   2  32   11.21    1.89
  -1  -2 -32    7.29    1.72
   1   2  32   10.90    2.09
   1  -2  32    9.32    1.64
   1   2  33   13.33    1.92
   1   2  33   15.53    1.89
   1  -2  33   14.71    1.89
   1  -2  34    3.76    1.00
   1   2  34    5.72    1.05
  -1   3  33   99.55    5.08
  -1  -3  32   12.78    1.81
  -1   3  32   15.37    2.10
  -1  -3  31   97.82    5.87
  -1  -3  31   97.38    5.72
  -1   3  31   96.35    5.79
  -1   3  31   99.48    5.78
  -1   3  30    5.40    1.90
  -1   3  30    7.24    2.03
  -1  -3  30    3.70    1.88
  -1  -3  30    5.37    1.91
  -1   3  29   18.50    2.77
  -1   3  29   21.00    3.00
  -1  -3  29   21.40    2.93
  -1  -3  29   23.77    3.12
  -1  -3  29   19.47    2.55
  -1   3  28    2.53    1.93
  -1  -3  28    5.25    2.17
  -1  -3  28    2.41    1.86
  -1  -3  28    0.32    1.90
  -1  -3  28    1.27    2.03
  -1   3  28    0.89    1.97
  -1   3  27   23.80    3.30
  -1  -3  27   24.92    3.28
  -1  -3  27   18.34    3.14
  -1   3  27   24.71    3.40
  -1  -3  27   22.39    3.28
  -1  -3  27   28.33    3.49
  -1   3  26    2.83    2.09
  -1  -3  26   -0.21    2.07
  -1   3  26   -0.40    2.05
  -1  -3  26    3.72    2.24
  -1  -3  26    1.66    2.15
  -1  -3  26    1.52    2.20
   1   3 -25   23.52    5.25
  -1  -3  25   16.82    4.86
  -1   3  25   32.11    4.16
  -1  -3  25   31.19    3.98
  -1  -3  25   22.68    3.78
  -1  -3  25   31.66    4.00
  -1  -3  25   22.13    3.89
  -1   3  25   30.61    4.08
  -1   3  25   19.01    4.88
   1  -3 -25   21.06    5.25
  -1  -3  24   12.13    2.84
  -1  -3  24    9.12    2.71
   1  -3 -24    9.65    3.45
  -1   3  24    9.40    2.69
   1   3 -24    8.64    3.45
  -1   3  24    6.99    2.59
  -1  -3  24    9.68    3.63
  -1  -3  24    7.67    2.51
  -1   3  24    4.98    3.31
  -1  -3  24    9.91    2.64
  -1   3  23   17.49    2.97
   1   3 -23   13.56    3.92
  -1  -3  23   18.93    3.21
  -1  -3  23   18.75    3.16
  -1   3  23   16.45    3.95
  -1   3  23   16.18    3.02
  -1  -3  23   16.92    3.00
  -1  -3  23   19.34    3.34
   1  -3 -23   19.67    4.27
  -1  -3  23   15.76    4.10
  -1  -3  22   14.82    2.96
   1  -3 -22   11.39    3.41
  -1  -3  22   15.14    3.16
  -1  -3  22   17.48    3.02
  -1   3  22   11.61    2.69
   1   3 -22   11.62    3.69
  -1   3  22   18.44    3.02
  -1  -3  22   15.74    4.21
  -1   3  22   16.08    4.01
  -1  -3  22   17.14    2.94
   1  -3 -21  248.64   15.58
  -1  -3  21  240.52   12.90
  -1  -3  21  246.18   15.49
  -1   3  21  262.29   15.86
  -1  -3  21  246.90   12.82
   1   3 -21  258.54   15.52
  -1  -3  21  238.88   12.80
  -1   3  21  279.74   13.10
  -1   3  21  260.15   12.80
  -1  -3  21  254.95   12.56
   1  -3 -20  113.99    9.29
  -1   3  20  117.47    9.41
  -1  -3  20  115.44    9.31
  -1   3  20  106.75    7.05
   1   3 -20   98.79    8.89
  -1  -3  20   99.19    6.93
  -1  -3  20  111.17    6.85
  -1  -3  20  108.57    7.17
  -1  -3  20  111.13    7.30
   1   3 -19  754.71   33.25
   1  -3 -19  723.56   33.11
  -1  -3  19  731.56   30.39
  -1  -3  19  741.16   30.36
  -1   3  19  766.62   33.39
  -1  -3  19  756.00   33.24
  -1   3  19  744.92   30.40
  -1  -3  19  707.38   30.26
  -1  -3  19  740.27   30.12
  -1  -3  18  244.76   11.71
  -1  -3  18  241.10   11.90
  -1   3  18  233.26   13.99
  -1   3  18  236.32   11.82
  -1  -3  18  249.65   14.19
  -1  -3  18  230.00   11.77
   1  -3 -18  271.18   14.52
  -1  -3  18  238.52   11.90
   1   3 -18  257.41   14.33
   1  -3 -17 1573.65   60.35
  -1  -3  17 1457.46   57.38
  -1  -3  17 1432.77   57.11
  -1  -3  17 1521.69   60.09
  -1  -3  17 1391.55   57.24
  -1   3  17 1604.02   60.47
  -1  -3  17 1504.37   57.43
   1   3 -17 1529.11   60.15
  -1   3  17 1514.76   57.49
   1  -3 -16  216.29   12.85
  -1   3  16  235.58   13.13
   1   3 -16  246.03   13.19
   1  -3 -16  214.15   13.36
  -1  -3  16  225.44   12.98
   1  -3 -15  768.40   32.70
  -1   3  15  749.02   32.68
   1  -3 -15  740.42   33.48
  -1  -3  15  776.87   32.81
   1   3 -15  784.01   32.83
   1  -3 -14  159.71   10.71
   1  -3 -14  183.53   10.41
  -1  -3  14  174.91   10.33
   1   3 -14  175.79   10.20
  -1   3  14  168.52   10.21
   1   3 -13 1532.41   59.04
  -1   3  13 1472.89   58.95
   1  -3 -13 1543.74   59.09
   1  -3 -13 1531.68   59.98
  -1  -3  13 1418.46   58.83
  -1  -3  12  288.09   14.62
   1  -3 -12  311.21   15.43
  -1   3  12  300.35   14.67
   1  -3 -12  318.84   14.89
   1   3 -12  302.11   14.68
   1  -3 -11 1472.66   57.22
   1  -3 -11 1513.22   56.63
  -1  -3  11 1371.62   56.20
  -1   3  11 1432.20   56.32
   1   3 -11 1461.00   56.52
  -1   3  10  348.82   15.34
   1  -3 -10  347.23   15.99
   1   3 -10  332.94   15.37
  -1  -3  10  330.32   15.23
   1  -3 -10  331.93   15.33
  -1  -3   9 2872.18  106.95
   1  -3  -9 2938.94  107.22
   1  -3  -9 2707.60  105.92
   1   3  -9 2911.06  107.17
   1  -3  -9 2866.57  107.88
  -1   3   9 2911.72  107.02
  -1  -3   8  435.83   18.28
   1  -3  -8  466.83   19.22
   1   3  -8  429.86   18.42
   1  -3  -8  421.89   17.96
  -1   3   8  444.51   18.39
   1  -3  -8  434.26   18.48
  -1   3   7 1013.03   39.70
   1  -3  -7 1071.02   40.02
  -1  -3   7 1004.86   39.64
   1  -3  -7 1041.59   40.63
   1  -3  -6  107.71    6.18
  -1   3   6  102.31    5.50
   1  -3  -6  105.86    6.32
   1  -3  -5  468.98   19.22
  -1  -3   5  446.64   18.09
  -1   3   5  453.44   18.13
  -1   3   3  197.47    8.43
  -1  -3   3  201.18    8.47
  -1   3   2   46.43    2.69
  -1  -3   2   44.84    2.66
  -1  -3   1  170.00    6.66
  -1   3   1  137.73    6.56
  -1   3   0  162.74    6.80
  -1  -3   0  159.14    6.78
  -1   3  -1 1468.35   54.07
  -1  -3  -1 1484.37   54.09
   1   3   1 1440.26   53.98
   1  -3   1 1418.21   53.99
  -1   3  -2   58.61    3.30
  -1  -3  -2   61.13    3.30
  -1   3  -4   16.46    1.98
  -1  -3  -4   18.24    2.07
  -1   3  -5  200.36    8.91
  -1  -3  -5  195.44    8.96
  -1  -3  -6   20.44    2.40
  -1   3  -6   20.75    2.36
  -1  -3  -7  599.46   23.92
   1  -3   7  574.07   25.43
  -1   3  -7  598.00   23.85
  -1  -3  -8  515.09   21.49
  -1   3  -8  525.60   21.49
   1  -3   8  524.43   22.95
  -1  -3  -9 3351.40  126.77
  -1   3  -9 3388.88  126.73
   1  -3   9 3440.93  128.07
  -1  -3 -10  269.50   12.91
   1  -3  10  265.70   13.66
  -1   3 -10  276.31   12.93
  -1   3 -11 1544.67   59.55
  -1  -3 -11 1546.73   59.69
   1  -3  11 1501.31   60.14
  -1  -3 -12  469.20   20.49
  -1   3 -12  456.65   20.33
   1  -3  12  435.04   20.34
   1  -3  13 1333.85   56.33
  -1  -3 -13 1506.86   57.13
  -1   3 -13 1496.40   57.00
  -1   3 -14   48.73    5.12
  -1  -3 -14   43.03    4.94
  -1   3 -15  381.92   18.19
  -1  -3 -15  349.06   18.01
  -1  -3 -16  262.00   14.19
  -1   3 -16  246.31   13.92
   1  -3  17 1301.97   51.76
  -1  -3 -17 1373.11   54.79
   1   3  17 1306.91   51.71
  -1   3 -17 1422.94   54.82
  -1  -3 -18  122.65    9.13
   1  -3  18  108.99    6.80
  -1   3 -18  119.19    8.86
   1   3  18  110.02    6.74
  -1   3 -18   90.93    6.02
   1   3  19  702.58   28.59
  -1   3 -19  659.17   28.00
   1  -3  19  674.66   28.54
  -1  -3 -19  711.98   31.70
  -1   3 -19  746.53   31.96
   1  -3  20  293.53   13.42
  -1   3 -20  267.82   13.11
   1  -3  20  295.75   13.85
  -1   3 -20  266.08   16.05
   1   3  20  278.85   13.64
  -1  -3 -20  302.10   16.77
   1  -3  21  867.30   33.98
  -1  -3 -21  878.76   37.90
  -1   3 -21  791.11   33.56
  -1   3 -21  815.43   37.45
   1  -3  21  841.83   34.39
   1   3  21  850.87   34.30
  -1  -3 -22   11.23    3.68
   1  -3  22    8.39    2.49
  -1   3 -22   12.44    3.45
   1   3  22   10.35    2.60
   1  -3  22    8.12    2.59
  -1   3 -23    2.56    2.71
  -1  -3 -23    4.27    3.01
   1  -3  23    2.07    2.07
   1   3  23    2.49    2.15
   1  -3  23    2.12    2.09
  -1   3 -24   41.91    5.85
   1  -3  24   39.41    4.00
  -1  -3 -24   35.96    5.52
   1  -3  24   42.88    4.33
   1  -3  24   40.00    3.95
   1  -3  24   35.00    5.39
   1   3  24   37.05    5.46
   1   3  24   35.19    4.13
   1   3  25  140.29   11.33
   1  -3  25  173.01    9.61
  -1  -3 -25  167.97   12.25
   1  -3  25  145.94   11.57
   1   3  25  183.58    9.80
  -1   3 -25  144.21   11.60
   1  -3  25  175.42    9.27
   1  -3  25  174.28    9.39
   1  -3  26    3.84    1.99
   1  -3  26    2.06    1.91
   1  -3  26    4.52    2.42
   1   3  26    1.83    2.20
   1  -3  27    9.34    2.38
   1  -3  27   10.44    2.41
   1  -3  27   13.21    2.69
   1   3  27   12.21    2.69
   1   3  28    1.62    1.87
   1  -3  28   -1.76    1.92
   1   3  28    0.36    2.13
   1  -3  28   -0.16    1.67
   1  -3  28   -0.18    1.85
   1  -3  29   16.87    2.43
   1   3  29   15.60    2.73
   1  -3  29   15.97    2.76
   1  -3  29   17.44    2.50
   1   3  29   20.44    3.03
   1  -3  30   19.38    2.67
   1  -3  30   15.90    2.16
   1   3  30   18.43    2.65
   1   3  30   19.42    2.84
  -1   3 -31   92.98    6.07
   1   3  31  120.41    6.40
  -1  -3 -31  106.30    6.23
   1  -3  31  106.76    6.18
   1   3  31  114.52    6.27
   1   3  32    4.19    1.52
   1  -3  32    3.29    1.26
   1   3  32    3.12    1.43
   1   3  33   17.59    1.80
   1  -3  33   15.17    1.78
   1   3  33   19.02    2.05
  -1   4  32   18.74    1.95
  -1   4  31   46.22    3.43
  -1   4  30   17.75    2.37
  -1  -4  30   16.42    2.25
  -1   4  30   16.33    2.38
  -1  -4  30   14.90    1.99
  -1  -4  30   15.52    2.33
  -1   4  29   96.66    5.79
  -1  -4  29   80.54    5.31
  -1   4  29   92.80    5.72
  -1  -4  29   87.93    5.69
  -1  -4  29   87.00    5.53
  -1  -4  28   32.11    3.51
  -1  -4  28   27.57    3.28
  -1  -4  28   29.02    3.26
  -1   4  28   24.31    3.21
  -1  -4  28   32.34    3.37
  -1   4  28   30.41    3.40
  -1   4  27   32.06    3.65
  -1  -4  27   31.18    3.48
  -1  -4  27   33.67    3.59
  -1   4  27   24.74    3.36
  -1  -4  27   27.36    3.52
  -1  -4  27   31.30    3.64
  -1   4  26   11.59    2.59
  -1  -4  26   14.62    2.80
  -1  -4  26   11.70    2.62
  -1   4  26   13.09    2.67
  -1  -4  26   11.25    2.83
  -1  -4  26   11.39    2.78
  -1   4  25   42.16    4.60
  -1  -4  25   49.17    4.85
  -1  -4  25   56.98    5.00
  -1   4  25   49.08    4.76
  -1  -4  25   56.76    4.98
  -1  -4  25   49.42    5.04
   1   4 -24   28.46    4.93
  -1  -4  24   34.06    5.37
  -1  -4  24   28.00    3.72
  -1   4  24   31.55    3.83
  -1   4  24   23.53    4.64
  -1  -4  24   32.07    3.74
  -1  -4  24   27.71    3.98
   1  -4 -24   31.57    5.09
  -1   4  24   25.83    3.54
  -1  -4  24   27.24    3.67
  -1   4  23   85.55    8.05
  -1  -4  23   90.05    6.20
   1  -4 -23   68.41    7.58
  -1  -4  23   94.51    6.66
  -1  -4  23   84.39    6.12
   1  -4 -23   65.48    5.24
  -1  -4  23   81.42    6.05
   1   4 -23   91.66    8.26
  -1  -4  23   81.00    8.02
  -1   4  23   75.29    5.95
  -1   4  23   82.64    6.05
   1  -4 -22   85.59    7.93
  -1  -4  22   75.00    5.81
  -1   4  22   76.59    5.74
  -1   4  22   81.85    5.87
  -1  -4  22   77.82    5.86
  -1  -4  22   77.06    5.82
  -1   4  22   74.07    7.63
  -1  -4  22   91.39    6.45
   1   4 -22   81.95    7.63
  -1  -4  22   76.61    7.66
  -1  -4  21  168.18   11.70
  -1  -4  21  163.31    9.24
  -1   4  21  169.36   11.59
  -1  -4  21  164.34    9.30
   1   4 -21  160.18   11.35
  -1  -4  21  183.67    9.81
  -1   4  21  177.21    9.40
  -1  -4  21  168.36    9.39
   1  -4 -21  160.34   11.38
  -1   4  21  158.84    9.12
  -1   4  20   23.84    3.28
  -1  -4  20   26.28    3.30
  -1  -4  20   27.08    3.54
  -1  -4  20   25.65    3.38
  -1   4  20   25.64    4.52
   1   4 -20   27.99    4.48
  -1  -4  20   20.81    4.19
   1  -4 -20   23.63    4.24
  -1  -4  20   19.87    3.11
  -1  -4  19    9.13    2.49
   1   4 -19    6.23    3.48
  -1   4  19   15.10    3.87
  -1  -4  19    8.71    2.59
  -1  -4  19    8.83    2.48
   1  -4 -19   12.42    3.80
  -1  -4  19   11.87    3.59
  -1  -4  19    7.77    2.59
  -1   4  19    8.79    2.52
  -1   4  18   22.46    3.10
  -1  -4  18   22.88    3.18
  -1  -4  18   20.99    3.11
  -1  -4  18   27.20    4.45
   1  -4 -18   30.56    4.67
  -1  -4  18   22.57    3.40
  -1   4  18   28.37    4.74
   1   4 -18   34.96    4.85
  -1  -4  18   23.87    3.21
  -1  -4  17   18.37    2.96
  -1   4  17   21.11    4.39
  -1  -4  17   18.44    2.96
  -1   4  17   19.52    3.07
  -1  -4  17   16.46    3.19
   1   4 -17   19.33    4.10
   1  -4 -17   24.99    4.49
  -1  -4  17   28.48    4.61
  -1  -4  16    3.57    1.93
  -1  -4  16    3.31    1.80
   1  -4 -16    4.84    3.23
  -1   4  16    8.55    2.96
   1  -4 -16    7.10    2.74
  -1  -4  16    6.17    2.83
   1   4 -16    6.59    2.76
  -1  -4  15   18.27    2.63
   1  -4 -15   24.95    4.54
   1   4 -15   17.86    3.32
  -1  -4  15   22.17    3.65
  -1   4  15   17.81    3.57
   1  -4 -15   16.34    3.23
   1   4 -14    1.73    1.98
  -1  -4  14    1.02    2.10
  -1   4  14    2.03    2.14
   1  -4 -14   -0.24    2.02
   1  -4 -14   -0.33    2.66
   1  -4 -13   40.55    5.13
   1   4 -13   45.17    4.55
   1  -4 -13   41.46    4.47
  -1  -4  13   44.41    4.53
  -1   4  13   44.69    4.59
   1  -4 -12   64.88    5.28
  -1   4  12   66.72    5.37
   1   4 -12   65.30    5.29
  -1  -4  12   65.17    5.27
   1  -4 -12   58.82    5.85
   1  -4 -11  306.67   14.86
  -1   4  11  271.38   13.31
  -1  -4  11  277.29   13.34
   1   4 -11  269.70   13.38
   1  -4 -11  280.81   13.50
   1  -4 -10   59.27    4.71
  -1   4  10   56.16    4.44
   1  -4 -10   60.21    5.46
  -1  -4  10   59.12    4.61
   1   4 -10   56.00    4.63
  -1   4   9  316.11   14.02
   1  -4  -9  308.39   14.14
   1  -4  -9  330.60   15.36
   1   4  -9  309.95   14.17
  -1  -4   9  304.85   13.88
   1  -4  -9  312.58   13.89
  -1   4   8  162.80    8.07
   1  -4  -8  162.77    8.26
   1   4  -8  162.51    8.25
   1  -4  -8  160.33    8.45
  -1  -4   8  152.35    7.88
   1  -4  -7  264.54   12.09
  -1   4   7  284.35   11.98
   1  -4  -7  279.88   12.89
  -1  -4   7  271.55   11.86
   1   4  -7  262.63   12.05
   1  -4  -6   46.77    3.43
   1   4  -6   43.95    3.30
   1  -4  -6   50.05    4.43
   1  -4  -5  354.16   15.43
   1  -4  -5  441.45   17.66
   1  -4  -4  355.53   16.34
   1  -4  -4  389.07   17.27
   1  -4  -3  972.48   39.53
   1  -4  -2  205.26   11.35
  -1   4   1  174.46    7.67
  -1  -4   1  205.30    8.31
   1  -4  -1  200.39    7.81
   1   4  -1  191.42    7.76
  -1   4   0   44.21    2.30
  -1  -4   0   48.78    3.16
  -1  -4   0   42.76    2.29
   1  -4   1  120.10    8.63
  -1  -4  -1  109.62    4.80
  -1   4  -1  105.71    4.80
  -1  -4  -2   95.78    4.49
  -1  -4  -2  108.41    5.79
  -1   4  -2   93.60    4.47
  -1   4  -3  492.27   20.14
  -1  -4  -3  509.22   20.17
  -1  -4  -4  155.56    7.29
  -1   4  -4  157.12    7.32
  -1  -4  -5  148.17    8.27
  -1   4  -6    6.10    1.71
   1  -4   6   11.18    3.80
  -1  -4  -6    6.99    1.82
  -1   4  -7   50.45    4.01
   1  -4   7   53.93    6.00
  -1  -4  -7   53.69    4.15
   1  -4   8   25.79    4.65
  -1   4  -8   28.76    3.11
  -1  -4  -8   34.44    3.33
  -1  -4  -9   96.88    6.12
  -1   4  -9  103.72    6.28
   1  -4  10   21.23    3.95
  -1  -4 -10   21.32    3.00
  -1   4 -10   24.13    3.09
  -1  -4 -11   73.29    5.97
   1  -4  11   80.80    7.11
  -1   4 -11   85.45    6.25
  -1  -4 -12    8.95    2.86
  -1   4 -12   10.87    2.78
   1  -4  12    8.35    3.01
   1  -4  13   17.43    3.53
  -1   4 -13   15.44    3.30
  -1  -4 -13   18.02    3.36
  -1   4 -14    4.96    2.55
  -1  -4 -14    5.62    2.43
  -1   4 -15    5.92    2.68
  -1  -4 -15    3.75    2.63
  -1   4 -16   26.69    4.09
   1  -4  16   28.49    3.20
  -1  -4 -16   24.38    4.11
  -1   4 -17  123.91    9.26
   1  -4  17  137.97    7.57
  -1  -4 -17  137.54    9.68
   1  -4  17  135.04    7.50
   1   4  17  129.49    7.38
   1  -4  18   91.80    5.88
  -1   4 -18   89.09    7.73
   1   4  18   86.47    5.76
  -1  -4 -18   87.45    7.74
   1  -4  18   92.65    5.94
   1  -4  18   79.85    5.31
   1  -4  19   67.41    4.69
  -1   4 -19   62.03    6.62
   1  -4  19   65.13    5.05
   1  -4  19   68.68    5.06
   1   4  19   61.81    4.88
  -1  -4 -19   73.60    7.06
   1  -4  20    9.71    2.17
   1  -4  20   13.37    2.67
  -1   4 -20    8.80    3.51
  -1  -4 -20    9.94    3.36
   1  -4  20    8.97    2.29
   1   4  20    8.23    2.35
   1  -4  21   11.44    3.13
  -1  -4 -21   26.50    5.34
  -1   4 -21   18.68    4.89
   1   4  21   16.99    3.25
   1  -4  21   25.50    3.63
   1  -4  21   14.11    3.00
   1  -4  22   11.41    2.50
  -1  -4 -22   15.01    4.18
   1  -4  22   10.69    2.60
   1   4  22   12.99    2.84
   1  -4  22   15.72    2.94
  -1   4 -22   19.21    4.68
   1   4  23   67.87    7.23
   1  -4  23   76.91    5.73
  -1  -4 -23   59.47    7.14
   1   4  23   73.00    5.64
   1  -4  23   64.87    7.11
   1  -4  23   66.25    5.21
  -1   4 -23   74.93    7.69
   1   4  24   77.04    5.68
   1  -4  24   73.29    5.64
   1  -4  24   73.54    7.44
   1  -4  24   75.38    5.37
   1   4  24   70.58    7.21
  -1  -4 -24   61.54    7.27
  -1   4 -24   64.45    7.26
   1   4  25  184.55    9.88
   1  -4  25  165.27    9.27
   1  -4  25  183.24    9.86
   1  -4  25  189.84    9.84
   1   4  26   39.01    4.02
   1  -4  26   35.89    3.63
   1  -4  26   44.48    4.09
   1  -4  26   40.83    4.05
   1   4  27   36.36    3.80
   1  -4  27   38.04    3.76
   1  -4  27   34.07    3.70
   1   4  28    8.18    2.39
   1   4  28    3.15    1.91
   1  -4  28    5.67    2.04
   1  -4  28    3.94    1.88
   1  -4  29   27.51    3.08
   1   4  29   31.31    3.48
  -1   4 -29   29.57    3.18
  -1  -4 -29   34.12    3.36
   1   4  29   28.30    3.18
   1  -4  29   29.54    3.11
   1  -4  30    8.60    1.83
   1   4  30   10.93    2.01
   1   4  30   13.25    2.27
  -1   4 -30    8.06    1.86
  -1  -4 -30    9.44    1.93
   1  -4  30   11.25    1.97
   1  -4  31   16.67    2.07
   1   4  31   18.26    2.15
   1   4  32    3.67    1.29
   1   4  32    2.19    0.94
   1   4  33    3.03    1.01
  -1   5  31    5.41    1.24
  -1   5  30    5.86    1.49
  -1  -5  30    4.82    1.37
  -1   5  29    5.33    1.72
  -1  -5  29    3.16    1.73
  -1   5  28    3.82    1.76
  -1  -5  28    4.15    2.00
  -1  -5  28    4.89    2.06
  -1  -5  27   16.83    2.98
  -1   5  27   17.69    2.73
  -1   5  27   12.97    2.51
  -1  -5  27   12.37    2.48
  -1  -5  27   13.93    2.85
  -1  -5  26   25.79    3.37
  -1   5  26   19.76    2.84
  -1   5  26   20.72    2.80
  -1  -5  26   20.83    3.21
  -1  -5  26   16.88    2.69
  -1  -5  26   17.08    2.60
  -1   5  25   16.24    2.67
  -1  -5  25   11.39    2.36
  -1  -5  25   13.29    2.51
  -1  -5  25   19.08    3.16
  -1   5  25   10.05    2.30
  -1  -5  25   18.54    3.15
  -1  -5  24   41.55    4.46
  -1  -5  24   54.71    4.98
  -1  -5  24   45.92    4.21
  -1   5  24   46.83    4.31
  -1  -5  24   46.39    4.17
  -1   5  24   44.82    4.18
  -1  -5  23   74.33    5.45
   1  -5 -23   62.30    5.04
   1  -5 -23   65.06    6.89
  -1  -5  23   78.36    5.58
  -1   5  23   79.27    5.67
  -1   5  23   82.02    5.67
  -1  -5  23   89.16    6.37
  -1  -5  23   89.71    6.18
  -1   5  22   94.52    6.43
  -1  -5  22   94.05    6.43
  -1  -5  22   97.19    6.57
  -1   5  22   97.66    6.46
  -1  -5  22  106.56    7.05
   1  -5 -22   84.38    6.28
  -1  -5  22  103.56    6.87
   1  -5 -22   86.18    8.19
  -1  -5  21  165.58    9.41
   1  -5 -21  153.16   11.55
  -1   5  21  178.11    9.54
   1  -5 -21  162.29    9.29
  -1   5  21  157.93    9.34
  -1  -5  21  198.69    9.98
  -1  -5  21  141.02   11.33
  -1  -5  21  160.53    9.31
  -1  -5  21  198.36   10.19
  -1  -5  20  297.84   14.34
  -1   5  20  310.96   17.01
   1   5 -20  269.31   16.47
  -1  -5  20  293.63   14.29
   1  -5 -20  285.82   16.51
  -1   5  20  310.48   14.41
  -1   5  20  319.41   14.45
  -1  -5  20  257.46   16.26
   1  -5 -20  297.27   14.34
  -1  -5  20  333.24   14.86
  -1  -5  20  342.82   15.09
  -1  -5  19  829.95   31.25
  -1  -5  19  688.18   32.78
  -1   5  19  706.74   30.23
   1   5 -19  736.61   33.08
  -1  -5  19  773.86   30.86
  -1   5  19  756.55   33.36
  -1  -5  19  756.33   30.50
   1  -5 -19  687.38   32.70
  -1  -5  19  735.84   30.42
  -1  -5  18  638.49   24.93
   1  -5 -18  534.47   26.28
  -1  -5  18  571.39   26.78
  -1  -5  18  554.96   24.09
  -1   5  18  603.26   27.12
  -1  -5  18  563.81   24.18
   1   5 -18  571.22   26.67
  -1  -5  17  544.35   23.22
   1   5 -17  552.27   25.58
  -1  -5  17  583.58   23.77
  -1   5  17  602.20   26.19
   1  -5 -17  531.93   25.30
  -1  -5  17  544.36   25.61
  -1  -5  17  525.64   23.08
   1  -5 -16  352.68   17.45
  -1  -5  16  312.70   15.20
  -1   5  16  356.01   17.75
  -1  -5  16  364.58   15.92
  -1  -5  16  336.22   17.43
   1  -5 -16  364.71   19.72
   1   5 -16  349.48   17.46
   1   5 -15  285.79   15.21
  -1   5  15  288.28   15.40
   1  -5 -15  312.34   17.56
  -1  -5  15  309.03   14.02
   1  -5 -15  315.72   15.41
  -1  -5  15  275.56   15.14
  -1   5  14  219.06   12.10
  -1  -5  14  200.16   11.65
   1  -5 -14  211.37   11.72
   1   5 -14  228.58   12.06
  -1  -5  14  201.71   10.48
   1  -5 -14  223.59   13.98
  -1   5  13  473.52   21.34
   1   5 -13  473.68   21.22
   1  -5 -13  474.93   21.18
  -1  -5  13  463.74   19.95
   1  -5 -13  510.62   23.64
  -1  -5  13  439.18   20.92
   1  -5 -12  477.19   21.20
   1  -5 -12  536.58   23.68
  -1  -5  12  456.53   20.98
  -1   5  12  471.55   21.21
   1   5 -12  487.46   21.35
  -1   5  11  477.59   20.37
   1   5 -11  467.70   20.36
   1  -5 -11  462.48   20.28
  -1  -5  11  446.34   20.05
   1   5 -10  319.57   14.92
  -1   5  10  337.04   15.04
   1  -5 -10  323.46   15.00
   1  -5  -9  767.12   30.05
   1   5  -9  720.24   29.89
   1  -5  -8  650.91   26.42
   1   5  -8  662.27   26.44
   1  -5  -7  412.78   18.85
   1  -5  -7  402.48   16.94
   1   5  -7  391.43   16.84
   1  -5  -7  444.10   18.86
   1   5  -6   63.30    4.06
   1  -5  -6   71.50    5.88
   1  -5  -6   79.22    5.94
   1  -5  -6   62.63    4.12
   1  -5  -5   86.39    6.26
   1  -5  -5   85.10    6.60
   1  -5  -4   17.99    3.75
   1  -5  -4   15.44    1.49
   1  -5  -4   18.31    3.04
   1  -5  -3  304.54   13.05
   1  -5  -3  303.90   11.44
   1  -5  -2  293.03   14.08
   1  -5  -2  310.49   15.79
   1  -5  -1   14.13    3.97
  -1  -5   1   11.63    1.66
   1  -5   0   37.43    5.41
  -1  -5   0   34.63    2.92
  -1  -5  -1   30.52    2.96
   1  -5   1   24.21    4.74
   1  -5   2  159.85   10.50
  -1  -5  -2  133.20    7.48
   1  -5   3   64.66    6.94
  -1  -5  -3   86.09    4.98
  -1  -5  -4   29.72    3.38
  -1  -5  -4   26.15    1.84
  -1  -5  -5  419.72   16.83
  -1  -5  -5  438.52   18.99
  -1   5  -6  230.16   10.66
  -1  -5  -6  268.16   12.84
  -1  -5  -6  260.02   10.81
   1  -5   7  127.14    9.69
   1  -5   8  203.50   12.68
  -1  -5  -8  194.57    9.49
  -1   5  -8  183.18    9.28
  -1  -5  -9  859.82   34.28
   1  -5   9  941.42   38.00
  -1   5  -9  836.84   34.11
   1  -5  10  766.34   32.17
  -1   5 -10  695.09   28.73
  -1  -5 -10  692.62   28.85
  -1   5 -11  450.49   20.10
   1  -5  11  462.24   22.66
  -1  -5 -11  469.55   20.34
   1  -5  12  318.38   17.02
  -1   5 -12  287.43   14.63
  -1  -5 -12  312.97   14.94
  -1   5 -13  495.98   22.83
  -1  -5 -13  527.72   23.07
  -1  -5 -14  219.28   12.12
  -1   5 -14  214.45   11.92
   1  -5  14  198.33   10.09
  -1  -5 -15  137.52    9.53
  -1   5 -15  122.24    9.19
   1  -5  15  138.59    7.67
  -1   5 -16  221.70   12.92
   1  -5  16  228.16   10.94
   1  -5  16  190.28   10.14
  -1  -5 -16  218.83   12.93
  -1  -5 -17  496.07   22.90
   1  -5  17  430.10   19.52
   1  -5  17  489.14   20.26
  -1   5 -17  438.32   22.49
  -1  -5 -18  229.23   14.11
   1  -5  18  230.38   11.52
   1  -5  18  220.52   11.15
  -1   5 -18  216.17   13.86
   1  -5  19  152.69    8.77
  -1   5 -19  142.44   11.51
   1  -5  19  151.65    8.83
  -1  -5 -19  162.42   11.82
   1  -5  20  212.13   10.31
   1  -5  20  162.10   11.69
   1  -5  20  186.98    9.92
  -1  -5 -20  182.73   12.76
   1   5  20  184.18   12.00
   1   5  20  180.14    9.84
   1   5  21  407.02   17.47
  -1  -5 -21  360.88   20.31
   1  -5  21  392.86   17.45
   1  -5  21  399.43   17.52
   1  -5  21  346.97   19.53
   1  -5  22  125.73    9.95
   1  -5  22  129.75    7.98
   1   5  22  147.69    8.16
   1  -5  22  144.37    8.18
  -1  -5 -22  147.18   10.85
   1  -5  23   16.25    2.99
  -1  -5 -23   23.40    4.38
   1  -5  23   18.11    2.90
   1   5  23   19.52    3.00
   1  -5  24   17.35    2.80
   1   5  24   13.74    2.73
   1  -5  24   16.70    2.74
   1   5  25    2.11    1.81
   1  -5  25    2.52    2.10
   1  -5  25    3.31    1.86
   1   5  26   13.16    2.36
   1  -5  26   10.64    2.26
   1  -5  26   17.04    2.84
  -1  -5 -27   75.73    5.37
   1  -5  27   82.09    5.40
   1  -5  27   86.20    5.69
   1   5  27   93.83    5.87
   1   5  27   87.86    5.52
   1  -5  28   23.75    2.85
  -1  -5 -28   21.33    2.61
   1   5  28   23.28    2.60
   1   5  28   27.19    3.09
   1  -5  29   14.15    2.21
   1   5  29   13.01    2.21
   1   5  29   11.07    1.77
   1   5  30   15.29    2.18
   1  -5  30   13.63    2.01
   1   5  31   37.45    2.83
   1   5  32    5.21    1.09
  -1  -6  30   70.30    3.94
  -1  -6  29   69.79    4.42
  -1  -6  28   34.92    3.42
  -1   6  28   26.05    2.60
  -1  -6  28   27.06    3.05
  -1  -6  27   38.72    3.76
  -1  -6  27   48.07    4.15
  -1   6  27   37.76    3.32
  -1  -6  26  299.62   13.92
  -1   6  26  280.72   13.15
  -1  -6  26  313.46   14.04
  -1  -6  25  230.75   11.14
  -1   6  25  192.19   10.14
  -1  -6  25  217.10   11.05
  -1  -6  24  179.27    9.96
  -1  -6  24  189.54   10.04
  -1   6  24  170.53    9.21
  -1  -6  23  154.56    8.62
  -1  -6  23  172.20    9.64
  -1   6  23  164.34    8.80
   1  -6 -23  149.14    8.52
  -1  -6  22  373.43   17.80
   1  -6 -22  423.54   18.23
  -1   6  22  408.52   18.12
  -1  -6  21   19.49    3.05
  -1  -6  21   26.38    3.85
   1  -6 -21   27.50    3.45
  -1   6  21   24.17    3.12
  -1   6  20  177.23    9.45
   1  -6 -20  176.82    9.96
  -1  -6  20  157.46    9.32
   1  -6 -19   24.52    3.42
  -1  -6  19   27.29    3.83
   1  -6 -18  407.19   19.01
  -1  -6  18  432.06   19.19
  -1  -6  18  445.86   19.45
  -1  -6  17  261.78   12.94
   1  -6 -17  253.59   12.74
   1  -6 -16   39.99    4.34
  -1  -6  16   49.39    4.66
   1  -6 -16   58.08    7.25
  -1  -6  15   16.47    2.92
   1  -6 -15   10.00    2.42
  -1  -6  14  210.51   10.77
   1  -6 -14  206.23   10.77
   1  -6 -13   15.60    2.72
  -1  -6  13   15.20    2.70
   1  -6 -12  105.21    6.65
  -1  -6  12  109.27    7.04
   1  -6 -11   42.34    5.45
  -1  -6  11   35.88    3.95
   1  -6 -11   37.83    3.80
   1  -6 -10   54.68    6.03
   1  -6  -9   47.56    5.23
   1  -6  -8  412.99   19.85
   1  -6  -7   86.34    6.86
   1  -6  -6  237.60   12.79
   1  -6  -6  221.53   12.87
   1  -6  -5  159.08   10.71
   1  -6  -5  194.81   10.67
   1  -6  -4  864.70   37.42
   1  -6  -4  880.85   36.12
   1  -6  -3  733.52   30.98
   1  -6  -3  752.02   32.81
   1  -6  -2  451.30   21.04
   1  -6  -2  530.97   23.73
   1  -6  -1  168.94    9.74
   1  -6  -1  197.69   12.26
   1  -6   0  250.16   14.72
   1  -6   0  252.02   12.40
  -1  -6   0  235.07   11.10
  -1  -6  -1  221.33   10.84
   1  -6   1  243.41   14.46
   1  -6   2  534.21   25.08
  -1  -6  -2  476.21   20.97
  -1  -6  -3  527.43   23.23
   1  -6   3  590.27   27.05
   1  -6   4  973.12   39.67
  -1  -6  -4  836.87   35.72
   1  -6   7  138.77   10.69
   1  -6   8   68.14    7.78
   1  -6   9   19.09    4.75
   1  -6  10  142.19   10.87
   1  -6  11   56.50    4.12
   1  -6  12   18.92    2.79
  -1  -6 -13    6.73    1.96
   1  -6  13    9.33    2.10
   1  -6  14   45.34    4.11
  -1  -6 -14   29.69    3.78
  -1  -6 -15   16.22    2.36
   1  -6  15   15.93    2.74
   1  -6  16  137.45    8.15
   1  -6  17   63.30    5.43
  -1  -6 -18   73.19    6.88
   1  -6  18   84.93    6.20
  -1  -6 -19   63.16    5.91
   1  -6  19   77.03    5.70
   1  -6  20  334.20   15.28
  -1  -6 -20  302.35   15.67
   1  -6  21   88.69    6.18
   1  -6  22  108.95    7.15
   1  -6  23  102.32    6.67
   1  -6  24  314.92   14.05
   1  -6  24  268.16   13.24
   1  -6  25  144.80    7.90
   1  -6  25  113.74    6.95
   1  -6  26   95.94    6.28
   1   6  26   85.31    5.87
   1   6  27   42.23    3.73
   1  -6  27   45.42    3.89
   1  -6  28   71.60    4.70
   1   6  28   64.00    4.53
   1   6  29   58.65    4.03
   1  -6  29   73.71    4.43
   1   6  30   63.20    4.11
   1  -6  30   99.49    4.73
  -1  -7  29   13.79    1.75
  -1  -7  28    1.04    1.41
  -1  -7  27    0.63    1.69
  -1  -7  27    0.27    1.75
  -1  -7  26    5.62    2.27
  -1  -7  26    4.84    2.15
  -1  -7  25    0.16    1.92
  -1  -7  24   22.22    3.33
   1  -7 -23   16.70    2.45
  -1  -7  23   24.13    3.39
   1  -7 -22   90.52    5.94
  -1  -7  22  100.89    6.77
  -1  -7  21   21.54    3.37
  -1  -7  21   16.01    3.07
   1  -7 -21   19.72    2.86
   1  -7 -20   76.45    5.64
  -1  -7  20   70.46    5.89
  -1  -7  20   74.04    5.82
   1  -7 -19   52.81    4.73
  -1  -7  19   45.22    4.76
  -1  -7  19   50.74    4.82
  -1  -7  18  159.98    9.22
   1  -7 -18  163.61    9.30
  -1  -7  18  146.82    9.20
   1  -7 -17   39.89    4.24
  -1  -7  17   40.20    4.26
  -1  -7  17   40.87    4.52
   1  -7 -16  326.46   15.23
  -1  -7  16  301.55   15.03
  -1  -7  15  214.57   11.07
   1  -7 -15  199.25   10.86
   1  -7 -15  194.60   14.04
   1  -7 -14  318.90   18.63
   1  -7 -14  318.62   14.99
  -1  -7  14  295.07   14.79
   1  -7 -13   30.76    5.36
   1  -7 -13   36.66    3.98
  -1  -7  12  181.66   10.75
   1  -7 -12  183.49   10.35
   1  -7 -12  204.40   13.51
  -1  -7  11  236.31   11.77
   1  -7 -11  252.50   12.52
  -1  -7  11  263.65   13.14
   1  -7 -11  271.85   15.58
  -1  -7  10  712.29   29.38
   1  -7 -10  749.42   32.10
   1  -7 -10  676.15   28.58
  -1  -7  10  724.51   28.46
  -1  -7  10  643.11   27.83
   1  -7  -9   89.09    7.71
  -1  -7   9   79.72    5.26
  -1  -7   9   84.65    5.52
  -1  -7   9   79.79    5.98
  -1  -7   8  190.73    9.73
   1  -7  -8  224.08   12.74
  -1  -7   8  211.12   10.17
  -1  -7   8  184.57   10.71
  -1  -7   7  168.53    8.43
  -1  -7   7  150.70    8.18
  -1  -7   7  163.14    9.41
   1  -7  -6  396.78   17.47
   1  -7  -6  425.59   19.78
  -1  -7   6  393.51   18.04
   1  -7  -5   41.36    4.65
   1  -7  -4  149.60    9.51
   1  -7  -3  254.86   13.47
   1  -7  -2  398.41   18.85
   1  -7  -2  406.61   21.34
   1  -7  -1    2.84    2.00
   1  -7  -1    3.71    3.45
   1  -7   0   86.27    8.65
   1  -7   0   92.00    6.59
   1  -7   1    2.64    3.72
   1  -7   1    1.34    1.74
   1  -7   2  112.36    7.69
   1  -7   2  114.42   10.48
   1  -7   3  156.06   12.02
   1  -7   3  142.86    8.77
   1  -7   4  133.40   11.31
   1  -7   5    8.72    4.36
   1  -7   6  145.67    8.65
  -1  -7  -6  142.17    9.21
  -1  -7  -7  269.18   13.27
   1  -7   7  244.73   13.16
  -1  -7  -7  279.20   13.59
  -1  -7  -7  268.92   12.47
   1  -7   8  604.43   26.65
  -1  -7  -8  600.15   26.72
  -1  -7  -8  635.05   26.68
  -1  -7  -8  641.13   25.70
  -1  -7  -9   98.71    6.90
  -1  -7  -9   87.30    5.96
  -1  -7  -9   98.63    6.90
  -1  -7 -10  490.40   21.11
  -1  -7 -10  501.95   22.13
  -1  -7 -10  474.25   21.95
   1  -7  11  325.71   14.56
  -1  -7 -11  335.11   15.93
  -1  -7 -11  305.60   14.66
  -1  -7 -11  309.76   15.46
  -1  -7 -12  472.05   22.30
  -1  -7 -12  520.27   21.93
  -1  -7 -12  528.06   23.18
   1  -7  12  522.15   21.75
  -1  -7 -13   79.83    6.68
  -1  -7 -13   88.30    6.43
  -1  -7 -13   88.83    5.90
   1  -7  13   93.77    6.10
  -1  -7 -14  359.83   16.52
  -1  -7 -14  339.79   17.85
   1  -7  14  399.81   16.99
   1  -7  15  165.93    9.06
  -1  -7 -15  148.61    8.36
  -1  -7 -15  144.41    9.71
   1  -7  16  233.04   11.57
  -1  -7 -16  196.90   12.15
  -1  -7 -16  209.01   10.69
  -1  -7 -17   43.00    4.92
   1  -7  17   54.31    4.91
  -1  -7 -17   40.85    3.73
   1  -7  18  420.08   18.39
  -1  -7 -18  371.20   18.62
  -1  -7 -19  110.17    7.80
   1  -7  19  126.99    7.81
   1  -7  20   94.24    6.59
   1  -7  21    4.30    2.29
   1  -7  22   35.91    3.88
   1  -7  23    9.84    2.37
   1   7  24   14.03    2.40
   1  -7  24   17.79    2.62
   1  -7  24   21.89    3.19
   1   7  25    1.03    1.49
   1  -7  25    2.54    2.01
   1  -7  25    2.42    1.60
   1  -7  26   37.74    3.08
   1   7  26   30.64    3.01
   1   7  27    2.93    1.26
   1  -7  27    1.89    1.63
   1   7  28    0.79    0.92
   1  -7  28    1.95    1.38
   1  -7  29   11.64    1.77
  -1  -8  28  223.27    9.63
  -1  -8  27   26.86    2.69
  -1  -8  26  162.38    8.25
  -1  -8  25   31.37    3.42
  -1  -8  25   29.57    3.30
  -1  -8  24  295.50   14.14
  -1  -8  24  321.51   14.22
  -1  -8  23   51.03    4.43
  -1  -8  23   46.46    4.38
  -1  -8  22  212.14   10.84
   1  -8 -22  211.90   10.36
  -1  -8  22  214.86   11.05
  -1  -8  21   25.74    3.39
   1  -8 -21   22.58    2.92
  -1  -8  21   21.50    3.49
   1  -8 -20  175.62    9.63
  -1  -8  20  189.90   10.08
  -1  -8  20  192.17   10.36
  -1  -8  19   21.44    3.29
  -1  -8  19   18.59    3.44
   1  -8 -19   24.56    3.16
  -1  -8  18   70.80    5.76
   1  -8 -18   79.34    6.05
  -1  -8  18   69.72    6.15
  -1  -8  17   10.55    2.68
   1  -8 -17   11.66    2.73
  -1  -8  17    7.28    2.92
   1  -8 -16   23.54    3.62
  -1  -8  16   23.15    3.45
  -1  -8  16   28.89    3.93
   1  -8 -15    0.41    1.88
  -1  -8  15    3.17    2.15
  -1  -8  14   75.98    5.64
   1  -8 -14   79.79    8.57
   1  -8 -14   84.34    6.09
   1  -8 -13   42.98    6.11
   1  -8 -13   31.49    3.84
   1  -8 -12   81.52    8.45
  -1  -8  12   87.44    6.97
   1  -8 -12   81.55    6.11
  -1  -8  11   22.89    2.96
  -1  -8  11   20.95    3.36
  -1  -8  11   19.77    3.88
   1  -8 -11   24.46    4.94
   1  -8 -11   16.53    3.03
   1  -8 -10  260.98   15.94
  -1  -8  10  246.51   13.66
   1  -8 -10  255.74   12.82
  -1  -8  10  259.04   12.37
  -1  -8  10  262.04   12.75
  -1  -8   9   66.14    5.78
  -1  -8   9   68.25    5.19
  -1  -8   9   66.47    4.93
  -1  -8   9   61.80    5.22
   1  -8  -9   73.50    7.38
  -1  -8   8  176.22   10.45
  -1  -8   8  174.15   10.16
  -1  -8   8  182.99    9.47
  -1  -8   8  196.98    9.89
   1  -8  -8  193.69   12.52
   1  -8  -7   36.86    3.75
   1  -8  -7   41.06    5.26
  -1  -8   7   34.43    3.49
  -1  -8   7   34.96    3.59
  -1  -8   7   28.87    3.91
  -1  -8   6  449.63   19.86
   1  -8  -6  464.07   22.64
   1  -8  -6  482.29   20.30
  -1  -8   6  448.15   20.90
  -1  -8   6  479.91   19.96
   1  -8  -5  134.04    9.58
   1  -8  -5  143.21    8.34
   1  -8  -5  148.28    8.24
  -1  -8   5  153.20    8.10
  -1  -8   5  137.07    8.89
  -1  -8   5  147.60    7.84
  -1  -8   4  682.46   27.02
   1  -8  -4  664.87   27.37
  -1  -8   4  657.42   27.21
   1  -8  -4  639.73   27.62
  -1  -8   4  677.37   28.54
   1  -8  -4  648.09   29.42
   1  -8  -3  129.43    7.17
   1  -8  -3  112.22    7.17
  -1  -8   3  113.06    6.80
   1  -8  -3  110.76    8.19
  -1  -8   3  117.40    8.01
  -1  -8   3  110.27    6.46
  -1  -8   3  108.27    7.47
   1  -8  -2  853.23   34.88
   1  -8  -2  859.55   35.41
   1  -8  -2  843.85   36.72
  -1  -8   2  902.40   34.93
  -1  -8   2  882.00   35.96
  -1  -8   2  878.35   36.42
  -1  -8   1  135.82    7.85
  -1  -8   1  149.67    8.81
   1  -8  -1  149.57    9.36
   1  -8  -1  143.74    7.95
   1  -8  -1  137.91    8.22
  -1  -8   1  151.13    9.34
   1  -8   0  427.00   19.59
   1  -8   0  444.16   19.00
  -1  -8   0  438.35   19.90
   1  -8   0  427.07   20.39
  -1  -8   0  430.80   20.60
  -1  -8   0  459.13   19.12
   1  -8   1   71.76    6.04
   1  -8   1   81.29    5.40
  -1  -8  -1   81.79    6.13
   1  -8   1   68.59    5.64
   1  -8   2  890.58   35.75
   1  -8   2  837.28   34.67
  -1  -8  -2  932.12   36.14
   1  -8   2  843.94   36.09
   1  -8   3  211.30   10.39
   1  -8   3  212.31   11.24
  -1  -8  -3  221.05   11.55
   1  -8   3  196.70   11.30
  -1  -8  -3  214.73   10.67
  -1  -8  -3  218.51   12.17
   1  -8   4  647.94   27.17
   1  -8   4  662.65   28.33
  -1  -8  -4  718.21   28.76
  -1  -8  -4  687.92   27.60
   1  -8   4  597.15   28.13
  -1  -8  -4  720.62   29.56
   1  -8   5   65.92    5.41
  -1  -8  -5   65.13    5.98
   1  -8   5   56.85    4.43
  -1  -8  -5   59.76    5.50
  -1  -8  -5   70.44    5.16
   1  -8   5   48.33    4.81
  -1  -8  -6  322.67   14.28
   1  -8   6  274.89   13.41
  -1  -8  -6  320.11   15.21
  -1  -8  -6  295.37   15.58
   1  -8   6  294.61   14.97
   1  -8   7   61.20    5.58
  -1  -8  -7   62.59    5.52
  -1  -8  -7   68.71    5.07
   1  -8   7   60.66    4.43
  -1  -8  -7   61.75    5.91
  -1  -8  -8  217.32   11.60
  -1  -8  -8  221.16   11.98
   1  -8   8  206.20   11.69
   1  -8   8  190.92    9.91
  -1  -8  -8  215.50   10.81
  -1  -8  -9   44.38    4.11
  -1  -8  -9   35.28    4.42
  -1  -8  -9   38.07    4.70
   1  -8  10  281.85   13.33
  -1  -8 -10  272.69   14.35
  -1  -8 -10  268.41   13.37
  -1  -8 -10  283.69   14.51
  -1  -8 -11   46.90    4.30
  -1  -8 -11   40.52    4.73
   1  -8  11   50.36    4.42
  -1  -8 -11   40.73    4.77
  -1  -8 -12   43.88    4.25
  -1  -8 -12   35.77    4.68
  -1  -8 -12   39.71    4.72
   1  -8  12   37.71    4.11
  -1  -8 -13    5.98    2.68
  -1  -8 -13    5.58    2.08
   1  -8  13    3.94    2.40
  -1  -8 -13    6.01    2.90
  -1  -8 -14   18.44    3.10
   1  -8  14   18.54    3.44
  -1  -8 -14   17.74    3.88
  -1  -8 -15    4.51    1.74
  -1  -8 -15   -1.02    2.23
   1  -8  15   -0.42    2.25
  -1  -8 -16  100.29    6.35
  -1  -8 -16  102.67    7.47
   1  -8  16  105.82    7.22
  -1  -8 -17   52.54    4.15
   1  -8  17   49.08    4.95
  -1  -8 -17   51.29    5.09
  -1  -8 -18  282.95   14.27
   1  -8  18  313.95   14.39
  -1  -8 -18  270.14   12.88
   1  -8  19   27.05    3.76
   1  -8  20  140.75    8.41
   1  -8  21   18.50    3.06
   1  -8  22  119.49    7.24
   1  -8  23   34.63    3.58
   1  -8  24  403.89   17.07
   1  -8  24  372.92   16.53
   1  -8  25   68.83    4.58
   1  -8  25   48.15    3.82
   1  -8  26  261.24   10.15
   1  -8  26  177.02    8.92
   1  -8  27   25.09    2.62
   1  -8  28  129.71    6.32
   1  -8  29   14.70    1.58
  -1  -9  27    0.57    0.88
  -1  -9  26   35.22    2.83
  -1  -9  25    1.75    1.50
  -1  -9  24   33.57    3.10
  -1  -9  24   29.63    3.10
  -1  -9  23   -0.94    1.68
  -1  -9  23   -0.14    1.89
  -1  -9  22   31.67    3.51
  -1  -9  22   28.71    3.20
  -1  -9  21    1.54    2.13
   1  -9 -21    1.20    1.40
  -1  -9  21    1.39    1.77
  -1  -9  20  102.87    6.38
   1  -9 -20  100.23    6.18
  -1  -9  20  102.20    6.75
  -1  -9  19   -0.84    1.93
   1  -9 -19    0.82    1.58
  -1  -9  19    3.47    2.54
  -1  -9  18   16.72    3.29
  -1  -9  18   16.06    2.89
   1  -9 -18   19.82    2.95
   1  -9 -17    1.88    1.93
  -1  -9  17   -1.25    2.57
  -1  -9  17   -0.88    1.96
   1  -9 -16   30.55    3.60
  -1  -9  16   24.80    3.32
  -1  -9  15    1.06    1.82
   1  -9 -15    4.10    2.19
   1  -9 -14   12.25    2.79
  -1  -9  14    7.37    2.40
  -1  -9  13    1.56    1.92
  -1  -9  13    3.76    2.65
   1  -9 -13    1.30    2.08
   1  -9 -13   -2.83    3.14
  -1  -9  12  234.47   11.88
  -1  -9  12  257.75   12.96
   1  -9 -12  253.53   12.76
   1  -9 -12  225.34   15.64
   1  -9 -11   47.63    6.76
   1  -9 -11   59.25    5.12
  -1  -9  11   47.47    5.49
  -1  -9  11   47.06    4.93
  -1  -9  11   42.39    4.03
  -1  -9  10  584.03   24.23
  -1  -9  10  515.45   23.55
  -1  -9  10  603.86   24.91
  -1  -9  10  625.79   26.28
   1  -9 -10  548.06   28.30
  -1  -9   9   30.48    3.53
  -1  -9   9   26.05    3.69
   1  -9  -9   18.46    4.46
  -1  -9   9   30.84    4.52
  -1  -9   8  431.34   19.44
   1  -9  -8  423.41   23.02
  -1  -9   8  465.23   19.88
   1  -9  -7   49.36    4.54
  -1  -9   7   41.09    4.10
   1  -9  -7   33.36    5.32
  -1  -9   7   39.53    4.81
  -1  -9   7   40.88    4.18
   1  -9  -6  256.21   12.19
  -1  -9   6  229.60   11.69
   1  -9  -6  219.62   12.19
  -1  -9   6  238.22   12.83
   1  -9  -6  208.74   13.94
  -1  -9   6  235.49   11.74
  -1  -9   5    5.14    2.73
   1  -9  -5    5.80    2.13
  -1  -9   5    2.99    1.94
  -1  -9   5    6.52    2.18
  -1  -9   5    0.79    2.63
   1  -9  -5    2.90    2.52
   1  -9  -5    2.17    1.84
   1  -9  -4  142.08    9.11
   1  -9  -4  173.89    9.14
   1  -9  -4  146.07   10.51
  -1  -9   4  165.13    9.94
  -1  -9   4  151.99    8.56
  -1  -9   4  158.44   10.07
  -1  -9   4  160.41    8.84
   1  -9  -3   17.35    3.50
  -1  -9   3   13.15    3.65
  -1  -9   3   15.92    2.83
   1  -9  -3   13.64    2.71
   1  -9  -3   16.42    3.18
  -1  -9   3   20.28    3.65
  -1  -9   3   17.48    2.67
   1  -9  -2   27.03    3.22
  -1  -9   2   22.25    3.70
   1  -9  -2   19.64    3.67
  -1  -9   2   17.79    3.00
   1  -9  -2   21.54    3.54
  -1  -9   2   26.64    3.17
  -1  -9   2   24.50    4.28
   1  -9  -1    0.23    2.05
  -1  -9   1    1.31    1.77
  -1  -9   1    4.61    3.10
   1  -9  -1    2.97    2.15
   1  -9  -1   -0.19    1.82
  -1  -9   1    2.57    1.59
  -1  -9   1    1.29    2.31
  -1  -9   0   41.02    4.71
   1  -9   0   40.02    4.69
   1  -9   0   40.52    4.53
   1  -9   0   41.54    4.02
  -1  -9   0   41.57    4.08
  -1  -9   0   43.96    3.71
  -1  -9   0   53.34    5.64
   1  -9   1    7.57    2.15
  -1  -9  -1    6.30    2.11
   1  -9   1    2.61    1.95
  -1  -9  -1    4.86    2.52
   1  -9   1    2.32    2.11
   1  -9   2   54.86    5.14
   1  -9   2   46.90    4.27
  -1  -9  -2   58.88    5.38
  -1  -9  -3   37.92    4.51
   1  -9   3   33.71    3.67
   1  -9   3   42.31    4.60
  -1  -9  -3   37.21    5.26
  -1  -9  -4  258.51   13.48
   1  -9   4  237.22   13.07
  -1  -9  -4  256.44   12.56
   1  -9   4  246.65   12.14
  -1  -9  -4  252.78   14.06
  -1  -9  -5   10.86    3.49
  -1  -9  -5   12.43    3.14
   1  -9   5   11.53    3.29
   1  -9   5   10.17    2.23
  -1  -9  -5    7.33    2.41
   1  -9   6  413.10   20.45
  -1  -9  -6  474.48   19.87
  -1  -9  -6  439.75   20.46
   1  -9   6  422.42   18.97
  -1  -9  -6  453.22   21.23
   1  -9   7   69.85    6.16
  -1  -9  -7   64.59    5.97
  -1  -9  -7   76.05    5.61
   1  -9   7   59.82    4.72
  -1  -9  -7   66.30    6.54
  -1  -9  -8  536.43   24.06
  -1  -9  -8  544.61   22.67
  -1  -9  -8  535.36   23.49
   1  -9   8  470.94   21.52
  -1  -9  -9   28.17    3.69
   1  -9   9   28.17    3.71
  -1  -9  -9   29.23    4.56
  -1  -9  -9   30.26    4.21
   1  -9   9   26.02    3.07
  -1  -9 -10  654.78   26.97
   1  -9  10  646.26   26.81
  -1  -9 -10  567.50   27.41
  -1  -9 -10  654.91   28.21
  -1  -9 -11   49.89    4.62
   1  -9  11   51.40    4.84
  -1  -9 -11   36.14    4.87
  -1  -9 -11   47.00    5.51
  -1  -9 -12  171.89    9.49
   1  -9  12  167.94    9.54
  -1  -9 -12  151.81   10.06
  -1  -9 -13    3.13    2.01
  -1  -9 -13    3.91    2.36
   1  -9  13   -1.49    2.35
  -1  -9 -14   30.02    3.52
  -1  -9 -14   31.86    4.14
   1  -9  14   26.85    3.96
   1  -9  15    3.07    2.54
  -1  -9 -15    4.74    1.90
  -1  -9 -15    5.24    2.33
   1  -9  16   41.83    4.52
  -1  -9 -16   31.41    4.01
  -1  -9 -16   36.46    3.60
  -1  -9 -17    1.43    1.91
  -1  -9 -17    0.44    1.43
   1  -9  17   -1.69    2.49
  -1  -9 -18   34.10    3.18
   1  -9  18   37.80    4.17
   1  -9  19    2.82    2.30
   1  -9  20   24.94    3.46
   1  -9  21    3.46    2.08
   1  -9  21    2.89    2.06
   1  -9  22   24.32    2.98
   1  -9  22   21.72    2.97
   1  -9  23    1.34    1.55
   1  -9  23    0.14    1.77
   1  -9  24   21.13    2.35
   1  -9  25   -0.23    1.13
  -1 -10  25    2.44    1.21
  -1 -10  24  312.34   13.19
  -1 -10  23    4.18    1.76
  -1 -10  22  285.51   12.42
  -1 -10  22  262.28   11.81
  -1 -10  21    2.81    2.02
   1 -10 -21    1.51    1.22
  -1 -10  21    2.03    1.52
  -1 -10  20  300.83   14.16
   1 -10 -20  343.71   14.28
  -1 -10  20  345.49   14.96
   1 -10 -19    2.31    1.66
  -1 -10  19    2.75    1.66
  -1 -10  19    6.30    2.31
   1 -10 -18   96.92    5.91
  -1 -10  18   91.47    5.66
   1 -10 -17    2.46    1.81
  -1 -10  17   -1.85    1.90
  -1 -10  16    8.90    2.15
   1 -10 -16   10.95    2.43
  -1 -10  15    1.33    1.66
   1 -10 -15   -1.13    1.94
  -1 -10  14   -1.34    1.80
   1 -10 -14    0.59    1.86
  -1 -10  14    0.21    2.35
   1 -10 -13    0.21    2.00
  -1 -10  13    1.19    1.62
  -1 -10  13   -0.21    2.39
  -1 -10  12   24.69    3.82
   1 -10 -12   32.80    4.00
  -1 -10  11    0.44    2.25
  -1 -10  10   73.01    5.50
   1 -10 -10   56.74    7.03
  -1 -10  10   63.75    6.52
  -1 -10  10   70.99    5.76
  -1 -10   9    2.50    2.16
   1 -10  -9    8.51    2.96
  -1 -10   9    6.18    2.65
  -1 -10   8  696.46   28.13
  -1 -10   8  678.68   28.27
   1 -10  -8  690.02   28.43
   1 -10  -7   17.62    4.30
  -1 -10   7   17.62    3.14
   1 -10  -7   17.92    3.41
  -1 -10   7   25.87    3.49
   1 -10  -6  962.17   38.07
  -1 -10   6  967.87   37.89
  -1 -10   6  982.82   39.56
  -1 -10   6  937.73   37.64
   1 -10  -6  889.43   38.22
   1 -10  -5   12.91    3.10
  -1 -10   5    9.73    2.81
   1 -10  -5   10.33    2.84
  -1 -10   5   10.88    2.70
   1 -10  -5    6.13    3.00
  -1 -10   5    9.85    3.39
  -1 -10   4  771.26   32.21
   1 -10  -4  795.57   32.42
   1 -10  -4  754.29   32.83
  -1 -10   4  774.99   31.84
  -1 -10   4  800.95   33.80
   1 -10  -3   15.75    3.28
   1 -10  -3   12.14    2.88
  -1 -10   3   20.87    3.28
  -1 -10   3   18.44    3.99
  -1 -10   3   13.36    2.80
  -1 -10   3   14.12    4.14
  -1 -10   2 1172.10   46.03
  -1 -10   2 1182.43   47.48
   1 -10  -2 1153.17   45.98
  -1 -10   2 1133.14   45.26
   1 -10  -2 1131.77   46.67
  -1 -10   2 1149.78   47.63
  -1 -10   1   10.74    2.86
   1 -10  -1   15.16    3.19
   1 -10  -1   11.17    3.27
  -1 -10   1   10.55    4.08
  -1 -10   1   14.60    2.83
  -1 -10   1   13.10    3.57
  -1 -10   0  850.38   34.31
   1 -10   0  840.43   34.26
  -1 -10   0  882.98   35.82
  -1 -10   0  804.47   33.37
   1 -10   0  834.57   35.11
  -1 -10   0  796.68   35.99
   1 -10   1   15.50    3.47
  -1 -10  -1   12.39    2.91
  -1 -10  -1   10.39    3.30
   1 -10   1   13.70    2.99
  -1 -10  -1   10.78    2.37
   1 -10   2  623.18   27.05
  -1 -10  -2  630.91   27.30
  -1 -10  -2  579.97   24.97
   1 -10   2  616.66   25.91
  -1 -10  -3    8.29    3.21
   1 -10   3    6.08    2.41
  -1 -10  -3    6.15    3.72
   1 -10   3    6.90    3.11
   1 -10   4  722.27   32.14
   1 -10   4  733.81   30.75
  -1 -10  -4  770.20   32.34
  -1 -10  -4  774.16   33.26
   1 -10   5   14.01    3.68
  -1 -10  -5   10.18    2.99
   1 -10   5   15.74    2.72
  -1 -10  -5   15.38    4.39
  -1 -10  -5   14.42    3.71
   1 -10   6  740.16   31.53
  -1 -10  -6  830.97   32.47
  -1 -10  -6  775.28   33.19
  -1 -10  -6  781.58   33.97
   1 -10   6  754.89   33.30
  -1 -10  -7    5.11    3.06
   1 -10   7    8.52    2.30
  -1 -10  -7    6.23    2.62
  -1 -10  -7   12.67    4.10
  -1 -10  -8  556.93   22.71
  -1 -10  -8  538.08   23.47
   1 -10   9    5.19    1.95
  -1 -10  -9    7.52    2.61
  -1 -10  -9    4.25    2.65
  -1 -10 -10   58.66    5.16
  -1 -10 -10   51.07    5.36
   1 -10  10   55.98    5.21
   1 -10  11    2.34    2.52
  -1 -10 -11    1.56    2.41
  -1 -10 -11   -1.04    2.06
   1 -10  12  100.88    6.93
  -1 -10 -12   96.73    6.49
  -1 -10 -12   86.01    6.87
  -1 -10 -13    1.68    2.39
  -1 -10 -13    1.69    1.88
   1 -10  13   -0.22    2.60
   1 -10  14    1.08    2.38
  -1 -10 -14   -0.52    1.84
  -1 -10 -14    0.90    2.15
   1 -10  15   -0.21    2.55
  -1 -10 -15   -0.32    1.62
  -1 -10 -15   -0.82    2.07
  -1 -10 -16    1.86    1.54
  -1 -10 -16    5.92    2.24
   1 -10  16    6.86    2.77
  -1 -10 -17    1.88    1.42
   1 -10  17    2.27    2.52
   1 -10  18   53.80    4.71
   1 -10  19    1.44    2.17
   1 -10  19    4.13    1.93
   1 -10  20  274.59   12.40
   1 -10  20  269.08   12.59
   1 -10  21    2.55    1.69
   1 -10  21    3.02    1.78
   1 -10  22  304.47   13.27
   1 -10  22  309.01   13.29
   1 -10  23    2.47    1.44
   1 -10  23    1.86    1.36
   1 -10  24  348.42   13.27
   1 -10  24  295.32   12.79
   1 -10  25    1.10    0.94
  -1 -11  23    0.83    0.93
  -1 -11  22   28.57    2.43
  -1 -11  21    7.16    1.65
   1 -11 -20   33.46    2.52
  -1 -11  20   31.88    3.12
   1 -11 -19    1.27    1.22
   1 -11 -18   11.41    1.95
   1 -11 -17    6.14    1.80
   1 -11 -16   53.15    4.14
  -1 -11  16   48.61    4.42
  -1 -11  15    8.20    2.57
   1 -11 -15    4.75    2.00
   1 -11 -14  112.42    6.85
  -1 -11  14  110.46    6.99
   1 -11 -13    5.48    2.23
  -1 -11  13    3.53    2.41
   1 -11 -12   46.34    4.37
  -1 -11  12   24.45    3.92
  -1 -11  11    2.34    2.21
  -1 -11  10   11.66    2.84
  -1 -11   9    2.00    2.27
   1 -11  -8   72.66    5.56
  -1 -11   8   64.34    5.22
  -1 -11   8   64.46    5.42
   1 -11  -7    3.77    2.27
  -1 -11   7    3.16    2.21
  -1 -11   7    4.05    3.33
  -1 -11   7    1.56    2.04
   1 -11  -6  167.10    9.33
  -1 -11   6  153.38    8.93
  -1 -11   6  163.31    9.12
   1 -11  -6  139.81    9.18
  -1 -11   6  169.67   10.53
   1 -11  -5    2.73    2.47
  -1 -11   5    1.61    2.10
   1 -11  -5    3.08    2.39
  -1 -11   5    2.32    2.85
  -1 -11   5    1.13    2.03
  -1 -11   4   38.77    4.02
  -1 -11   4   39.28    5.08
   1 -11  -4   30.82    4.20
  -1 -11   4   33.54    3.77
   1 -11  -4   37.07    4.15
  -1 -11   3    0.36    1.93
  -1 -11   3   -0.62    2.04
   1 -11  -3    0.21    2.22
   1 -11  -3    1.50    2.40
  -1 -11   3   -1.16    2.76
  -1 -11   2   24.10    3.49
   1 -11  -2   20.55    3.33
  -1 -11   2   22.27    3.07
   1 -11  -2   27.80    4.14
  -1 -11   2   19.40    4.13
  -1 -11   1    1.88    2.24
   1 -11  -1    3.12    2.34
   1 -11  -1   -1.82    2.60
  -1 -11   1    0.58    2.92
  -1 -11   1    1.01    1.81
   1 -11   0  219.46   12.03
  -1 -11   0  200.30   12.03
  -1 -11   0  222.40   11.26
  -1 -11   0  191.51   10.29
   1 -11   0  209.35   11.02
  -1 -11  -1    1.13    2.81
  -1 -11  -1    1.25    2.15
   1 -11   1    0.27    2.70
   1 -11   1    5.24    2.36
  -1 -11  -1    1.72    1.63
  -1 -11  -2   66.73    6.11
  -1 -11  -2   62.77    5.32
   1 -11   2   67.22    5.21
  -1 -11  -2   55.40    4.38
   1 -11   2   62.24    6.04
   1 -11   3    5.59    2.42
  -1 -11  -3    4.13    2.73
   1 -11   3    0.82    2.82
   1 -11   4   44.16    4.26
   1 -11   4   45.41    4.39
  -1 -11  -4   42.39    5.00
   1 -11   5    4.74    2.07
  -1 -11  -5    1.61    2.83
   1 -11   5    2.36    2.39
  -1 -11  -6  101.98    6.82
   1 -11   6   94.43    6.20
  -1 -11  -6   85.79    6.98
   1 -11   6   94.88    6.67
   1 -11   7    3.01    2.39
  -1 -11  -7    4.44    2.76
   1 -11   7    4.12    1.88
  -1 -11  -7    5.72    2.32
  -1 -11  -8   68.26    5.84
   1 -11   8   50.33    4.28
  -1 -11  -8   59.38    5.00
  -1 -11  -9    4.58    2.21
  -1 -11  -9    8.80    2.77
   1 -11   9    3.77    1.68
  -1 -11 -10   14.46    2.76
  -1 -11 -10   11.26    3.04
  -1 -11 -11    9.85    2.38
   1 -11  11    7.36    2.80
  -1 -11 -11    6.29    2.65
  -1 -11 -12  107.60    7.49
   1 -11  12  127.12    7.91
  -1 -11 -12  125.98    7.21
  -1 -11 -13    3.95    2.15
  -1 -11 -13    6.79    2.11
   1 -11  13    7.96    2.92
   1 -11  14   45.80    4.41
  -1 -11 -14   38.22    3.55
  -1 -11 -14   33.12    3.83
   1 -11  15    6.50    1.84
  -1 -11 -15    6.27    1.96
   1 -11  15    9.53    2.76
  -1 -11 -15    7.43    1.80
   1 -11  16   49.17    4.39
  -1 -11 -16   45.53    3.43
   1 -11  16   45.14    3.52
   1 -11  17    2.18    1.50
   1 -11  17    4.27    2.21
   1 -11  18   16.78    2.12
   1 -11  18   19.61    2.71
   1 -11  19    4.81    1.45
   1 -11  19    4.11    1.81
   1 -11  20   10.16    1.64
   1 -11  20   12.69    2.12
   1 -11  21    0.69    1.20
   1 -11  21    1.53    1.07
   1 -11  22   37.07    2.63
   1 -12 -18  178.89    7.87
  -1 -12  18  186.38    8.50
   1 -12 -17    4.11    1.21
  -1 -12  17    4.14    1.59
   1 -12 -16   30.06    2.63
  -1 -12  16   27.54    2.84
  -1 -12  15    3.44    1.65
   1 -12 -15    1.61    1.36
  -1 -12  14    5.66    1.93
   1 -12 -14    9.57    1.98
   1 -12 -13    0.14    1.59
  -1 -12  13    0.97    1.81
  -1 -12  12   29.81    3.19
  -1 -12  11    6.63    2.18
  -1 -12  10   37.07    3.71
   1 -12  -9    0.89    2.15
  -1 -12   9    3.32    2.01
   1 -12  -8  230.82   10.99
  -1 -12   8  191.30   10.34
   1 -12  -7   16.59    3.05
  -1 -12   7   16.44    3.78
  -1 -12   7   17.93    2.91
   1 -12  -6  412.13   18.05
  -1 -12   6  400.31   17.78
  -1 -12   6  421.69   19.42
  -1 -12   6  376.96   17.43
  -1 -12   5    5.34    2.30
   1 -12  -5    9.14    2.86
  -1 -12   5    8.22    2.56
   1 -12  -5    5.04    2.53
  -1 -12   5   10.18    3.67
  -1 -12   4  887.76   32.75
   1 -12  -4  725.24   32.63
  -1 -12   4  837.91   34.01
   1 -12  -4  830.90   32.61
  -1 -12   4  728.44   31.83
   1 -12  -3   37.19    4.44
  -1 -12   3   45.00    4.29
  -1 -12   3   41.44    5.07
  -1 -12   3   38.73    3.86
   1 -12  -3   39.31    4.22
   1 -12  -2  809.61   31.40
  -1 -12   2  815.60   31.45
  -1 -12   2  816.54   32.81
   1 -12  -2  734.73   31.86
  -1 -12   1    7.95    2.29
   1 -12  -1   15.88    3.12
  -1 -12   1   13.61    2.94
  -1 -12   1   16.23    3.89
   1 -12  -1   12.13    2.67
   1 -12  -1   13.39    3.39
   1 -12   0  926.45   37.70
  -1 -12   0  948.02   39.39
  -1 -12   0  980.17   38.30
   1 -12   0  950.18   38.11
   1 -12   1   40.97    4.12
   1 -12   1   41.29    4.01
  -1 -12  -1   29.89    4.51
  -1 -12  -1   39.83    4.29
   1 -12   2  677.08   29.08
  -1 -12  -2  748.43   29.56
  -1 -12  -2  699.80   30.40
   1 -12   2  718.01   29.07
   1 -12   3   10.01    2.43
  -1 -12  -3   10.34    3.31
   1 -12   3    7.12    2.54
   1 -12   4  567.72   23.90
  -1 -12  -4  556.28   25.16
   1 -12   4  590.13   24.20
   1 -12   5   22.14    2.98
  -1 -12  -5   26.63    3.85
   1 -12   5   24.70    3.46
   1 -12   6  310.96   15.02
   1 -12   6  360.32   15.82
  -1 -12  -6  353.65   16.70
  -1 -12  -6  360.25   15.89
  -1 -12  -7    7.01    2.76
  -1 -12  -7    4.23    2.31
   1 -12   7    3.54    1.71
   1 -12   7    4.97    2.46
   1 -12   8  221.21   10.65
  -1 -12  -8  199.39   10.89
  -1 -12  -8  224.89   10.46
  -1 -12  -9    8.77    2.28
  -1 -12  -9   10.45    2.72
  -1 -12 -10   64.08    4.68
  -1 -12 -10   60.43    5.05
  -1 -12 -11    1.01    1.53
  -1 -12 -11   -0.35    1.80
  -1 -12 -12   14.85    2.32
  -1 -12 -12   10.15    2.19
   1 -12  13   -2.96    2.17
  -1 -12 -13    0.47    1.37
  -1 -12 -13   -1.05    1.53
  -1 -12 -14   21.57    2.24
   1 -12  14   21.26    2.88
   1 -12  15    2.92    1.75
   1 -12  16   52.85    3.95
   1 -12  17    3.77    1.56
   1 -12  18  101.09    5.41
   1 -12  19    4.46    1.21
   1 -13 -15    0.37    0.82
  -1 -13  15    0.72    0.94
   1 -13 -14    7.93    1.43
  -1 -13  14    6.42    1.40
   1 -13 -13    0.18    1.04
  -1 -13  13   -0.65    1.20
  -1 -13  12    2.10    1.32
  -1 -13  11    0.47    1.19
  -1 -13  10    0.97    1.32
   1 -13  -9    1.06    1.50
  -1 -13   9   -0.91    1.36
   1 -13  -8    0.95    1.60
  -1 -13   8    3.31    1.44
   1 -13  -7    0.14    1.63
  -1 -13   7   -0.31    1.36
   1 -13  -6    1.14    1.67
   1 -13  -5    1.58    1.67
   1 -13  -4   15.74    2.62
  -1 -13   4   16.48    2.62
  -1 -13   3    2.59    1.95
   1 -13  -3    1.15    1.70
  -1 -13   3    3.51    2.50
   1 -13  -2   53.30    3.84
  -1 -13   2   54.21    4.32
   1 -13  -2   51.26    4.18
  -1 -13   2   59.98    5.19
   1 -13  -1   11.62    2.06
  -1 -13   1   15.38    3.00
  -1 -13   1   11.12    2.35
   1 -13  -1   12.90    2.30
  -1 -13   0   52.01    4.85
   1 -13   0   58.34    4.23
  -1 -13   0   60.87    4.46
   1 -13   0   51.46    3.90
  -1 -13  -1    6.56    2.42
   1 -13   1    4.18    1.76
   1 -13   1    4.87    1.88
  -1 -13  -1    5.71    2.03
   1 -13   2   84.34    5.44
  -1 -13  -2  103.14    5.92
   1 -13   2   90.12    5.51
  -1 -13  -2   89.48    6.30
   1 -13   3    6.45    1.84
   1 -13   3    7.08    2.05
  -1 -13  -3    6.63    2.07
  -1 -13  -3    8.42    2.51
   1 -13   4   42.24    3.49
   1 -13   4   50.10    3.94
   1 -13   5    3.63    1.56
   1 -13   5    4.50    1.99
  -1 -13  -5    6.35    2.25
  -1 -13  -6   -0.41    1.67
  -1 -13  -6    1.22    2.00
   1 -13   6    0.14    1.67
  -1 -13  -7    3.16    1.73
  -1 -13  -7    2.65    1.88
   1 -13   7   -0.41    1.94
  -1 -13  -8    2.75    1.63
  -1 -13  -8    3.00    1.85
   1 -13   8    2.85    1.82
   1 -13   9    0.26    1.63
  -1 -13  -9    0.13    1.54
  -1 -13  -9    2.07    1.35
  -1 -13 -10    6.07    1.49
   1 -13  10    6.21    1.95
  -1 -13 -10    7.59    1.72
  -1 -13 -11    2.04    1.21
  -1 -13 -12    0.32    1.02
  -1 -13 -13    2.28    0.97
   1 -13  15    2.47    1.06
   1 -13  16    2.57    0.97
   1 -14  -9   20.17    1.91
   1 -14  -8  148.38    6.98
   1 -14  -7   40.38    2.97
   1 -14  -6  204.93    9.17
   1 -14  -5   43.13    3.24
   1 -14  -4  316.37   13.27
   1 -14  -3   49.72    3.42
   1 -14  -2  222.03    9.80
   1 -14  -1   48.79    3.36
   1 -14   0  386.86   15.76
   1 -14   1  101.67    5.61
  -1 -14  -1  141.20    6.33
   1 -14   2  386.11   16.74
   1 -14   2  414.96   16.90
  -1 -14  -3   71.69    4.29
   1 -14   3   63.12    3.91
   1 -14   4  262.19   11.15
   1 -14   5   49.36    3.28
  -1 -14  -6  203.66    9.00
   1 -14   6  198.49    8.85
  -1 -14  -7   36.15    2.58
   1 -14   7   30.15    2.48
  -1 -14  -8   87.38    4.37
   1 -14   8   78.57    4.35
  -1 -14  -9    8.90    1.17
   1 -14   9    5.98    1.26
   1 -14  10    8.14    1.30
  -2   0  33   -0.46    1.21
  -2   0  32  136.87    7.10
  -2   0  31    0.14    1.67
  -2   0  30  583.25   24.42
  -2   0  30  588.70   24.51
  -2   0  29    1.09    2.03
  -2   0  29    0.92    2.12
  -2   0  28  459.89   19.97
  -2   0  28  461.89   20.07
  -2   0  28  418.99   19.22
  -2   0  27    0.37    1.89
  -2   0  27    0.21    2.35
  -2   0  27   -1.06    2.22
  -2   0  26 1166.19   46.79
  -2   0  26 1168.15   47.18
  -2   0  26 1200.35   47.28
  -2   0  25   -0.68    2.47
  -2   0  25   -1.89    2.32
   2   0 -25   -2.31    3.07
  -2   0  25   -1.61    2.44
  -2   0  24  159.15    9.50
  -2   0  24  157.72    9.35
  -2   0  24  161.21    9.58
   2   0 -24  133.62   11.46
  -2   0  23   -0.23    2.38
  -2   0  23   -2.14    2.36
  -2   0  23   -0.23    2.19
   2   0 -23   -0.46    2.98
  -2   0  22  261.15   13.27
  -2   0  22  240.21   12.85
  -2   0  22  252.50   12.98
   2   0 -22  251.13   16.07
  -2   0  21   -0.21    2.22
   2   0 -21    0.44    2.74
  -2   0  21   -0.20    1.99
  -2   0  21   -0.44    2.06
  -2   0  20  736.28   30.22
   2   0 -20  712.28   33.59
  -2   0  20  704.61   30.15
  -2   0  20  724.10   29.98
  -2   0  19   -0.34    1.77
   2   0 -19    2.41    2.94
  -2   0  19    0.40    1.86
  -2   0  19    1.49    1.94
  -2   0  19   -0.78    1.97
  -2   0  18  573.88   24.15
   2   0 -18  586.41   27.47
  -2   0  18  572.07   23.94
  -2   0  18  544.67   24.06
  -2   0  18  563.71   23.65
  -2   0  17    0.18    1.55
  -2   0  17   -0.94    1.81
   2   0 -17    0.72    2.97
  -2   0  17    0.18    1.74
  -2   0  17    0.50    1.70
   2   0 -16   86.02    7.60
   2   0 -15    1.25    2.91
   2   0 -14   12.66    3.62
   2   0 -14   12.11    2.71
   2   0 -13   -0.99    1.73
   2   0 -12 1469.50   57.08
   2   0 -11    0.62    1.57
   2   0 -10   91.81    5.55
   2   0  -9   -0.24    1.42
   2   0  -8  250.48   11.13
  -2   0   8  248.61   12.19
   2   0  -7    0.10    1.24
  -2   0   7   -0.15    1.90
  -2   0   6 1328.32   51.25
  -2   0   5   -0.76    1.78
  -2   0   4  177.35    8.66
  -2   0   3   -0.34    1.89
  -2   0   2 5287.83  195.49
  -2   0   1    0.11    1.74
  -2   0   0 3093.60  115.14
  -2   0  -1   -0.63    1.81
  -2   0  -2 9999.00  367.86
  -2   0  -3    1.24    1.73
  -2   0  -5    0.91    1.88
  -2   0  -6 1360.51   52.56
  -2   0  -7    0.62    2.14
  -2   0  -8 1082.32   42.70
  -2   0  -9    0.74    2.18
  -2   0 -10   20.39    3.64
  -2   0 -11   -0.23    2.33
  -2   0 -12  103.16    8.64
  -2   0 -13   -0.27    2.60
  -2   0 -14   35.79    4.79
  -2   0 -15   -0.64    2.79
  -2   0 -16    8.27    3.68
   2   0  16    3.50    1.96
   2   0  17    0.70    1.69
  -2   0 -17    1.06    1.67
  -2   0 -17    0.37    2.73
  -2   0 -18  521.63   22.31
   2   0  18  499.98   22.13
  -2   0 -18  542.28   25.72
   2   0  19    0.97    1.93
  -2   0 -19   -0.20    2.04
  -2   0 -19   -0.42    2.54
  -2   0 -20  492.19   22.27
   2   0  20  492.68   22.03
  -2   0 -20  558.34   26.25
  -2   0 -21   -0.46    3.11
  -2   0 -21   -0.22    2.08
   2   0  21    1.49    2.09
   2   0  22  414.11   19.01
  -2   0 -22  407.95   22.75
  -2   0 -23   -0.49    3.18
   2   0  23   -0.67    2.26
  -2   0 -24  108.76   10.45
   2   0  24  118.21    7.81
  -2   0 -25    2.52    2.86
   2   0  25    2.24    2.36
   2   0  26  502.22   22.38
   2   0  27    0.21    2.30
   2   0  28  400.54   18.36
   2   0  28  430.47   18.86
  -2   0 -29    2.73    1.86
   2   0  29   -0.82    1.94
   2   0  29   -1.24    2.01
   2   0  30  418.77   17.95
   2   0  30  410.15   18.09
  -2   0 -30  416.47   18.38
  -2   0 -31    0.15    1.41
   2   0  31   -1.11    1.51
   2   0  31    0.95    1.63
   2   0  32   70.95    4.41
  -2   0 -32   78.67    4.89
   2   0  32   79.80    4.77
   2   0  33    0.07    0.87
   2   0  33    0.26    1.06
   2   0  34   85.02    4.25
  -2   1  34    0.06    0.77
  -2  -1  34    0.30    0.71
  -2   1  33    0.44    1.17
  -2  -1  33    0.80    1.20
  -2   1  32   40.40    3.27
  -2   1  31   -0.13    1.59
  -2   1  30    6.54    2.11
  -2   1  30    9.17    2.26
  -2   1  29    4.74    2.32
  -2   1  29    1.26    2.17
  -2  -1  29    4.05    1.85
  -2   1  28  107.73    7.06
  -2   1  28  112.39    7.26
  -2  -1  28  103.16    6.75
  -2  -1  27    0.97    2.07
  -2   1  27   -0.41    2.28
  -2   1  27   -0.63    2.38
  -2   1  26    5.85    2.75
  -2   1  26    5.09    2.27
  -2  -1  26    2.93    2.30
  -2   1  26    2.21    2.39
   2   1 -25    0.46    2.70
  -2   1  25    0.89    2.33
  -2   1  25    2.19    2.12
  -2  -1  25    3.93    2.55
  -2   1  25    0.46    2.35
  -2   1  24    1.79    2.46
  -2  -1  24    0.67    2.38
  -2   1  24    1.37    3.04
  -2  -1  24    0.46    3.07
  -2   1  24    0.20    2.12
  -2   1  24    1.39    2.30
   2   1 -24    1.38    2.97
  -2   1  23    5.11    2.44
  -2  -1  23    2.71    3.30
  -2   1  23    2.08    2.39
  -2   1  23    1.03    2.30
  -2   1  23   -2.27    3.90
  -2  -1  23    1.78    2.50
   2   1 -23    5.49    3.27
  -2   1  22  150.10    8.76
   2   1 -22  124.94   10.72
  -2   1  22  128.56    8.23
  -2   1  22  135.37    8.65
  -2  -1  22  126.66    8.39
  -2   1  22  121.54   10.70
  -2  -1  22  136.47    8.11
  -2  -1  21    1.15    1.99
  -2   1  21    0.42    2.05
  -2   1  21    0.20    2.02
  -2   1  21   -1.73    3.31
   2   1 -21    1.74    2.98
  -2  -1  21    0.42    2.16
  -2   1  21    1.99    2.01
  -2   1  20  246.83   14.69
   2   1 -20  222.57   14.23
  -2   1  20  221.12   11.38
  -2   1  20  207.02   11.17
  -2  -1  20  215.64   11.33
  -2   1  20  220.25   11.59
  -2  -1  20  213.27   11.06
  -2   1  19    0.39    3.06
   2   1 -19   -1.19    2.88
  -2   1  19   -2.24    2.21
  -2  -1  19    0.38    2.03
  -2   1  19   -0.20    1.83
  -2  -1  19   -1.06    1.97
  -2   1  19    0.19    1.94
  -2  -1  18    4.55    1.91
   2   1 -18    0.76    2.87
  -2   1  18    0.54    1.86
  -2   1  18    3.65    1.95
  -2   1  18    0.75    2.83
  -2  -1  18    2.12    1.80
  -2   1  18    1.54    1.89
  -2  -1  18    1.72    2.07
   2   1 -17    5.00    3.38
  -2   1  17    4.66    1.91
  -2  -1  17    2.88    1.87
  -2  -1  17    4.96    1.98
  -2  -1  17    2.90    1.88
  -2   1  17    2.21    1.97
  -2   1  17    4.21    2.96
  -2   1  17    2.18    1.72
   2  -1 -16  254.46   13.98
   2   1 -16  255.75   14.82
  -2   1  16  267.14   14.86
   2  -1 -15    0.80    2.08
   2   1 -15    0.31    2.72
  -2   1  15   -2.44    3.20
   2  -1 -14   18.58    3.23
  -2   1  14   18.80    3.75
   2   1 -14   11.49    3.54
  -2   1  13   10.74    3.23
   2  -1 -13   10.31    2.54
  -2   1  12  604.00   25.81
   2  -1 -12  579.24   25.05
   2  -1 -11    4.02    1.97
   2   1 -11    0.13    1.28
  -2   1  11    1.27    2.30
   2  -1 -10  115.25    7.12
   2   1 -10  107.02    6.42
   2  -1  -9   16.40    2.48
   2   1  -9   12.67    1.95
   2   1  -8  263.45   11.07
   2  -1  -8  252.81   11.88
  -2   1   8  237.61   12.25
   2   1  -7    4.57    1.17
   2  -1  -7    3.81    1.69
  -2   1   7    1.50    1.97
  -2   1   6  103.27    6.12
   2   1  -6  102.66    4.98
  -2   1   5    7.93    2.13
  -2   1   4    7.86    2.18
  -2   1   3   17.54    2.41
  -2   1   2   80.52    4.93
  -2   1   1   13.71    2.30
  -2   1   0 1729.12   65.24
  -2   1  -1  227.04   10.31
   2   1   2 5551.32  204.60
  -2   1  -2 5522.76  204.59
  -2   1  -3    1.03    1.69
   2   1   3    0.22    1.75
   2   1   4  318.95   13.80
   2   1   5   45.32    3.69
  -2   1  -6    5.63    2.48
  -2   1  -7   20.56    3.01
  -2   1  -8  244.96   12.02
  -2   1  -9   86.06    6.10
  -2   1 -10  512.98   22.38
  -2   1 -11    8.80    2.88
  -2   1 -12  336.30   16.69
  -2   1 -13   33.12    4.42
  -2   1 -14   15.43    3.61
  -2   1 -15   18.55    4.01
   2   1  16   10.16    2.49
  -2  -1 -16   12.82    2.83
   2  -1  16    8.74    2.64
   2  -1  17    4.78    2.01
  -2   1 -17    7.13    2.16
   2   1  17    6.32    1.97
  -2  -1 -17    7.30    2.15
  -2   1 -17   10.20    3.59
  -2  -1 -18   -0.19    1.81
  -2   1 -18    1.10    1.88
  -2   1 -18    2.71    3.14
   2   1  18    1.48    1.88
   2   1  19   16.13    2.87
  -2  -1 -19   21.11    3.22
  -2   1 -19   16.85    3.01
  -2   1 -19   19.28    4.40
   2   1  20    5.71    2.70
  -2   1 -20    6.47    2.66
  -2   1 -21    1.81    3.06
  -2   1 -21   -1.04    2.00
   2   1  21    1.70    2.22
  -2   1 -22  131.68    8.27
   2   1  22  132.93    8.39
  -2   1 -22  134.85   11.20
  -2   1 -23    1.46    2.87
   2   1  23    0.45    2.15
  -2   1 -24   17.78    4.49
   2   1  24   22.11    3.49
  -2   1 -25    0.99    2.92
   2   1  25    0.89    2.23
   2   1  26   19.50    3.42
   2  -1  27    2.40    2.07
   2   1  27    2.27    2.33
   2  -1  28    1.03    1.93
   2   1  28   -0.19    2.24
  -2   1 -29    3.41    1.97
   2   1  29    7.80    2.33
   2  -1  29    6.37    2.11
   2   1  29    2.63    1.96
   2  -1  30   18.50    2.49
   2   1  30   14.55    2.56
   2   1  30   16.88    2.59
  -2   1 -30   13.00    2.43
   2   1  31    5.59    1.81
   2  -1  31    3.02    1.50
   2   1  31    4.37    1.73
  -2   1 -31    4.84    1.70
   2   1  32   12.22    1.95
   2  -1  32    9.66    1.57
   2   1  32   12.75    1.96
   2   1  33    2.71    1.12
   2   1  33    3.50    1.20
  -2   2  33   15.70    1.80
  -2  -2  33   16.31    1.85
  -2   2  32  199.96    9.01
  -2  -2  32  188.43    9.04
  -2  -2  31   18.45    2.49
  -2   2  31   12.59    2.26
  -2  -2  30  400.77   16.60
  -2   2  30  390.44   16.40
  -2  -2  29   48.86    4.41
  -2   2  29   40.28    3.98
  -2  -2  29   39.11    3.83
  -2   2  29   46.28    4.27
  -2  -2  29   45.70    4.26
  -2   2  28  579.04   24.44
  -2  -2  28  545.43   24.28
  -2  -2  28  580.82   24.60
  -2   2  28  600.91   24.69
  -2  -2  28  579.64   24.61
  -2  -2  27   47.57    4.72
  -2  -2  27   43.91    4.58
  -2   2  27   42.11    4.44
  -2  -2  27   46.14    4.61
  -2   2  27   43.68    4.49
  -2  -2  26  759.88   32.00
  -2   2  26  755.02   31.81
  -2  -2  26  745.10   31.87
  -2  -2  26  781.26   32.06
  -2   2  26  789.15   32.05
  -2  -2  25   46.59    4.85
   2  -2 -25   47.31    6.29
  -2   2  25   48.76    4.84
  -2  -2  25   48.00    4.83
  -2  -2  25   49.32    5.00
   2   2 -25   39.12    5.83
  -2   2  25   49.86    4.96
   2  -2 -24  354.68   20.85
  -2  -2  24  362.62   17.41
   2   2 -24  307.15   19.97
  -2   2  24  407.72   17.83
  -2  -2  24  364.14   17.46
  -2  -2  24  374.17   17.71
  -2   2  24  379.37   17.49
  -2  -2  24  372.59   17.15
   2   2 -23   21.03    4.94
  -2  -2  23   20.46    3.59
  -2   2  23   20.21    3.51
  -2  -2  23   15.96    3.29
  -2   2  23   18.22    3.33
  -2   2  23   16.10    4.65
  -2  -2  23   24.23    3.86
  -2   2  23   22.90    3.78
  -2  -2  23   19.01    3.52
   2  -2 -23   16.72    4.76
  -2  -2  22  239.19   12.22
  -2   2  22  255.53   15.80
  -2   2  22  264.20   12.71
   2   2 -22  203.57   15.01
   2  -2 -22  254.02   15.87
  -2  -2  22  191.77   14.46
  -2   2  22  221.11   12.17
  -2   2  22  259.42   12.89
  -2  -2  22  233.05   12.55
  -2  -2  22  244.63   12.54
  -2  -2  22  213.19   12.20
  -2  -2  21    7.69    2.55
  -2   2  21    6.44    2.49
  -2  -2  21    4.25    3.19
   2  -2 -21    7.39    3.77
  -2   2  21    3.18    2.53
  -2   2  21    7.73    3.95
  -2  -2  21    5.28    2.69
  -2  -2  21    6.39    2.82
   2   2 -21    5.57    3.82
  -2   2  21    7.02    2.82
  -2  -2  21    8.49    2.66
  -2   2  20  113.69    7.20
  -2  -2  20  101.01    6.74
  -2   2  20   96.03    6.97
  -2   2  20  106.71    7.30
  -2  -2  20   92.79    6.91
  -2  -2  20   88.73    6.80
  -2  -2  20   83.51    8.76
  -2   2  20  100.11    9.32
   2   2 -20   95.98    9.32
  -2  -2  20   82.93    6.73
   2  -2 -20  126.50   10.20
  -2   2  19    9.18    2.53
  -2   2  19    6.66    2.44
  -2  -2  19    6.57    2.66
  -2  -2  19   11.68    2.61
   2   2 -19    6.27    3.44
   2  -2 -19    8.70    3.56
  -2   2  19   12.24    4.03
  -2  -2  19   13.31    4.02
  -2  -2  19    8.30    2.70
  -2   2  19   11.18    2.68
  -2  -2  19    9.50    2.67
   2  -2 -18  122.71    9.51
  -2  -2  18   93.57    6.35
  -2  -2  18   90.13    6.57
  -2  -2  18  100.77    6.93
   2   2 -18   90.38    8.56
  -2   2  18   92.19    6.66
  -2   2  18  103.30    6.94
  -2  -2  18   91.28    6.57
  -2  -2  18   89.67    8.38
  -2   2  18  105.12    9.09
  -2   2  18  102.03    6.72
  -2   2  17    0.86    1.80
   2  -2 -17   -0.36    2.96
  -2  -2  17    0.38    1.94
   2  -2 -17    1.33    2.65
  -2  -2  17    0.99    1.66
   2   2 -17    0.35    2.97
  -2   2  17    0.35    2.77
  -2   2  17    1.60    2.05
  -2  -2  17    0.35    2.82
  -2  -2  17    0.51    1.89
  -2  -2  17    0.18    1.88
  -2   2  17    0.55    1.91
   2   2 -16   48.79    6.20
   2  -2 -16   57.95    6.86
  -2  -2  16   30.29    3.64
  -2  -2  16   29.18    3.95
  -2   2  16   63.60    6.75
   2  -2 -16   60.76    6.22
  -2   2  16   37.31    4.15
  -2  -2  16   31.92    3.90
  -2  -2  16   27.82    3.75
  -2  -2  16   38.44    6.03
   2   2 -15    6.75    3.16
  -2   2  15    0.61    2.76
   2  -2 -15    5.33    2.79
  -2  -2  15    6.52    3.18
   2  -2 -15    7.48    3.19
   2  -2 -14   21.22    4.19
   2  -2 -14   15.34    3.51
   2   2 -14   19.19    3.90
  -2  -2  14   16.77    3.95
  -2   2  14   12.05    3.53
   2  -2 -13    9.46    2.75
  -2  -2  13   12.18    3.16
  -2   2  13   10.46    3.05
   2  -2 -12  309.11   14.71
  -2  -2  12  283.73   14.71
  -2   2  12  293.67   14.77
  -2   2  11   41.52    4.38
  -2  -2  11   45.86    4.61
   2  -2 -11   36.89    4.06
   2  -2 -10 1334.70   51.95
  -2  -2  10 1327.24   52.05
  -2   2  10 1310.96   51.97
   2  -2  -9  172.21    9.36
  -2   2   9  173.55    9.29
   2  -2  -8 1718.60   65.99
  -2  -2   7  110.79    6.73
   2  -2  -7  119.39    6.98
  -2   2   7  115.74    6.77
  -2   2   6 2229.24   82.66
  -2  -2   6 2226.38   82.63
   2   2  -6 2170.06   80.46
  -2  -2   5  181.64    8.96
  -2   2   5  179.24    8.90
   2   2  -5  180.33    7.10
  -2  -2   4 1089.11   43.24
  -2   2   4 1153.06   43.33
  -2   2   3   36.30    3.17
  -2  -2   3   34.72    3.25
  -2  -2   2  945.13   40.57
  -2   2   2 1194.22   41.04
  -2  -2   1  187.35    8.80
  -2   2   1  181.88    8.67
  -2   2   0 6414.39  236.29
  -2  -2   0 6390.19  236.28
  -2   2  -1  789.87   30.51
  -2  -2  -1  763.52   30.44
  -2  -2  -2 8171.82  299.09
   2  -2   2 8128.04  299.04
  -2   2  -2 8159.11  299.11
   2   2   2 8016.11  299.01
   2   2   3  231.72   10.40
   2  -2   3  216.81   10.31
  -2  -2  -3  226.46   10.48
  -2   2  -3  237.57   10.56
   2   2   4  847.96   34.10
   2  -2   4  857.27   34.10
  -2   2  -4  918.20   34.45
  -2  -2  -4  875.14   34.35
   2  -2   5   39.67    3.54
  -2  -2  -6  679.52   28.21
  -2   2  -6  706.30   28.03
  -2  -2  -7   31.03    3.52
  -2   2  -7   35.69    3.65
  -2  -2  -8  682.42   28.61
  -2   2  -8  712.40   28.77
  -2  -2  -9   41.44    4.40
  -2   2  -9   44.26    4.41
  -2  -2 -10  181.73   10.18
  -2   2 -10  182.21   10.22
  -2  -2 -11    8.90    3.08
  -2   2 -11   12.99    3.09
  -2  -2 -12   56.44    5.75
  -2   2 -12   65.67    6.16
   2  -2  13   -0.24    2.03
  -2  -2 -13   -0.83    2.57
  -2   2 -13   -1.64    2.70
   2  -2  14  140.12    8.93
  -2  -2 -14  161.12   10.08
  -2   2 -14  148.06    9.85
  -2  -2 -15   47.98    5.57
  -2   2 -15   50.79    5.72
   2  -2  15   39.30    4.23
  -2   2 -16  444.97   19.61
  -2   2 -16  482.79   22.71
   2   2  16  462.62   19.79
   2  -2  16  433.93   19.66
  -2  -2 -16  514.89   23.21
   2   2  17   19.63    2.90
   2  -2  17   18.84    2.81
  -2   2 -17   23.26    4.28
  -2   2 -17   22.44    3.05
  -2  -2 -17   24.65    4.37
  -2   2 -18  418.68   18.82
   2   2  18  423.07   18.94
   2  -2  18  425.97   19.03
  -2  -2 -18  451.88   22.40
  -2   2 -18  446.58   22.24
  -2   2 -19   51.62    4.68
   2   2  19   54.60    4.76
   2  -2  19   50.85    4.60
  -2  -2 -19   55.04    6.78
  -2   2 -19   58.98    6.75
  -2   2 -20  754.07   30.87
  -2   2 -20  767.41   34.76
   2   2  20  738.05   30.90
   2  -2  20  728.99   30.89
  -2  -2 -20  742.80   34.67
  -2   2 -21   70.65    5.59
   2  -2  21   74.07    5.81
   2   2  21   65.24    5.67
  -2  -2 -21   89.33    8.53
  -2   2 -21   67.24    7.69
  -2  -2 -22 1565.84   63.58
  -2   2 -22 1507.83   63.18
   2   2  22 1473.09   58.88
   2  -2  22 1477.75   58.86
  -2   2 -22 1513.31   58.73
  -2  -2 -23   72.90    8.32
  -2   2 -23   84.58    6.33
  -2   2 -23   82.93    8.65
   2  -2  23   89.99    6.61
   2   2  23   92.77    6.69
  -2  -2 -24  611.99   31.92
   2   2  24  678.16   28.38
   2  -2  24  684.86   28.33
  -2   2 -24  631.13   32.00
   2  -2  25   16.18    3.00
  -2   2 -25   12.27    4.13
   2  -2  25   13.40    2.57
   2   2  25   20.42    3.44
  -2  -2 -25   16.64    4.61
   2  -2  25   19.90    3.43
   2  -2  26  308.26   14.48
   2   2  26  315.41   14.92
   2  -2  26  341.89   15.19
   2   2  27   31.80    3.84
   2  -2  27   29.62    3.76
   2  -2  27   29.13    3.43
  -2   2 -28  487.34   20.98
   2  -2  28  462.17   20.31
   2   2  28  487.59   20.90
   2  -2  28  472.70   20.78
  -2  -2 -28  474.28   20.92
  -2   2 -29   36.66    3.84
   2  -2  29   35.69    3.39
  -2  -2 -29   33.69    3.68
   2  -2  29   34.99    3.71
   2   2  29   36.55    3.79
  -2  -2 -30  466.84   20.37
  -2   2 -30  476.01   20.36
   2   2  30  505.88   20.34
   2  -2  30  455.36   19.57
   2  -2  30  493.22   20.28
   2   2  31   35.68    3.20
  -2  -2 -31   33.51    3.21
  -2   2 -31   30.16    3.05
   2  -2  31   39.16    3.28
   2   2  32  249.38   10.89
   2  -2  32  245.06   10.89
   2   2  33    9.03    1.34
   2  -2  33    7.93    1.36
  -2   3  33    0.93    0.85
  -2   3  32    5.82    1.39
  -2  -3  32    7.28    1.41
  -2  -3  31    5.75    1.62
  -2   3  31    5.56    1.60
  -2  -3  31    5.42    1.32
  -2  -3  30    9.90    1.93
  -2  -3  30   11.08    2.19
  -2   3  30    6.94    1.89
  -2  -3  29    7.11    2.19
  -2   3  29    6.07    2.01
  -2  -3  29    7.23    2.13
  -2   3  28    1.16    1.83
  -2  -3  28    0.88    1.96
  -2  -3  28    1.04    1.97
  -2   3  28    0.17    1.95
  -2  -3  28    0.53    1.88
  -2   3  27    0.18    1.95
  -2  -3  27    3.27    2.24
  -2  -3  27    1.16    2.19
  -2   3  27   -1.32    1.94
  -2  -3  27    1.74    2.05
  -2   3  26   10.87    2.68
  -2  -3  26   10.29    3.02
  -2  -3  26    7.97    2.69
  -2   3  26    7.63    2.51
  -2  -3  26    6.75    2.50
  -2  -3  26    5.95    2.23
  -2   3  25    0.20    2.02
  -2   3  25    0.42    2.13
  -2  -3  25    0.21    2.07
  -2  -3  25    1.99    2.45
  -2  -3  25    2.34    2.24
  -2  -3  25    0.20    2.20
   2  -3 -24   25.33    5.01
  -2   3  24   27.67    3.72
  -2  -3  24   28.23    3.80
  -2  -3  24   34.48    4.31
  -2  -3  24   23.72    3.68
   2   3 -24   32.82    5.15
  -2  -3  24   29.71    3.85
  -2   3  24   25.25    3.73
  -2   3  23    3.98    2.17
   2   3 -23    0.43    2.79
  -2  -3  23    2.08    2.17
   2  -3 -23    3.51    2.78
  -2  -3  23    3.84    2.62
  -2   3  23    1.75    2.24
  -2  -3  23   -0.22    2.22
  -2  -3  23    1.99    2.28
   2   3 -22    1.71    3.06
  -2  -3  22    5.74    2.55
  -2  -3  22    6.20    2.58
  -2   3  22    2.29    2.25
   2  -3 -22    5.22    3.15
  -2  -3  22    3.79    2.61
  -2  -3  22    4.37    2.51
  -2   3  22    3.50    2.52
   2  -3 -21    2.97    2.51
  -2  -3  21    5.02    2.44
  -2  -3  21    2.79    2.04
   2   3 -21    4.58    3.06
  -2  -3  21    3.47    2.38
  -2   3  21    3.88    2.12
  -2  -3  21    3.85    2.27
  -2   3  21    5.51    2.32
  -2  -3  20    1.49    2.12
   2  -3 -20    1.24    2.66
  -2   3  20    2.77    2.06
  -2  -3  20    4.07    2.98
  -2  -3  20    3.74    2.28
  -2   3  20   -0.82    2.65
   2   3 -20    0.41    2.70
  -2  -3  20    2.09    2.18
  -2   3  20    0.63    2.06
  -2  -3  20    1.05    1.88
  -2  -3  19    3.11    2.17
  -2  -3  19   -0.78    2.87
  -2   3  19    1.14    1.90
  -2   3  19    0.39    2.78
   2   3 -19   -0.39    2.61
   2  -3 -19    1.57    2.54
  -2  -3  19    1.14    1.92
  -2  -3  19    0.40    2.00
  -2   3  19   -2.23    2.29
  -2  -3  19    0.81    1.90
  -2  -3  18   50.06    4.62
  -2  -3  18   43.57    4.66
   2  -3 -18   73.40    7.32
  -2   3  18   55.56    4.85
  -2   3  18   39.03    4.49
  -2  -3  18   41.12    4.39
  -2  -3  18   45.71    6.21
  -2   3  18   58.57    6.72
  -2  -3  18   44.52    4.49
  -2   3  18   53.70    4.73
   2   3 -18   57.32    6.59
   2  -3 -18   58.79    6.97
  -2  -3  17   17.57    2.89
  -2  -3  17   11.92    2.62
  -2  -3  17   17.08    4.13
   2  -3 -17   11.27    3.67
  -2  -3  17   14.01    2.84
  -2   3  17   12.67    2.62
   2   3 -17   18.45    3.86
   2  -3 -17   15.95    3.86
  -2   3  17   11.99    2.81
  -2   3  17   15.97    3.97
  -2  -3  17   11.61    2.59
  -2   3  17   12.86    2.75
   2  -3 -16  266.85   15.13
   2  -3 -16  305.43   16.12
  -2  -3  16  276.49   13.15
  -2   3  16  269.55   12.76
  -2   3  16  279.64   13.24
   2   3 -16  277.27   15.21
  -2   3  16  262.89   12.87
  -2  -3  16  263.73   12.89
  -2  -3  16  271.90   15.27
  -2   3  16  271.96   15.26
  -2  -3  16  266.20   12.82
  -2  -3  16  272.17   12.83
  -2  -3  15   54.60    4.50
   2   3 -15   54.48    5.91
   2  -3 -15   52.90    5.92
  -2  -3  15   53.36    5.99
  -2   3  15   60.79    6.19
  -2  -3  15   54.04    4.38
   2  -3 -15   62.36    6.16
   2  -3 -14  151.49    9.87
   2  -3 -14  153.48   10.17
   2   3 -14  142.97    9.74
  -2  -3  14  165.97   10.21
  -2   3  14  153.16    9.89
  -2   3  13   32.12    4.25
  -2  -3  13   28.61    4.14
   2  -3 -13   29.09    4.13
   2   3 -13   37.34    4.50
   2  -3 -13   30.10    4.27
  -2  -3  12  297.84   14.74
  -2   3  12  289.65   14.64
   2  -3 -12  288.90   14.91
   2  -3 -11   71.68    6.01
   2  -3 -10  247.44   12.85
   2  -3  -9   79.39    6.05
   2  -3  -8  473.72   20.85
   2  -3  -7   57.56    4.85
  -2  -3   6  212.13   10.52
  -2   3   6  232.51   10.75
  -2  -3   5   56.14    4.11
  -2   3   5   56.89    4.09
  -2   3   4  127.46    6.69
  -2  -3   4  122.30    6.65
  -2   3   3    9.66    1.98
  -2  -3   3    8.23    1.89
  -2   3   2   57.16    3.85
  -2  -3   2   55.31    3.86
  -2   3   1    6.30    1.63
  -2  -3   1    8.35    1.80
  -2  -3   0   74.90    4.53
  -2   3   0   74.26    4.54
  -2   3  -1   37.76    3.17
  -2  -3  -1   42.60    3.25
   2   3   1   39.89    3.25
   2  -3   1   38.28    3.17
   2   3   2   35.04    2.98
   2  -3   2   38.16    3.10
  -2   3  -2   31.11    2.97
  -2  -3  -2   31.29    2.91
   2   3   3   66.33    4.37
   2  -3   3   68.33    4.36
  -2   3  -3   68.04    4.51
  -2  -3  -3   68.27    4.47
   2  -3   4   29.51    2.89
   2   3   4   28.17    2.88
  -2  -3  -4   24.99    2.98
  -2   3  -5   79.13    5.17
  -2  -3  -5   78.50    5.18
  -2  -3  -8   58.94    5.31
  -2   3  -8   79.66    5.77
  -2  -3  -9   29.78    3.77
  -2   3  -9   28.62    3.69
  -2  -3 -10   43.69    4.88
  -2   3 -10   51.75    5.03
  -2  -3 -11    0.94    2.53
  -2   3 -11    1.85    2.64
   2  -3  12   62.14    6.50
  -2  -3 -12   67.08    6.19
  -2  -3 -13   11.83    3.29
   2  -3  13   13.93    3.54
  -2   3 -13   19.18    3.80
   2  -3  14   48.82    5.41
  -2  -3 -14   45.60    5.65
  -2   3 -14   51.80    5.80
   2  -3  15   33.72    4.48
  -2  -3 -15   47.36    5.58
  -2   3 -15   40.36    5.38
   2   3  16   20.29    3.14
   2  -3  16   18.53    3.00
  -2  -3 -16   30.54    5.01
  -2   3 -16   26.59    3.25
   2  -3  16   16.54    3.40
  -2   3 -16   33.30    5.20
  -2   3 -17   61.86    4.74
   2  -3  17   58.67    4.77
   2   3  17   60.57    4.78
  -2   3 -17   58.56    6.54
  -2  -3 -17   70.84    6.95
  -2   3 -18  223.44   11.38
   2   3  18  237.32   11.63
   2  -3  18  224.43   11.56
  -2   3 -18  219.01   14.01
  -2  -3 -18  242.03   14.68
  -2   3 -19    2.46    2.73
  -2  -3 -19    0.42    2.66
  -2   3 -19   -0.19    1.74
   2   3  19    1.77    1.95
   2  -3  19   -0.20    1.90
  -2  -3 -20    2.17    3.19
  -2   3 -20    1.90    2.03
  -2   3 -20    2.14    3.05
   2   3  20    3.08    2.14
   2  -3  20    7.26    2.36
  -2  -3 -21    0.45    2.84
  -2   3 -21    1.33    2.94
  -2   3 -21    4.66    2.25
   2   3  21    1.90    1.96
   2  -3  21    0.85    2.01
  -2  -3 -22   77.59    8.19
  -2   3 -22   61.59    7.43
  -2   3 -22   76.17    5.74
   2   3  22   78.87    6.05
   2  -3  22   78.52    5.96
  -2  -3 -23   -1.84    3.36
   2  -3  23   -0.17    1.69
  -2   3 -23    4.57    3.13
  -2   3 -23    4.43    2.16
   2   3  23   -0.44    2.14
   2  -3  23    0.87    2.17
  -2   3 -24   23.17    4.74
   2  -3  24   18.93    2.92
   2   3  24   24.44    3.55
   2  -3  24   23.71    3.48
  -2  -3 -24   18.24    4.64
   2  -3  25    1.86    1.77
   2  -3  25    4.38    2.34
   2   3  25    7.55    2.53
   2  -3  26   25.66    3.13
   2  -3  26   26.30    3.13
   2   3  26   34.03    3.80
   2  -3  26   27.57    3.59
   2  -3  27    1.31    1.59
  -2   3 -27    1.91    1.90
  -2  -3 -27    2.31    1.81
   2  -3  27    4.44    1.70
   2   3  27    2.99    2.06
   2  -3  27    4.44    2.22
   2  -3  28    5.74    1.70
  -2  -3 -28    3.20    1.97
  -2   3 -28    6.85    2.18
   2   3  28    6.29    2.08
   2  -3  28    7.26    2.28
   2   3  29    1.07    1.78
   2   3  29    2.54    1.72
  -2  -3 -29    1.93    1.55
  -2   3 -29    2.68    1.70
   2  -3  29    2.52    1.74
  -2   3 -30    5.18    1.68
  -2  -3 -30    3.79    1.67
   2   3  30    3.18    1.64
   2   3  30    4.04    1.85
   2  -3  30    5.07    1.71
   2   3  31    1.71    1.44
   2   3  31    3.30    1.46
   2  -3  31    2.80    1.38
   2   3  32    1.59    1.01
   2   3  32    3.15    1.33
   2  -3  32    2.16    1.10
   2   3  33    1.46    0.86
  -2  -4  31  109.38    5.51
  -2  -4  31   99.33    5.32
  -2   4  31  108.13    5.44
  -2  -4  30  306.04   13.55
  -2  -4  30  303.03   13.54
  -2   4  30  331.04   13.53
  -2  -4  29   68.59    4.72
  -2   4  29   60.74    4.38
  -2  -4  29   57.10    4.57
  -2   4  28  260.76   12.07
  -2  -4  28  255.58   12.28
  -2  -4  28  253.20   12.43
  -2  -4  27  174.07    9.48
  -2   4  27  179.48    9.32
  -2  -4  27  182.52    9.91
  -2   4  26  299.25   14.13
  -2  -4  26  299.54   14.16
  -2   4  26  295.09   13.95
  -2  -4  26  275.75   13.97
  -2  -4  26  310.05   14.56
  -2   4  25   39.43    4.22
  -2  -4  25   40.17    4.29
  -2   4  25   38.53    4.13
  -2  -4  25   40.37    4.61
  -2  -4  25   36.83    4.28
  -2  -4  25   38.42    4.39
  -2  -4  24  344.76   16.09
  -2   4  24  329.95   15.79
  -2   4  24  369.45   16.18
  -2  -4  24  324.58   15.85
  -2  -4  24  327.77   16.18
  -2  -4  24  327.58   15.87
  -2  -4  23  180.96   10.01
   2   4 -23  141.12   11.62
  -2  -4  23  177.80    9.99
  -2   4  23  193.95    9.92
  -2   4  23  195.14   10.11
   2  -4 -23  140.03   11.73
  -2  -4  23  133.96    9.03
  -2  -4  23  189.75   10.05
  -2  -4  23  194.69   10.45
  -2  -4  22  145.39    9.26
  -2  -4  22  182.10   10.00
   2  -4 -22  167.26   12.31
  -2  -4  22  184.10   10.06
  -2   4  22  182.03    9.82
   2   4 -22  164.14   12.21
  -2   4  22  180.54    9.96
  -2  -4  22  188.64   10.09
  -2  -4  22  179.53   10.21
   2  -4 -21    8.58    3.68
  -2   4  21   10.39    2.61
  -2  -4  21    8.61    2.90
  -2  -4  21    9.61    2.93
  -2   4  21   10.74    2.77
  -2  -4  21    9.94    2.85
   2   4 -21   12.95    4.05
  -2  -4  21   12.44    3.01
  -2  -4  20  364.18   16.68
   2   4 -20  349.89   19.52
  -2  -4  20  359.08   16.77
  -2  -4  20  331.12   16.46
  -2   4  20  363.18   16.60
  -2   4  20  353.45   16.72
  -2  -4  20  371.82   16.92
   2  -4 -20  331.50   19.40
  -2   4  19  359.93   16.95
  -2   4  19  379.93   17.30
   2   4 -19  340.89   19.49
  -2  -4  19  385.82   17.26
  -2  -4  19  364.45   17.19
  -2  -4  19  386.46   17.46
  -2  -4  19  388.44   17.47
   2  -4 -19  368.44   20.03
   2  -4 -18  462.14   22.54
  -2   4  18  437.19   19.31
  -2   4  18  448.58   19.60
  -2  -4  18  449.78   19.67
  -2  -4  18  435.20   19.64
   2  -4 -18  429.99   23.02
  -2  -4  18  425.66   19.53
   2   4 -18  438.40   22.16
  -2  -4  17    1.73    2.04
   2  -4 -17    2.08    3.09
  -2   4  17    3.72    1.97
   2   4 -17    3.10    2.94
   2  -4 -17    3.48    2.79
  -2  -4  17    2.38    2.05
  -2   4  17    4.24    2.08
  -2  -4  17    2.78    1.94
  -2  -4  16   32.91    3.91
   2  -4 -16   32.43    5.74
  -2   4  16   30.22    3.69
  -2   4  16   29.13    3.93
   2  -4 -16   30.54    5.45
   2   4 -16   34.68    5.17
  -2  -4  16   24.12    3.56
  -2  -4  16   23.37    3.68
  -2  -4  15    5.31    2.23
  -2  -4  15    7.57    2.25
   2   4 -15   11.71    3.23
   2  -4 -15   10.84    3.23
   2  -4 -15   14.00    3.86
  -2  -4  15   12.37    2.35
  -2   4  15   11.01    2.32
  -2  -4  15    8.80    2.15
  -2  -4  14   19.02    2.75
   2  -4 -14   22.04    4.27
   2  -4 -14   23.88    4.07
   2   4 -14   18.85    3.60
  -2  -4  14   19.31    2.79
   2   4 -13   87.23    6.91
   2  -4 -13   84.82    7.39
   2  -4 -13   86.68    6.97
   2  -4 -12  110.52    7.98
   2   4 -12   97.76    7.27
   2  -4 -12   93.47    7.22
   2  -4 -11   51.08    5.47
   2  -4 -11   56.87    5.32
   2   4 -11   48.95    5.01
   2  -4 -10  497.18   22.95
   2  -4 -10  599.58   24.65
   2  -4  -9  154.83    9.22
   2  -4  -9  160.63    9.88
   2  -4  -8   49.69    4.94
   2  -4  -7   68.27    5.71
   2  -4  -6 1100.03   44.30
  -2   4   5  442.67   18.59
  -2   4   4  725.13   28.52
  -2  -4   4  711.22   28.45
  -2   4   3  462.67   18.83
  -2  -4   3  450.70   18.75
  -2   4   2 1867.37   69.26
  -2  -4   2 1806.23   69.18
  -2  -4   1  428.76   17.77
  -2   4   1  436.78   17.82
   2   4   0  777.79   30.05
  -2  -4   0  756.48   30.03
   2  -4   0  797.57   30.15
  -2   4   0  743.93   29.98
   2   4   1  576.01   22.98
  -2   4  -1  571.06   23.03
   2  -4   1  579.42   22.99
  -2  -4  -1  576.32   23.04
  -2   4  -2 1370.16   51.66
  -2  -4  -2 1320.42   51.55
   2   4   2 1346.92   51.40
   2  -4   2 1368.94   51.45
  -2   4  -3   45.27    3.79
  -2  -4  -3   57.77    3.97
  -2   4  -4  114.47    6.62
  -2  -4  -4  105.97    6.45
  -2   4  -5  358.09   15.48
  -2  -4  -5  345.72   15.36
  -2   4  -6 1022.31   39.90
  -2  -4  -6 1000.43   39.85
  -2   4  -7    8.49    2.23
  -2  -4  -7   10.15    2.41
  -2   4  -9  241.80   10.76
   2  -4   9  275.26   14.86
  -2  -4  -9  244.68   10.83
  -2  -4 -10 1287.06   50.93
   2  -4  10 1279.50   53.11
  -2   4 -10 1283.40   50.80
   2  -4  11   57.33    6.67
  -2   4 -11   67.16    5.73
  -2  -4 -11   69.77    5.89
  -2   4 -12   31.61    4.40
   2  -4  12   27.27    4.97
  -2  -4 -12   29.15    4.30
  -2  -4 -13   10.59    3.23
  -2   4 -13    5.62    3.14
   2  -4  13   13.85    3.96
  -2  -4 -14   36.74    4.84
   2  -4  14   42.65    5.36
  -2   4 -14   34.18    4.66
   2  -4  15   28.79    3.17
  -2  -4 -15   34.53    4.91
   2   4  15   31.26    3.16
   2  -4  15   29.42    4.53
  -2   4 -15   26.79    4.45
  -2  -4 -16  269.50   15.42
  -2   4 -16  259.00   12.45
   2  -4  16  264.83   12.52
   2  -4  16  225.09   14.18
   2   4  16  274.42   12.58
  -2   4 -16  281.07   15.57
  -2   4 -17    8.25    2.12
  -2  -4 -17    6.62    3.24
  -2   4 -17    9.53    3.46
   2   4  17   12.17    2.32
   2  -4  17    9.43    2.44
   2  -4  18   58.54    5.18
   2   4  18   46.32    4.68
  -2   4 -18   53.88    4.81
  -2   4 -18   69.55    8.45
  -2  -4 -18   56.98    7.59
  -2  -4 -19   75.33    8.39
   2   4  19   69.74    5.65
   2  -4  19   72.21    5.83
  -2   4 -19   68.89    8.30
  -2   4 -19   72.81    5.62
  -2   4 -20  358.13   16.59
   2   4  20  388.19   17.01
   2  -4  20  357.61   16.85
  -2  -4 -20  341.38   20.12
  -2   4 -20  350.90   20.17
  -2   4 -21   48.78    6.55
  -2   4 -21   49.38    4.46
   2  -4  21   53.63    4.89
   2   4  21   57.65    4.84
  -2  -4 -21   56.53    6.82
  -2   4 -22   71.09    8.36
  -2   4 -22   81.61    5.92
   2   4  22   85.39    6.25
   2  -4  22   90.21    6.36
  -2  -4 -22   62.83    7.87
  -2  -4 -23   96.65    8.90
  -2   4 -23   86.20    6.22
  -2   4 -23   87.95    8.92
   2  -4  23   98.86    6.75
   2   4  23   92.40    6.59
  -2   4 -24  467.38   21.44
   2   4  24  513.66   21.63
   2  -4  24  485.19   21.44
  -2  -4 -25  113.21    7.48
   2   4  25  130.11    7.68
   2  -4  25  119.35    7.50
  -2   4 -25  119.58    7.60
   2  -4  26  175.71    9.11
   2   4  26  183.66    9.52
  -2   4 -26  162.49    9.35
   2  -4  26  169.89    9.29
  -2  -4 -26  152.88    9.20
  -2  -4 -27   93.31    6.41
  -2   4 -27   93.24    6.36
   2  -4  27  104.15    6.43
   2  -4  27  101.96    6.09
   2   4  27   98.43    6.32
  -2  -4 -28  400.55   18.19
  -2   4 -28  388.84   18.11
   2  -4  28  433.26   17.74
   2  -4  28  430.31   18.10
   2   4  28  442.19   18.14
   2  -4  29  126.72    6.65
   2   4  29  138.51    7.40
  -2  -4 -29  115.54    7.03
  -2   4 -29  122.53    7.09
   2   4  29  149.42    7.23
   2  -4  29  139.24    7.11
   2   4  30  139.48    7.01
   2   4  30  126.52    6.53
   2  -4  30  139.13    6.69
   2  -4  30  118.26    6.08
   2   4  31   25.82    2.46
   2   4  31   20.84    1.98
   2   4  32   43.15    2.88
  -2  -5  31    6.17    1.13
  -2   5  30    4.93    1.17
  -2  -5  30    4.99    1.55
  -2   5  29    9.55    1.68
  -2  -5  29    9.02    2.11
  -2   5  28    3.81    1.56
  -2  -5  28    4.28    1.55
  -2  -5  28    3.51    2.06
  -2   5  27   14.40    2.25
  -2  -5  27   15.01    2.42
  -2  -5  27   16.60    2.89
  -2   5  26   31.25    3.16
  -2  -5  26   24.48    3.13
  -2  -5  26   28.05    3.70
  -2  -5  25    4.41    2.05
   2  -5 -25    1.49    1.57
  -2  -5  25    3.82    2.46
  -2   5  25    1.43    1.76
  -2  -5  25    4.94    2.52
  -2  -5  24   34.81    3.93
  -2  -5  24   43.53    4.52
  -2   5  24   43.21    4.02
   2  -5 -24   36.62    3.82
  -2  -5  24   44.75    4.65
  -2  -5  23   41.20    4.15
  -2   5  23   37.68    3.93
  -2  -5  23   37.95    4.00
   2  -5 -23   45.36    4.22
  -2   5  23   45.05    4.20
  -2  -5  23   40.31    4.52
  -2  -5  23   42.21    4.48
  -2  -5  22   81.40    5.87
  -2  -5  22   78.45    6.03
  -2   5  22   83.19    5.83
  -2  -5  22   83.32    6.33
  -2  -5  22   74.93    5.59
  -2   5  22   72.07    5.45
  -2  -5  21   85.33    6.15
  -2   5  21   87.04    6.05
  -2   5  21   83.01    5.85
  -2  -5  21   94.87    6.63
  -2  -5  21   81.59    5.94
  -2  -5  20  270.64   12.99
  -2   5  20  251.40   12.52
   2  -5 -20  225.75   14.91
  -2   5  20  253.09   12.77
  -2  -5  20  273.51   13.28
  -2  -5  20  247.72   12.72
  -2   5  19   84.62    6.00
   2  -5 -19   81.83    7.77
  -2  -5  19   91.85    6.34
   2   5 -19   79.13    7.73
  -2   5  19   95.95    6.43
  -2  -5  19   85.15    6.12
  -2  -5  19   90.76    6.50
   2  -5 -18   32.57    5.66
  -2  -5  18   19.51    3.05
  -2  -5  18   21.40    3.11
  -2  -5  18   24.77    3.60
  -2  -5  18   23.92    3.22
   2   5 -18   22.01    4.11
   2  -5 -18   20.92    4.06
  -2  -5  17    7.82    2.64
  -2  -5  17   11.28    2.84
  -2  -5  17   10.28    2.76
   2  -5 -17   16.89    4.44
  -2  -5  17   13.66    2.93
  -2  -5  17    8.57    2.47
   2   5 -17   11.03    3.67
   2  -5 -17    9.84    3.31
  -2  -5  16  139.65    7.91
   2   5 -16  122.17    9.59
   2  -5 -16  125.39    9.55
  -2  -5  16  103.22    7.22
  -2  -5  16   94.17    7.85
  -2  -5  16  133.62    7.80
   2  -5 -16  131.85   10.68
  -2  -5  16  118.76    7.57
   2  -5 -15  129.69    9.37
  -2  -5  15  131.75    7.85
   2  -5 -15  145.16   10.96
  -2  -5  15  123.63    7.49
  -2  -5  15  147.14    8.24
   2   5 -15  131.95    9.71
  -2  -5  15  121.33    8.28
  -2  -5  14  150.39    8.73
   2  -5 -14  160.01   11.33
   2  -5 -14  168.62   10.18
  -2  -5  14  144.90    8.24
  -2  -5  14  147.47    8.46
   2   5 -14  154.85    9.99
   2  -5 -13  107.28    8.04
   2  -5 -13  134.16    9.64
  -2  -5  13  105.16    6.79
   2   5 -13  119.50    8.35
  -2  -5  12   86.79    6.08
   2  -5 -12  109.24    7.90
   2   5 -12  102.29    7.84
   2  -5 -12  113.40    8.70
  -2  -5  12   83.15    5.97
   2   5 -11   30.21    4.52
   2  -5 -11   23.05    3.99
   2   5 -10   79.93    6.16
   2  -5 -10   76.89    5.98
   2  -5 -10   90.43    7.30
   2  -5 -10   75.98    6.17
   2  -5  -9  255.99   13.63
   2  -5  -9  281.03   14.46
   2   5  -9  259.38   12.86
   2  -5  -9  244.12   12.61
   2  -5  -8  267.36   14.09
   2  -5  -8  282.65   14.44
   2  -5  -8  245.29   12.50
   2  -5  -7   34.96    4.92
   2  -5  -6   49.06    5.74
   2  -5  -5  243.43   13.87
   2  -5  -4  289.88   15.71
   2  -5  -3   83.96    7.60
  -2   5   2   57.61    3.68
  -2  -5   2   55.55    3.71
   2   5  -2   67.94    3.85
   2  -5  -2   67.85    3.95
  -2  -5   1   38.72    2.84
  -2   5   1   31.60    2.61
   2   5  -1   41.22    2.78
   2  -5  -1   38.38    2.80
   2  -5   0    2.42    1.16
   2   5   0    1.99    0.97
  -2   5   0    1.57    1.04
  -2  -5   0    1.12    1.07
  -2   5  -1    5.58    1.31
  -2  -5  -1    5.20    1.36
  -2   5  -2    2.64    1.34
  -2  -5  -2    4.30    1.39
  -2   5  -3   22.91    2.33
  -2  -5  -3   24.37    2.44
   2  -5   3   30.46    5.66
  -2   5  -4  238.61   10.96
  -2  -5  -4  237.09   10.93
  -2   5  -5  182.06    9.05
  -2  -5  -5  191.31    9.11
  -2  -5  -6  129.69    7.02
  -2   5  -6  126.33    7.00
  -2   5  -7  193.87    9.99
  -2  -5  -7  198.76   10.05
   2  -5   8  511.28   24.31
  -2   5  -8  458.56   20.35
  -2  -5  -8  473.95   20.49
  -2  -5  -9  186.56    8.89
  -2   5  -9  187.07   10.26
  -2  -5  -9  201.77   10.42
  -2  -5 -10  144.17    7.15
   2  -5  10  155.47   11.31
  -2   5 -10  142.59    8.51
  -2  -5 -10  138.93    8.46
  -2  -5 -11  289.00   12.88
   2  -5  11  325.15   17.83
   2  -5  12  520.34   25.50
  -2  -5 -12  495.76   20.63
   2  -5  13  161.49   11.71
  -2  -5 -13  147.61    7.80
   2  -5  13  148.40    7.69
  -2   5 -13  139.77    7.66
  -2   5 -14  150.21    8.05
   2  -5  14  154.67   11.38
   2  -5  14  150.37    7.95
  -2   5 -14  141.50    7.89
  -2  -5 -14  149.90    8.09
  -2   5 -15  299.50   13.68
   2  -5  15  282.76   13.38
   2  -5  15  291.81   17.17
   2  -5  15  298.24   13.44
   2  -5  16  370.78   16.31
   2  -5  16  360.06   16.17
  -2   5 -16  361.33   16.24
  -2   5 -17   34.28    3.59
   2  -5  17   41.36    3.83
   2  -5  17   33.69    3.51
  -2   5 -18   10.18    2.64
  -2   5 -18    8.23    2.31
   2  -5  18   13.06    2.50
   2   5  18   14.73    2.49
   2  -5  18    9.40    2.43
  -2   5 -19   51.84    4.90
  -2   5 -19   55.24    4.56
   2   5  19   54.53    4.56
   2  -5  19   46.88    4.21
   2  -5  19   43.32    4.44
  -2  -5 -20   83.66    6.23
  -2   5 -20   72.25    5.52
  -2   5 -20   70.62    6.09
   2   5  20   72.92    5.65
   2  -5  20   84.44    6.00
  -2   5 -21    4.86    2.11
  -2  -5 -21    2.56    2.32
  -2   5 -21    3.18    2.32
   2   5  21    1.62    2.10
   2  -5  21    4.79    2.29
  -2   5 -22    3.74    2.39
  -2   5 -22    7.04    2.24
  -2  -5 -22    5.83    2.49
   2   5  22    7.28    2.42
   2  -5  22    6.00    2.47
  -2  -5 -23    9.83    2.53
  -2   5 -23   13.10    2.99
   2   5  23   14.56    2.63
   2  -5  23   16.10    2.92
  -2   5 -24   53.50    4.69
  -2  -5 -24   55.61    4.73
   2   5  24   53.65    4.58
   2  -5  24   53.73    4.52
  -2  -5 -25    1.70    1.71
  -2   5 -25    2.59    1.94
   2   5  25    3.70    1.75
   2  -5  25    2.83    1.73
  -2  -5 -26   12.64    2.27
   2  -5  26   11.57    2.45
   2   5  26   10.91    2.34
  -2  -5 -26    7.23    2.47
   2  -5  26   10.35    2.21
   2  -5  27    2.06    1.97
  -2  -5 -27    0.96    1.33
   2   5  27    1.93    1.36
   2  -5  28    7.91    1.97
   2   5  28    9.35    1.73
  -2  -5 -28    7.09    1.76
   2  -5  29    7.55    1.68
   2   5  29    6.99    1.81
   2  -5  30    8.21    1.46
   2   5  30    7.98    1.62
   2   5  31    8.72    1.45
  -2  -6  30   40.51    2.87
  -2  -6  29  163.46    7.92
  -2  -6  28  114.00    6.49
  -2  -6  27  102.68    6.40
  -2  -6  26   88.74    6.09
  -2  -6  25  170.32    9.15
  -2  -6  25  174.43    9.21
  -2  -6  24   98.03    6.58
  -2  -6  24   78.78    5.53
   2  -6 -24   86.59    5.75
  -2  -6  23   64.77    5.13
   2  -6 -23   72.22    5.41
  -2  -6  23   75.56    5.93
  -2  -6  22   75.81    5.64
   2  -6 -22   76.44    5.88
  -2  -6  22   83.58    6.36
  -2  -6  21  162.34    9.33
   2  -6 -21  172.39    9.75
  -2  -6  21  181.31   10.08
  -2  -6  20  113.55    7.42
  -2  -6  20   98.39    6.74
   2  -6 -20  104.52    7.12
  -2  -6  20  109.94    7.36
  -2  -6  19   26.16    3.57
  -2  -6  19   26.17    3.86
  -2  -6  19   26.78    3.79
  -2  -6  18   34.77    3.95
   2  -6 -18   46.79    6.64
  -2  -6  18   43.06    4.59
  -2  -6  18   39.91    4.42
  -2  -6  17  133.05    8.06
   2  -6 -17  125.47   11.08
  -2  -6  17  120.26    7.56
  -2  -6  17  136.60    8.17
  -2  -6  16   67.79    5.29
   2  -6 -16   74.09    8.11
  -2  -6  16   52.95    4.61
  -2  -6  15   15.59    2.78
  -2  -6  15   13.73    2.50
   2  -6 -15   12.90    4.09
  -2  -6  14   16.93    2.84
  -2  -6  14   20.54    2.63
   2  -6 -14   17.83    4.21
  -2  -6  13    9.21    2.36
  -2  -6  13   16.27    2.38
  -2  -6  13   13.55    2.83
   2  -6 -13   14.31    4.07
  -2  -6  13   12.37    2.56
  -2  -6  12   15.21    2.29
  -2  -6  12   10.60    2.31
  -2  -6  12   12.80    2.58
  -2  -6  12   15.66    2.79
  -2  -6  12   12.01    2.44
  -2  -6  11  204.06   10.94
  -2  -6  11  213.61   10.66
  -2  -6  11  215.41   10.48
  -2  -6  10  192.03   10.21
  -2  -6  10  194.91    9.86
  -2  -6   9  236.99   11.49
   2  -6  -9  261.78   14.02
  -2  -6   9  249.04   11.79
   2  -6  -8  245.21   14.00
   2  -6  -7  386.72   19.12
   2  -6  -7  370.68   19.31
   2  -6  -6  196.66   11.76
   2  -6  -6  190.49   12.27
   2  -6  -5  278.69   16.03
   2  -6  -5  284.34   15.14
   2  -6  -4  349.92   18.03
   2  -6  -4  379.86   19.61
   2  -6  -3  671.70   29.77
   2  -6  -3  676.63   31.36
   2  -6  -2  416.11   21.78
   2  -6  -1  654.01   30.93
   2  -6   0  546.29   27.08
   2  -6   1  580.49   28.54
   2  -6   2  319.50   18.62
   2  -6   3  500.55   25.54
   2  -6   4  348.15   19.90
   2  -6   7  152.45   12.36
   2  -6   8   44.06    7.06
   2  -6   9   12.89    5.51
   2  -6  10   16.82    5.31
  -2  -6 -10    8.30    3.23
   2  -6  11   25.45    6.07
  -2  -6 -11   33.72    4.33
  -2   6 -11   28.16    2.91
  -2  -6 -12   15.38    2.96
   2  -6  12   11.35    4.31
  -2   6 -12   18.23    2.38
   2  -6  12   14.03    2.35
  -2  -6 -13    8.83    2.75
   2  -6  13    8.99    4.15
  -2   6 -13   12.66    2.07
   2  -6  13   11.25    2.24
  -2   6 -14    0.61    1.35
   2  -6  14    1.87    3.16
   2  -6  14    1.76    1.66
   2  -6  15   12.04    2.43
   2  -6  16    6.49    2.37
   2  -6  17   50.28    4.59
  -2  -6 -18   67.77    5.27
   2  -6  18   89.13    6.00
  -2  -6 -19   58.94    4.83
   2  -6  19   68.28    5.16
  -2  -6 -20   46.50    4.26
   2  -6  20   45.13    4.23
   2  -6  21  108.99    6.73
  -2  -6 -22   88.87    7.06
  -2  -6 -23   66.95    5.95
  -2  -6 -24   49.32    4.82
  -2  -6 -25  114.88    7.22
   2  -6  26  101.17    6.18
   2  -6  27   85.54    5.30
   2  -6  28   50.20    3.60
   2   6  28   40.51    3.37
   2   6  29   74.46    4.62
   2  -6  29   98.03    4.87
   2  -6  30   55.38    2.95
   2   6  30   35.02    2.67
  -2  -7  29    5.24    1.31
  -2  -7  28    3.34    1.53
  -2  -7  27   47.90    3.85
  -2  -7  26   28.62    3.29
  -2  -7  25   19.73    3.01
   2  -7 -24   10.84    2.10
  -2  -7  24   12.72    2.88
  -2  -7  24   15.23    2.92
  -2  -7  23   62.64    5.11
   2  -7 -23   57.48    4.61
  -2  -7  23   63.18    5.15
  -2  -7  22   64.60    5.33
   2  -7 -22   65.16    5.01
  -2  -7  22   64.93    5.42
   2  -7 -21  203.37   10.82
  -2  -7  21  216.80   11.36
  -2  -7  21  215.31   11.15
   2  -7 -20  100.75    6.85
  -2  -7  20  106.78    7.20
  -2  -7  20  102.57    7.01
  -2  -7  19  258.69   13.29
   2  -7 -19  271.84   13.42
  -2  -7  19  273.39   13.52
   2  -7 -18   36.27    4.36
  -2  -7  18   42.94    4.48
   2  -7 -18   41.23    6.54
  -2  -7  18   38.06    4.52
   2  -7 -17   46.07    4.97
  -2  -7  17   48.36    4.79
   2  -7 -17   38.61    6.74
   2  -7 -16   21.40    3.88
  -2  -7  16   23.45    3.63
   2  -7 -16   16.50    5.13
  -2  -7  15  240.87   12.18
   2  -7 -15  231.17   12.49
  -2  -7  14  158.19    9.30
   2  -7 -14  164.39    9.78
  -2  -7  14  184.66    9.75
  -2  -7  13  397.11   18.79
   2  -7 -13  387.03   18.40
  -2  -7  13  420.71   18.24
  -2  -7  13  388.62   17.79
  -2  -7  12   88.92    6.81
  -2  -7  12   95.87    6.46
  -2  -7  12   93.82    6.56
  -2  -7  11  435.65   19.99
  -2  -7  11  479.99   21.15
  -2  -7  11  485.18   20.58
   2  -7 -11  479.94   24.19
  -2  -7  10  229.79   11.96
   2  -7 -10  293.31   16.19
  -2  -7  10  265.04   12.66
   2  -7 -10  256.16   12.79
  -2  -7  10  265.84   13.23
  -2  -7   9  542.86   23.47
  -2  -7   9  568.60   23.46
   2  -7  -9  602.16   24.52
  -2  -7   9  557.89   24.64
  -2  -7   9  536.66   23.60
  -2  -7   9  600.87   24.26
  -2  -7   9  544.73   24.23
  -2  -7   8   66.65    4.95
  -2  -7   8   45.73    4.96
  -2  -7   8   69.94    5.64
   2  -7  -8   90.46    7.90
  -2  -7   8   60.91    5.52
   2  -7  -8   78.79    5.64
  -2  -7   8   61.57    5.22
   2  -7  -8   53.65    6.66
  -2  -7   7  132.24    7.72
   2  -7  -7  159.65   10.89
   2  -7  -7  162.44    8.74
  -2  -7   7  158.52    8.98
  -2  -7   7  153.26    8.53
  -2  -7   7  150.30    9.11
   2  -7  -6   54.78    4.64
   2  -7  -6   49.71    6.46
  -2  -7   6   51.78    4.16
  -2  -7   6   51.84    4.43
  -2  -7   6   47.40    4.60
  -2  -7   6   43.36    5.08
  -2  -7   5  237.12   10.81
   2  -7  -5  213.23   10.98
   2  -7  -5  246.85   14.04
  -2  -7   5  201.32   11.20
   2  -7  -5  191.54   13.81
  -2  -7   5  229.96   12.22
   2  -7  -4   50.90    5.82
  -2  -7   4   54.60    4.10
   2  -7  -4   46.56    4.13
  -2  -7   4   55.24    5.26
  -2  -7   4   45.49    4.48
  -2  -7   3  140.93    8.42
   2  -7  -3  139.06   11.20
   2  -7  -3  154.86   10.17
   2  -7  -3  142.93    7.90
  -2  -7   3  139.56    9.00
   2  -7  -2   50.55    4.15
  -2  -7   2   52.68    4.66
   2  -7  -2   61.44    5.96
  -2  -7   2   52.54    5.16
   2  -7  -2   64.12    7.56
  -2  -7   1   28.55    4.46
   2  -7  -1   28.35    4.47
   2  -7  -1   23.42    5.67
  -2  -7   1   28.25    3.82
  -2  -7   0   45.96    3.80
   2  -7   0   56.02    7.46
  -2  -7   0   41.90    4.97
  -2  -7  -1  129.93    7.10
   2  -7   1  128.15   11.22
  -2  -7  -2   27.21    3.07
   2  -7   2   27.51    6.01
  -2  -7  -2   25.75    3.50
  -2  -7  -2   24.30    4.08
  -2  -7  -3  202.17   11.36
  -2  -7  -3  219.03   11.13
   2  -7   3  203.56   14.53
  -2  -7  -3  197.34    9.85
  -2  -7  -3  186.96    9.63
  -2  -7  -4  199.26    9.90
   2  -7   4  186.15   10.64
  -2  -7  -4  203.38   11.34
  -2  -7  -4  198.52    9.98
  -2  -7  -4  230.32   11.44
   2  -7   4  231.61   15.28
  -2  -7  -5  654.67   26.98
  -2  -7  -5  656.26   26.94
  -2  -7  -5  681.08   28.38
   2  -7   5  686.78   32.97
  -2  -7  -5  649.13   28.48
  -2  -7  -6  214.99   11.55
  -2  -7  -6  217.49   10.47
  -2  -7  -6  207.45   11.71
  -2  -7  -6  204.26   10.32
  -2  -7  -7  884.24   34.89
  -2  -7  -7  848.27   34.79
  -2  -7  -7  917.40   36.43
  -2  -7  -7  849.70   36.15
  -2  -7  -8  406.79   18.33
  -2  -7  -8  443.40   19.98
  -2   7  -8  426.65   18.07
  -2  -7  -8  415.08   19.72
   2  -7   8  450.75   24.32
  -2  -7  -9  915.72   36.10
  -2   7  -9  833.21   35.48
  -2  -7  -9  972.34   37.96
   2  -7   9  968.26   42.65
  -2  -7  -9  923.81   37.49
  -2  -7 -10  175.90   10.14
   2  -7  10  203.47   15.10
  -2  -7 -10  214.32   11.83
  -2  -7 -10  207.78   11.49
  -2  -7 -11  484.30   21.29
   2  -7  11  478.50   26.73
  -2  -7 -11  534.98   23.42
  -2  -7 -11  507.35   22.75
  -2  -7 -12  146.25    9.84
   2  -7  12  154.01    8.26
   2  -7  12  139.57   12.14
  -2  -7 -12  130.11    7.93
  -2  -7 -12  152.50    9.33
  -2  -7 -13  286.40   13.92
  -2  -7 -13  292.66   16.20
   2  -7  13  337.06   14.47
  -2  -7 -13  297.27   15.31
  -2  -7 -14   92.62    8.12
   2  -7  14  113.78    6.77
  -2  -7 -14   89.97    7.00
  -2  -7 -15  376.04   19.73
   2  -7  15  407.10   17.90
  -2  -7 -16  136.93    9.90
   2  -7  16  157.96    8.75
  -2  -7 -17  219.66   13.10
   2  -7  17  230.24   11.70
   2  -7  18   66.62    5.40
  -2  -7 -18   66.50    6.50
  -2  -7 -19  130.63    9.08
   2  -7  19  113.50    7.38
  -2  -7 -20   12.41    3.35
   2  -7  20   15.87    2.91
  -2  -7 -21    6.77    3.38
   2  -7  21    4.75    2.14
  -2  -7 -22    4.41    2.50
   2  -7  22    3.12    1.86
  -2  -7 -23   18.55    3.10
   2  -7  23   19.41    2.44
  -2  -7 -24    4.76    2.02
   2  -7  25    1.16    1.76
   2   7  26   -0.43    1.26
   2  -7  26    1.65    1.68
   2  -7  27    5.10    1.62
   2   7  27    1.85    1.28
   2   7  28    1.60    0.91
   2  -7  28    2.74    1.31
   2  -7  29    2.89    1.04
  -2  -8  28    6.16    1.30
  -2  -8  27   60.74    4.02
  -2  -8  26   33.74    3.15
  -2  -8  25  203.73    9.93
  -2  -8  24   24.58    3.23
   2  -8 -24   18.97    2.30
  -2  -8  23  107.32    6.55
   2  -8 -23   97.87    6.03
  -2  -8  23  105.47    6.67
  -2  -8  22   49.47    4.41
   2  -8 -22   48.31    4.07
  -2  -8  22   54.00    4.73
  -2  -8  21  112.20    7.11
  -2  -8  21  109.13    7.22
   2  -8 -21  107.01    6.86
  -2  -8  20    3.71    2.55
   2  -8 -20    4.81    2.30
  -2  -8  20    2.57    2.41
   2  -8 -19  143.82    8.63
  -2  -8  19  147.87    8.63
  -2  -8  18    2.10    2.34
   2  -8 -18    1.60    2.27
  -2  -8  17   62.46    5.38
   2  -8 -17   58.51    5.56
  -2  -8  16    9.75    2.81
   2  -8 -16    5.60    2.91
  -2  -8  15    3.22    2.48
   2  -8 -15    1.55    2.71
   2  -8 -15    5.32    3.75
  -2  -8  15    4.62    2.81
  -2  -8  14    2.23    1.99
   2  -8 -14    0.53    3.12
   2  -8 -14   -0.90    2.28
  -2  -8  14   -0.42    2.15
  -2  -8  13   73.60    5.46
  -2  -8  13   77.67    6.44
   2  -8 -13   64.33    8.00
  -2  -8  13   74.98    5.84
   2  -8 -12   39.19    6.16
  -2  -8  12   43.17    4.85
  -2  -8  12   35.32    4.04
  -2  -8  12   31.43    3.54
  -2  -8  11  263.18   13.60
   2  -8 -11  299.27   18.21
  -2  -8  11  321.35   15.50
  -2  -8  11  317.07   14.58
  -2  -8  10   19.89    3.18
  -2  -8  10   19.20    2.78
   2  -8 -10   26.31    4.94
   2  -8 -10   24.30    3.53
  -2  -8  10   26.09    3.87
  -2  -8  10   22.52    3.31
  -2  -8   9  144.74    8.54
   2  -8  -9  159.79   11.72
  -2  -8   9  163.91    9.90
   2  -8  -9  162.89    9.19
  -2  -8   9  166.81    9.08
  -2  -8   9  152.96    9.22
   2  -8  -8   42.01    4.18
   2  -8  -8   37.96    5.62
  -2  -8   8   40.37    4.80
  -2  -8   8   46.03    4.17
  -2  -8   8   33.05    3.70
  -2  -8   8   32.74    4.19
  -2  -8   7  243.45   11.80
  -2  -8   7  267.01   12.57
  -2  -8   7  260.05   13.38
   2  -8  -7  275.26   12.98
   2  -8  -7  249.63   15.49
  -2  -8   7  262.09   13.59
  -2  -8   7  252.24   12.64
  -2  -8   6   31.62    4.32
  -2  -8   6   28.95    3.36
  -2  -8   6   32.62    4.18
   2  -8  -6   31.78    3.64
   2  -8  -6   31.93    4.79
  -2  -8   6   32.63    3.57
  -2  -8   6   26.86    3.03
  -2  -8   5  155.25    8.32
   2  -8  -5  150.91    8.56
   2  -8  -5  149.05   10.70
  -2  -8   5  151.41    9.22
  -2  -8   5  136.61    8.25
  -2  -8   5  145.96    7.80
  -2  -8   5  145.97    9.48
   2  -8  -4   30.94    4.93
  -2  -8   4   29.43    3.51
  -2  -8   4   36.89    4.24
  -2  -8   4   35.71    3.38
  -2  -8   4   34.23    3.71
   2  -8  -4   41.53    3.97
   2  -8  -4   33.46    5.89
  -2  -8   4   32.26    4.77
  -2  -8   3  428.61   19.35
  -2  -8   3  500.87   21.11
   2  -8  -3  446.92   19.59
   2  -8  -3  427.02   22.21
  -2  -8   3  430.91   19.22
   2  -8  -3  386.07   23.46
  -2  -8   3  466.19   21.21
  -2  -8   3  466.45   19.07
   2  -8  -2   85.17    7.58
   2  -8  -2   94.49    6.11
   2  -8  -2   81.61    9.08
  -2  -8   2   80.60    5.56
  -2  -8   2   95.39    7.50
  -2  -8   2   90.23    5.57
  -2  -8   1  311.85   13.96
  -2  -8   1  301.11   15.93
   2  -8  -1  308.70   16.74
   2  -8  -1  329.76   14.58
   2  -8  -1  307.71   14.96
   2  -8  -1  292.07   19.13
  -2  -8   0   20.55    4.28
  -2  -8   0   26.63    3.17
   2  -8   0   22.69    3.34
   2  -8   0   23.85    5.68
  -2  -8   0   26.60    2.96
   2  -8   0   28.20    4.22
   2  -8   0   23.22    2.96
   2  -8   1  285.88   14.51
  -2  -8  -1  311.10   15.08
  -2  -8  -1  312.96   14.00
   2  -8   1  290.63   16.02
   2  -8   1  297.18   13.75
   2  -8   1  277.41   18.82
  -2  -8  -1  285.97   13.45
   2  -8   2  138.78    7.82
   2  -8   2  144.25    8.85
  -2  -8  -2  145.04    7.90
   2  -8   2  139.31    9.69
   2  -8   2  146.98   12.85
  -2  -8  -2  153.26    9.23
  -2  -8  -2  141.25    8.12
   2  -8   3  833.10   34.12
   2  -8   3  818.97   36.59
   2  -8   3  836.50   35.34
  -2  -8  -3  890.54   34.59
  -2  -8  -3  945.72   36.20
  -2  -8  -3  847.69   34.22
   2  -8   3  811.60   40.75
  -2  -8  -3  854.02   36.40
  -2  -8  -4   58.91    4.59
  -2  -8  -4   65.39    4.92
   2  -8   4   66.48    4.57
  -2  -8  -4   57.33    5.45
   2  -8   4   69.91    8.67
  -2  -8  -4   51.51    5.80
  -2  -8  -5  205.23   10.03
  -2  -8  -5  195.65   10.04
   2  -8   5  167.02    9.28
  -2  -8  -5  204.43   11.26
   2  -8   5  201.14   15.13
  -2  -8  -5  198.47   11.60
  -2  -8  -6   36.28    4.47
  -2  -8  -6   41.45    3.97
  -2  -8  -6   37.46    5.03
  -2  -8  -7  167.18    9.20
  -2  -8  -7  172.13   10.27
  -2  -8  -7  155.46   10.38
  -2  -8  -8    2.37    2.88
   2  -8   8   -0.57    3.81
  -2  -8  -8    0.73    2.13
  -2  -8  -8    2.67    3.01
  -2  -8  -9   21.26    4.21
   2  -8   9    8.66    5.42
  -2  -8  -9   18.93    4.02
  -2  -8  -9   11.54    3.05
  -2  -8 -10    8.97    3.31
  -2  -8 -10    6.77    2.39
  -2  -8 -10   15.57    3.66
  -2  -8 -11  123.05    8.66
  -2  -8 -11  116.97    7.42
   2  -8  11  124.28    7.59
  -2  -8 -11  109.49    8.64
  -2  -8 -12    1.54    1.95
  -2  -8 -12    1.77    2.89
   2  -8  12    4.00    2.33
  -2  -8 -12    1.30    2.80
  -2  -8 -13    6.36    3.26
  -2  -8 -13    2.77    2.09
  -2  -8 -13    5.73    3.48
   2  -8  13    7.93    2.54
  -2  -8 -14    0.25    2.53
  -2  -8 -14    0.92    1.47
  -2  -8 -14   -1.23    2.93
   2  -8  14    0.59    2.12
  -2  -8 -15   69.21    4.77
  -2  -8 -15   72.18    6.72
   2  -8  15   72.62    5.63
  -2  -8 -15   74.56    6.09
  -2  -8 -16   95.29    7.53
   2  -8  16   80.00    6.20
  -2  -8 -17  318.80   16.28
   2  -8  17  307.32   14.95
  -2  -8 -18   34.92    4.39
   2  -8  18   30.22    3.74
  -2  -8 -19  165.91   10.24
   2  -8  19  174.00    9.41
  -2  -8 -20   50.45    4.89
   2  -8  20   45.54    4.25
  -2  -8 -21  238.02   12.51
   2  -8  21  258.86   11.90
  -2  -8 -22   33.87    3.68
   2  -8  22   35.40    3.34
   2  -8  23  206.24    9.61
   2  -8  24   59.07    4.45
   2  -8  25  173.32    8.54
   2  -8  26   15.91    2.14
   2  -8  27   53.53    3.45
   2  -8  28    2.46    0.98
  -2  -9  26    1.69    1.45
  -2  -9  25    6.37    1.75
  -2  -9  24    7.02    2.14
   2  -9 -23   47.57    3.46
  -2  -9  23   56.37    4.25
   2  -9 -22    6.88    1.74
  -2  -9  22    6.32    2.39
   2  -9 -21  153.33    8.23
  -2  -9  21  161.41    8.42
  -2  -9  21  168.01    8.93
  -2  -9  20   11.76    2.47
   2  -9 -20   14.08    2.54
  -2  -9  19   90.08    6.03
   2  -9 -19  100.09    6.30
  -2  -9  18    9.75    2.45
   2  -9 -18    6.71    2.27
   2  -9 -17  476.00   21.12
  -2  -9  17  465.22   20.65
  -2  -9  17  499.65   21.30
  -2  -9  16   61.04    4.91
   2  -9 -16   58.09    5.11
  -2  -9  16   61.06    5.32
   2  -9 -15  553.17   23.83
  -2  -9  15  562.29   23.69
  -2  -9  15  518.58   22.94
  -2  -9  14   20.10    3.15
   2  -9 -14   22.01    5.10
  -2  -9  14   25.07    3.82
  -2  -9  13  846.21   35.84
   2  -9 -13  874.01   41.99
  -2  -9  13  973.97   36.95
  -2  -9  12   78.64    6.63
  -2  -9  12   57.68    4.85
   2  -9 -12   69.62    8.34
  -2  -9  12   70.43    5.67
   2  -9 -11  325.43   19.28
  -2  -9  11  340.00   16.35
   2  -9 -11  333.27   15.58
  -2  -9  11  340.12   15.20
   2  -9 -10    4.97    2.73
   2  -9 -10    3.92    2.90
  -2  -9  10    5.75    2.88
  -2  -9  10    5.10    2.48
  -2  -9  10    5.73    2.55
  -2  -9   9  466.22   21.59
  -2  -9   9  461.79   20.31
   2  -9  -9  473.10   20.80
   2  -9  -9  451.95   24.34
  -2  -9   9  429.37   20.61
  -2  -9   9  453.93   20.32
  -2  -9   8   63.78    5.27
   2  -9  -8   56.48    5.28
   2  -9  -8   70.58    7.48
  -2  -9   8   64.33    5.96
  -2  -9   8   54.33    4.99
  -2  -9   8   57.16    5.58
   2  -9  -7  393.24   21.34
  -2  -9   7  390.57   17.87
  -2  -9   7  416.22   19.34
   2  -9  -7  402.84   18.22
  -2  -9   7  383.81   17.79
  -2  -9   7  373.96   18.63
  -2  -9   6   18.64    4.00
   2  -9  -6   21.57    4.75
   2  -9  -6   23.31    3.62
  -2  -9   6   20.95    4.00
  -2  -9   6   23.12    3.58
  -2  -9   6   20.53    3.34
  -2  -9   5  763.54   32.34
  -2  -9   5  828.81   33.45
   2  -9  -5  778.28   36.50
   2  -9  -5  821.41   33.61
  -2  -9   5  911.08   35.32
  -2  -9   5  809.38   33.22
  -2  -9   5  840.77   34.82
   2  -9  -4   60.42    4.93
  -2  -9   4   55.34    4.91
  -2  -9   4   58.55    5.69
   2  -9  -4   56.45    6.42
  -2  -9   4   54.51    4.68
  -2  -9   4   51.26    4.13
  -2  -9   4   57.12    5.83
  -2  -9   3   36.77    3.99
   2  -9  -3   34.55    3.87
   2  -9  -3   29.92    4.96
  -2  -9   3   36.42    3.86
  -2  -9   3   34.44    4.96
  -2  -9   3   33.28    3.41
  -2  -9   2    6.39    2.41
   2  -9  -2    1.45    2.38
  -2  -9   2    6.16    1.92
  -2  -9   2    5.51    2.02
   2  -9  -2    4.85    2.28
  -2  -9   2    5.75    3.33
  -2  -9   1   34.76    3.54
   2  -9  -1   36.14    3.92
   2  -9  -1   23.46    4.50
  -2  -9   1   39.18    5.46
   2  -9  -1   35.97    4.38
  -2  -9   0    9.65    3.70
  -2  -9   0    4.53    1.88
   2  -9   0    5.79    2.10
   2  -9   0    7.37    2.71
  -2  -9   0    6.81    3.22
   2  -9   0    6.12    2.65
   2  -9   1   79.26    6.43
  -2  -9  -1   84.19    5.52
  -2  -9  -1   94.91    6.21
   2  -9   1   78.51    5.73
  -2  -9  -1   89.56    7.05
   2  -9   1   67.01    6.74
  -2  -9  -2   10.66    2.33
  -2  -9  -2    6.01    2.37
   2  -9   2    7.68    2.90
  -2  -9  -2    6.22    2.86
   2  -9   2    7.73    2.15
   2  -9   2    5.79    2.51
  -2  -9  -3  101.07    6.60
   2  -9   3   97.38    6.30
   2  -9   3   83.21    7.32
  -2  -9  -3  107.46    7.68
  -2  -9  -3   97.87    8.03
  -2  -9  -4   13.00    4.31
  -2  -9  -4   10.55    2.72
  -2  -9  -4   11.91    3.40
   2  -9   4   10.92    2.23
   2  -9   4    8.28    3.04
  -2  -9  -5  714.30   27.84
  -2  -9  -5  682.50   29.05
  -2  -9  -5  664.24   29.55
  -2  -9  -6   75.36    5.71
  -2  -9  -6   66.07    6.36
  -2  -9  -6   78.56    7.00
  -2  -9  -7  278.40   13.43
  -2  -9  -7  263.85   14.51
  -2  -9  -7  268.44   14.91
  -2  -9  -8    2.60    3.42
  -2  -9  -8    6.12    3.40
  -2  -9  -8    4.77    2.49
  -2  -9  -9  322.77   15.44
  -2  -9  -9  332.96   16.91
  -2  -9  -9  325.80   16.99
  -2  -9 -10   13.57    3.82
  -2  -9 -10   18.98    3.08
  -2  -9 -10   15.73    3.66
   2  -9  10   15.97    3.05
  -2  -9 -11  140.12    8.22
  -2  -9 -11  135.99    9.55
   2  -9  11  133.51    8.36
  -2  -9 -11  128.15    9.25
  -2  -9 -12   21.62    4.00
  -2  -9 -12   15.24    4.12
   2  -9  12   27.70    3.83
  -2  -9 -12   16.89    3.09
  -2  -9 -13  830.12   33.66
  -2  -9 -13  808.43   35.96
   2  -9  13  850.10   34.40
  -2  -9 -13  858.96   35.66
  -2  -9 -14   31.76    3.25
  -2  -9 -14   32.19    4.78
   2  -9  14   41.42    4.35
  -2  -9 -14   37.66    4.69
  -2  -9 -15  198.10   11.67
   2  -9  15  197.71   10.55
  -2  -9 -15  178.93    9.24
   2  -9  16   32.46    3.91
  -2  -9 -16   20.69    3.91
  -2  -9 -17  477.69   22.24
   2  -9  17  504.42   21.64
  -2  -9 -18   13.44    3.02
   2  -9  18   19.93    3.14
  -2  -9 -19   21.80    3.41
   2  -9  19   28.65    3.44
  -2  -9 -20    4.68    2.07
   2  -9  20   10.21    2.32
  -2  -9 -21   96.84    6.04
   2  -9  21  104.07    5.96
   2  -9  22    4.87    1.68
   2  -9  23   61.78    3.81
   2  -9  26    0.63    0.99
  -2 -10  24    1.36    1.27
  -2 -10  23   66.46    4.23
   2 -10 -22    3.81    1.20
   2 -10 -21   18.91    2.14
   2 -10 -20    1.90    1.40
   2 -10 -19   32.36    3.29
   2 -10 -18    1.95    1.80
  -2 -10  18    2.28    1.97
   2 -10 -17   30.15    3.38
  -2 -10  17   29.22    3.58
   2 -10 -16    2.69    1.95
  -2 -10  16    3.03    2.24
   2 -10 -15    8.27    2.66
  -2 -10  15    9.21    2.66
  -2 -10  14    2.84    2.16
  -2 -10  13    8.67    2.89
  -2 -10  12   -1.17    2.43
   2 -10 -11   29.61    4.42
  -2 -10  11   21.53    4.37
  -2 -10  11   31.43    4.05
   2 -10 -10   -0.95    2.92
  -2 -10  10   -0.28    2.75
  -2 -10  10    1.77    2.19
   2 -10 -10    0.45    2.39
   2 -10  -9    9.80    3.70
   2 -10  -9   14.88    3.14
  -2 -10   9   14.32    3.07
  -2 -10   9   18.34    3.91
  -2 -10   8    0.41    2.06
   2 -10  -8   -0.66    2.26
   2 -10  -8    3.18    2.58
  -2 -10   8   -0.57    2.75
  -2 -10   8    0.39    2.03
  -2 -10   8    0.24    2.51
  -2 -10   7    4.72    2.57
  -2 -10   7    7.53    3.20
   2 -10  -7    6.30    2.79
  -2 -10   7    3.27    2.35
   2 -10  -7    1.75    3.21
  -2 -10   7   -0.25    2.92
  -2 -10   6    1.32    2.54
  -2 -10   6   -1.23    2.33
   2 -10  -6   -0.86    2.52
  -2 -10   6    4.08    2.83
   2 -10  -6   -3.37    3.13
  -2 -10   6    0.19    2.05
   2 -10  -5   75.58    5.87
  -2 -10   5   86.68    7.07
  -2 -10   5   89.92    6.40
  -2 -10   5   58.31    5.57
  -2 -10   5   65.36    6.68
  -2 -10   4    1.14    2.88
   2 -10  -4    0.39    2.59
  -2 -10   4    2.01    2.13
  -2 -10   4    0.82    2.14
   2 -10  -4    1.04    2.19
   2 -10  -3   82.86    6.01
   2 -10  -3   60.50    6.93
  -2 -10   3   63.15    5.37
  -2 -10   3   82.25    6.02
  -2 -10   3   74.89    6.98
  -2 -10   2    2.10    3.09
   2 -10  -2    4.49    2.22
  -2 -10   2   -0.83    2.35
   2 -10  -2    0.72    2.24
   2 -10  -2    4.94    2.57
  -2 -10   2    2.57    1.94
  -2 -10   1   26.55    4.74
   2 -10  -1   32.88    3.82
   2 -10  -1   27.04    4.21
   2 -10  -1   30.09    3.98
  -2 -10   1   37.73    4.79
  -2 -10   0   -1.58    3.42
  -2 -10   0    2.62    2.88
   2 -10   0    0.20    1.94
   2 -10   1    7.23    2.40
  -2 -10  -1    6.92    3.35
  -2 -10  -2    0.63    2.00
   2 -10   2   -0.76    1.84
  -2 -10  -2    0.57    2.67
   2 -10   3  115.30    7.37
  -2 -10  -3  129.84    7.90
  -2 -10  -3  129.77    8.94
  -2 -10  -3  129.00    9.62
  -2 -10  -4    4.47    3.76
  -2 -10  -4    5.42    2.27
  -2 -10  -4    5.66    3.09
   2 -10   4    1.40    1.63
   2 -10   5  332.38   15.41
  -2 -10  -5  373.65   16.40
  -2 -10  -5  336.55   17.20
  -2 -10  -5  324.28   17.63
  -2 -10  -6   -0.31    3.26
   2 -10   6    2.22    1.70
  -2 -10  -6    3.12    2.32
  -2 -10  -6   -1.12    2.88
  -2 -10  -7   30.58    4.97
  -2 -10  -7   34.91    3.84
  -2 -10  -7   29.37    4.43
  -2 -10  -8    2.67    3.22
  -2 -10  -8    0.20    1.99
  -2 -10  -8    0.56    2.49
  -2 -10  -9   36.65    5.14
  -2 -10  -9   41.88    4.20
  -2 -10  -9   45.66    5.19
   2 -10   9   49.25    4.67
  -2 -10 -10   -0.57    1.95
   2 -10  10   -0.20    2.38
  -2 -10 -10   -1.68    2.73
  -2 -10 -10   -1.68    2.99
   2 -10  11  129.08    7.86
  -2 -10 -11  126.68    8.73
  -2 -10 -11  119.19    7.33
  -2 -10 -11  118.15    8.56
  -2 -10 -12    2.51    1.74
  -2 -10 -12    0.28    2.42
   2 -10  12   -2.02    2.32
  -2 -10 -13   51.95    5.51
  -2 -10 -13   57.19    4.40
   2 -10  13   61.62    5.16
  -2 -10 -14   -0.96    1.35
  -2 -10 -14   -1.25    2.61
   2 -10  14    0.99    2.38
  -2 -10 -15   46.21    4.73
   2 -10  15   50.10    4.57
  -2 -10 -16   -2.32    2.26
   2 -10  16    0.55    2.16
  -2 -10 -17   13.51    2.79
   2 -10  17   11.26    2.61
  -2 -10 -18    3.10    1.96
   2 -10  18    2.73    1.92
  -2 -10 -19  104.59    6.33
   2 -10  19  119.61    6.55
   2 -10  20    2.53    1.62
   2 -10  21   19.33    2.34
   2 -10  21   18.27    2.18
   2 -10  22    1.16    1.38
   2 -10  22    2.18    1.12
   2 -10  23   -0.90    1.38
   2 -10  24    0.64    0.86
   2 -11 -21  290.99   12.11
  -2 -11  21  323.07   12.80
   2 -11 -20    0.55    1.00
  -2 -11  20    0.69    1.42
   2 -11 -19  365.43   15.46
  -2 -11  19  383.27   15.82
   2 -11 -18    0.56    1.45
  -2 -11  18    2.34    1.78
   2 -11 -17  394.47   16.54
  -2 -11  17  375.60   16.55
   2 -11 -16    0.57    1.83
  -2 -11  16    2.81    2.01
   2 -11 -15  662.62   26.23
  -2 -11  15  604.99   25.80
  -2 -11  14   -0.77    2.06
  -2 -11  13  937.17   37.31
   2 -11 -12    1.36    2.47
  -2 -11  12    2.78    2.27
   2 -11 -11  445.76   18.99
  -2 -11  11  387.33   18.01
   2 -11 -10   -0.61    2.55
  -2 -11  10    0.78    2.61
  -2 -11  10    0.17    2.06
  -2 -11   9  166.93   11.08
  -2 -11   9  175.13   10.02
  -2 -11   8   -0.27    2.82
   2 -11  -8   -1.23    2.33
  -2 -11   8    0.17    2.06
   2 -11  -7  219.78   10.88
  -2 -11   7  198.35   11.75
   2 -11  -6   -2.04    2.55
  -2 -11   6    1.59    2.15
  -2 -11   6   -0.17    1.94
  -2 -11   5  123.64    7.30
   2 -11  -5  112.47    7.01
  -2 -11   4    0.33    1.84
  -2 -11   4    2.02    2.25
   2 -11  -4    2.01    2.10
   2 -11  -3   53.40    4.95
  -2 -11   3   52.98    6.16
  -2 -11   2    2.83    2.27
   2 -11  -2    0.20    1.85
  -2 -11   2   -1.15    3.07
  -2 -11   2   -0.57    3.42
   2 -11  -1   78.07    6.09
  -2 -11   1   87.40    7.72
   2 -11   0    0.57    2.10
  -2 -11   0    5.96    3.19
  -2 -11   0   -0.31    3.33
  -2 -11  -1  327.46   16.43
   2 -11   1  310.40   14.78
  -2 -11  -2   -1.22    2.38
   2 -11   2   -0.18    1.78
  -2 -11  -2    0.84    2.90
  -2 -11  -3  247.96   12.34
   2 -11   3  243.27   11.83
  -2 -11  -3  241.95   13.36
  -2 -11  -3  229.81   13.75
   2 -11   4   -0.33    1.59
  -2 -11  -4    0.55    2.64
  -2 -11  -4    0.81    2.26
  -2 -11  -4    3.40    3.49
   2 -11   5  248.04   12.56
  -2 -11  -5  299.58   13.71
  -2 -11  -5  278.91   14.58
  -2 -11  -5  292.59   15.41
  -2 -11  -6    0.40    2.18
   2 -11   6    1.87    1.57
  -2 -11  -6    2.15    2.76
  -2 -11  -6   -0.29    3.43
  -2 -11  -7  439.91   19.69
  -2 -11  -7  445.46   20.94
   2 -11   7  448.19   19.78
  -2 -11  -8    1.71    2.16
  -2 -11  -8    2.63    2.73
   2 -11   8    1.36    2.43
  -2 -11  -9  509.13   22.42
  -2 -11  -9  518.35   23.84
   2 -11   9  552.24   22.93
  -2 -11 -10    3.22    1.98
  -2 -11 -10    1.02    2.88
   2 -11  10    2.10    2.51
  -2 -11 -11  657.46   30.39
  -2 -11 -11  713.09   29.11
  -2 -11 -12    2.53    1.86
  -2 -11 -12    3.29    2.71
   2 -11  12    8.29    2.82
  -2 -11 -13  927.45   37.30
  -2 -11 -13  928.64   39.00
   2 -11  13 1036.17   38.66
  -2 -11 -14    4.53    2.46
   2 -11  14    2.25    2.56
  -2 -11 -15  742.50   30.84
   2 -11  15  769.44   30.77
  -2 -11 -16    0.60    1.85
   2 -11  16    1.75    2.13
  -2 -11 -17  325.06   15.20
   2 -11  17  399.88   15.77
   2 -11  18    0.19    1.38
   2 -11  18    0.56    1.59
   2 -11  19  188.16    8.68
   2 -11  19  193.65    8.82
   2 -11  20    1.26    1.13
   2 -11  20    0.36    1.09
   2 -11  21  194.92    8.34
  -2 -12  18    0.48    0.90
   2 -12 -18    0.19    0.84
   2 -12 -17    2.27    1.15
  -2 -12  17    0.97    1.18
   2 -12 -16    1.36    1.16
  -2 -12  16    0.45    1.22
  -2 -12  15   16.65    2.14
  -2 -12  14    1.59    1.37
  -2 -12  13   15.38    2.22
   2 -12 -12   14.57    2.58
  -2 -12  12   12.69    2.09
  -2 -12  11   83.58    5.24
   2 -12 -11   93.90    5.92
   2 -12 -10    0.67    1.85
  -2 -12  10   -0.86    1.55
   2 -12  -9   92.91    6.01
  -2 -12   9   79.12    5.13
  -2 -12   8   13.20    2.19
   2 -12  -8   15.13    2.71
   2 -12  -7   85.09    5.83
   2 -12  -6    2.97    1.95
   2 -12  -5   36.98    3.84
  -2 -12   4   16.85    2.91
   2 -12  -4   12.74    2.61
  -2 -12   3   24.83    3.37
   2 -12  -3   21.24    2.97
  -2 -12   3   21.85    3.88
  -2 -12   2    2.67    2.18
   2 -12  -2    2.66    1.90
  -2 -12   2    3.24    2.74
   2 -12  -1  165.09    9.00
  -2 -12   1  177.67   10.49
  -2 -12   1  182.60    9.52
  -2 -12   0   27.79    4.29
   2 -12   0   20.75    3.00
   2 -12   1   45.48    4.11
  -2 -12  -1   68.23    6.07
  -2 -12  -2   11.97    3.31
   2 -12   2    8.00    2.09
   2 -12   3   36.95    3.36
  -2 -12  -3   43.48    4.75
  -2 -12  -3   39.54    3.97
   2 -12   3   36.76    3.78
  -2 -12  -4    5.85    2.31
   2 -12   4    7.12    1.77
  -2 -12  -4    7.40    2.99
   2 -12   4    5.41    2.33
  -2 -12  -5   14.39    2.80
  -2 -12  -5    9.66    3.07
   2 -12   5    4.71    1.65
  -2 -12  -6    4.96    2.15
  -2 -12  -6    4.41    2.71
  -2 -12  -7   24.82    3.11
  -2 -12  -7   18.70    3.69
  -2 -12  -8    6.66    2.07
  -2 -12  -8    6.45    2.61
   2 -12   8    6.60    2.35
  -2 -12  -9   18.39    2.63
  -2 -12  -9   12.74    3.19
   2 -12   9   18.66    3.01
  -2 -12 -10    2.04    1.52
  -2 -12 -10    0.41    2.11
   2 -12  10   -0.64    2.16
  -2 -12 -11   18.24    2.28
  -2 -12 -11   12.60    3.03
   2 -12  11   16.01    2.94
  -2 -12 -12    2.03    1.83
  -2 -12 -12    2.18    1.32
   2 -12  12    5.70    2.25
  -2 -12 -13   14.94    2.42
   2 -12  13   16.50    2.64
   2 -12  14    1.39    1.70
  -2 -12 -14    0.50    1.37
  -2 -12 -15    1.68    1.25
   2 -12  15    2.93    1.66
   2 -12  16    3.42    1.46
   2 -12  17    8.37    1.51
   2 -12  18    0.88    0.87
   2 -13 -15  277.63   11.21
   2 -13 -12   22.86    2.38
   2 -13 -11  494.60   20.06
   2 -13 -10   52.88    3.88
   2 -13  -9  257.20   11.63
   2 -13  -8   11.54    2.25
   2 -13  -7  151.51    7.81
   2 -13  -6   10.91    2.24
   2 -13  -5   85.18    5.32
   2 -13  -5   87.43    5.01
  -2 -13   4    6.79    2.61
   2 -13  -4    5.46    1.85
   2 -13  -4    6.55    1.68
  -2 -13   3   63.26    5.14
   2 -13  -3   59.47    4.17
   2 -13  -3   60.54    4.14
   2 -13  -2    1.20    1.51
  -2 -13   2    1.52    2.23
   2 -13  -2   -0.35    1.54
   2 -13  -1    3.15    1.52
  -2 -13   1    6.49    2.43
   2 -13  -1    2.67    1.67
   2 -13   0    0.34    1.31
  -2 -13   0    0.95    2.08
   2 -13   0    1.98    1.52
   2 -13   1    6.68    1.64
  -2 -13  -1    5.28    2.39
   2 -13   1    5.40    1.79
   2 -13   2    0.40    1.13
  -2 -13  -2   -0.19    2.23
   2 -13   2    0.89    1.68
  -2 -13  -3   57.08    4.01
  -2 -13  -3   53.07    4.54
   2 -13   3   51.39    3.85
  -2 -13  -4    5.16    1.91
  -2 -13  -4    8.22    2.57
   2 -13   4    7.16    1.97
  -2 -13  -5  138.38    8.00
   2 -13   5  135.26    7.24
  -2 -13  -5  136.56    7.18
  -2 -13  -6   21.35    2.52
  -2 -13  -6   21.07    3.17
   2 -13   6   25.71    2.94
  -2 -13  -7  241.90   11.63
  -2 -13  -7  229.18   10.58
  -2 -13  -8   19.86    2.21
  -2 -13  -8   18.56    2.71
  -2 -13  -9  210.89   10.66
  -2 -13  -9  230.40    9.88
  -2 -13 -10   25.48    2.88
  -2 -13 -10   25.46    2.23
   2 -13  10   27.92    2.94
  -2 -13 -11  168.34    8.52
   2 -13  11  195.59    8.76
  -2 -13 -12    8.48    1.52
   2 -13  12    8.62    1.77
   2 -13  13  161.28    7.45
   2 -13  14   18.67    1.89
   2 -14  -8   -0.37    0.77
   2 -14  -7    1.24    1.06
   2 -14  -6   -0.07    0.91
   2 -14  -5    8.46    1.27
   2 -14  -4    0.33    0.83
   2 -14  -3    0.38    0.85
   2 -14  -2   -1.51    0.88
   2 -14  -1    4.43    1.01
   2 -14  -1    6.48    1.32
   2 -14   0    4.57    1.25
   2 -14   1   21.94    2.06
  -2 -14  -2    3.70    1.66
   2 -14   2    4.77    1.29
  -2 -14  -3    0.58    1.51
   2 -14   3    0.23    1.09
  -2 -14  -4    1.33    1.34
   2 -14   4    0.15    1.08
  -2 -14  -5    3.70    1.50
   2 -14   5    2.24    1.15
   2 -14   6    2.19    1.16
  -2 -14  -6    2.15    1.24
   2 -14   7   13.67    1.57
   2 -14   8    0.59    0.81
  -3   0  33   -0.26    0.90
  -3   0  32    0.83    1.16
  -3   0  31    0.28    1.25
  -3   0  31    0.93    1.46
  -3   0  30   -1.52    1.76
  -3   0  29    1.91    1.95
  -3   0  28    0.18    2.01
  -3   0  27   -2.34    2.34
  -3   0  27    2.16    2.14
  -3   0  26   -0.21    2.25
  -3   0  26    2.13    2.28
  -3   0  26    0.89    2.32
  -3   0  25   -0.89    2.37
  -3   0  25   -0.45    2.46
  -3   0  25    0.70    2.51
  -3   0  24    1.14    2.41
  -3   0  24   -0.69    2.48
  -3   0  24   -0.72    2.54
   3   0 -24   -3.31    3.23
  -3   0  23   -0.23    2.29
   3   0 -23    0.96    3.03
  -3   0  23   -0.70    2.52
  -3   0  23   -1.47    2.56
  -3   0  22    9.11    3.01
   3   0 -22    9.03    3.79
  -3   0  22    9.05    2.96
  -3   0  22   12.30    3.22
  -3   0  21   -0.46    2.27
   3   0 -21    0.94    3.19
  -3   0  21    3.88    2.52
  -3   0  21   -0.24    2.46
  -3   0  20   -0.91    2.11
   3   0 -20    2.78    3.22
  -3   0  20    1.33    2.36
  -3   0  20    1.19    2.21
  -3   0  19    1.33    2.11
   3   0 -19   -0.45    2.90
  -3   0  19   -0.21    2.09
  -3   0  19    0.69    2.21
   3   0 -18    9.84    3.75
  -3   0  18    9.60    2.66
  -3   0  18    9.66    2.56
  -3   0  18    6.90    2.48
   3   0 -17    0.82    2.76
  -3   0  17    1.84    2.11
  -3   0  17    1.18    2.00
  -3   0  17    1.07    2.02
  -3   0  16    2.52    1.96
  -3   0  16    3.38    2.17
  -3   0  16    3.01    2.00
  -3   0  15    0.36    1.73
   3   0 -15    0.99    1.82
  -3   0  15    1.25    1.81
  -3   0  15   -1.31    1.95
   3   0 -14   16.45    3.00
   3   0 -13   -0.21    1.77
   3   0 -12    6.92    1.97
   3   0 -11    0.71    1.53
   3   0 -10    6.26    1.86
  -3   0  10    6.24    1.62
  -3   0   9   -0.11    1.39
   3   0  -9    0.31    1.46
  -3   0   9    2.78    2.50
  -3   0   8    4.33    1.52
   3   0  -8    5.15    1.76
  -3   0   8    5.67    2.57
  -3   0   7    0.42    1.24
  -3   0   7   -1.87    2.23
  -3   0   6    5.58    1.51
  -3   0   6    9.87    2.61
  -3   0   5    0.29    1.23
  -3   0   5    0.94    2.14
  -3   0   4    2.01    2.21
  -3   0   3    2.11    2.20
  -3   0   2    1.36    2.21
  -3   0   1    2.03    2.04
  -3   0   0    1.19    2.08
  -3   0  -1    0.17    1.90
  -3   0  -2   -0.34    1.89
  -3   0  -3   -0.17    2.06
  -3   0  -4    0.53    2.01
  -3   0  -5    0.48    1.22
  -3   0  -5   -0.19    2.13
  -3   0  -6    0.51    1.36
  -3   0  -6    0.40    2.10
  -3   0  -7    0.44    1.38
  -3   0  -7   -0.43    2.13
  -3   0  -8    1.16    1.51
  -3   0  -9    0.12    1.44
  -3   0 -10   -0.27    1.46
  -3   0 -11   -0.72    1.61
  -3   0 -12    4.41    3.24
  -3   0 -13    1.02    3.00
  -3   0 -14    1.83    2.78
   3   0  15    0.19    1.72
  -3   0 -15   -0.40    3.14
   3   0  16    5.08    2.25
  -3   0 -16    0.77    1.94
  -3   0 -16    2.97    3.26
   3   0  17    1.27    1.99
  -3   0 -17    2.63    2.08
  -3   0 -17    0.45    3.07
   3   0  18    0.65    2.08
  -3   0 -18   -0.64    2.07
  -3   0 -18   -3.75    3.87
   3   0  19   -0.22    2.22
  -3   0 -19    0.89    2.19
  -3   0 -19    0.97    3.03
   3   0  20    2.74    2.28
  -3   0 -20    1.01    3.54
  -3   0 -20    2.28    2.20
   3   0  21    2.32    2.48
  -3   0 -21    1.16    2.36
  -3   0 -21   -0.52    3.33
  -3   0 -22    1.64    2.22
   3   0  22   -0.47    2.32
  -3   0 -23    1.27    2.61
   3   0  23    3.51    2.57
  -3   0 -24    1.75    2.50
   3   0  24    0.46    2.45
  -3   0 -25    0.48    2.33
   3   0  25   -2.00    2.53
  -3   0 -26    1.39    2.24
   3   0  26    1.05    2.29
  -3   0 -27    0.43    1.91
   3   0  27    1.56    2.09
  -3   0 -28   -0.99    1.97
   3   0  28   -0.18    1.83
   3   0  29    2.40    1.58
  -3   0 -29   -1.75    1.74
   3   0  29    2.33    1.85
   3   0  30    2.35    1.49
  -3   0 -30    2.54    1.61
   3   0  30    1.74    1.68
   3   0  31    0.26    1.08
   3   0  31   -0.66    1.26
   3   0  32   -0.35    0.75
   3   0  32    0.34    1.00
  -3   1  33   97.04    4.76
  -3   1  32   -0.09    1.11
  -3   1  32   -0.07    0.98
  -3   1  31   54.47    3.83
  -3   1  30    1.18    1.58
  -3   1  29    9.30    2.23
  -3  -1  29    7.87    2.29
  -3  -1  28    7.73    2.49
  -3  -1  28    6.92    2.42
  -3   1  28    3.96    2.11
  -3   1  27    0.95    2.10
  -3  -1  27    0.79    2.30
  -3  -1  27    1.79    2.24
  -3   1  26    1.64    2.04
  -3  -1  26    0.63    2.27
  -3  -1  26   -0.21    2.41
  -3  -1  25   83.71    6.45
  -3   1  25   86.04    6.44
  -3   1  25   93.37    6.78
  -3   1  25   80.76    6.38
  -3  -1  25   83.37    6.58
  -3  -1  24   12.90    3.12
  -3   1  24   13.44    3.06
  -3   1  24   18.96    3.40
  -3  -1  24   13.29    3.29
  -3   1  24   13.90    3.29
   3   1 -24   11.78    3.77
   3  -1 -24    6.95    3.59
  -3  -1  23  411.74   18.97
   3   1 -23  367.62   21.95
  -3   1  23  409.76   18.85
  -3   1  23  402.45   18.84
  -3   1  23  414.50   19.14
  -3  -1  23  402.50   18.96
  -3  -1  22    0.47    2.39
  -3   1  22    3.90    2.55
   3   1 -22    3.34    3.31
  -3   1  22    3.45    2.59
  -3  -1  22    3.05    2.65
  -3   1  22    3.43    2.62
   3   1 -21  957.58   46.26
  -3   1  21 1057.09   42.75
  -3   1  21 1072.82   43.14
  -3   1  21 1077.21   42.87
  -3  -1  21 1048.29   42.84
  -3  -1  21 1072.69   42.96
   3   1 -20   33.40    5.74
  -3   1  20   33.09    4.36
  -3   1  20   33.81    4.27
  -3  -1  20   31.95    4.26
  -3   1  20   39.03    4.34
  -3  -1  20   28.23    4.12
   3   1 -19  986.37   44.47
  -3   1  19 1018.67   40.66
  -3  -1  19 1017.01   40.80
  -3   1  19  990.10   40.79
  -3   1  19  995.48   40.56
  -3  -1  19  991.01   40.60
  -3   1  18   14.42    2.83
  -3  -1  18   12.03    3.05
   3   1 -18   17.66    4.35
  -3   1  18   16.48    3.08
  -3  -1  18    9.66    2.80
  -3   1  18   13.76    2.95
   3  -1 -17 1722.96   71.13
  -3  -1  17 1769.43   69.35
  -3   1  17 1761.85   69.16
  -3   1  17 1778.85   69.41
  -3   1  17 1861.86   69.35
  -3  -1  17 1849.55   69.23
   3   1 -17 1729.97   72.75
  -3   1  16   40.07    4.19
   3   1 -16   33.73    5.53
   3  -1 -16   47.39    5.33
  -3  -1  16   47.25    4.48
  -3   1  16   40.07    4.20
  -3  -1  16   32.66    4.06
  -3   1  16   36.81    4.25
  -3  -1  16   35.89    4.01
  -3  -1  15 1131.06   45.57
   3  -1 -15 1136.87   47.34
  -3   1  15 1160.65   45.69
  -3  -1  15 1147.45   45.70
  -3   1  15 1184.08   45.75
  -3  -1  15 1175.53   45.54
  -3   1  15 1135.22   45.47
  -3  -1  14   17.54    2.73
   3  -1 -14   17.13    3.17
  -3   1  14   15.93    2.81
  -3  -1  14   15.30    2.86
  -3   1  14   18.41    2.76
  -3  -1  14   20.24    2.91
   3  -1 -13  931.46   38.43
   3  -1 -12   14.17    2.84
   3  -1 -11  590.88   24.53
   3   1 -11  547.96   23.25
  -3   1  10   15.19    2.24
   3  -1 -10   24.61    3.22
   3   1 -10   21.22    2.42
  -3   1   9  711.28   29.62
  -3  -1   9  689.38   29.59
   3  -1  -9  829.71   31.33
   3   1  -9  826.19   30.03
  -3   1   9  780.23   32.04
  -3   1   8    3.66    1.47
  -3  -1   8    4.68    1.65
   3  -1  -8    6.75    2.05
  -3   1   8    5.44    2.53
   3   1  -8    3.13    1.36
  -3   1   7  740.91   30.04
  -3  -1   7  748.23   30.09
   3   1  -7  823.97   30.43
  -3   1   7  788.93   32.16
  -3   1   6   40.69    3.10
  -3   1   6   44.65    4.49
  -3  -1   6   42.23    3.19
  -3  -1   5  239.33   10.56
  -3   1   5  240.34   10.54
  -3   1   5  245.12   12.16
  -3   1   4   12.37    2.64
  -3   1   3   27.70    3.43
  -3   1   2   26.02    3.31
  -3   1   1  155.66    8.59
  -3   1   0   36.01    3.78
  -3   1  -1  242.38   11.81
   3   1   2   66.51    5.09
  -3   1  -2   61.72    4.87
   3   1   3  100.24    6.45
  -3   1  -3  103.82    6.47
   3   1   4   88.64    5.91
  -3   1  -4   80.63    5.86
  -3  -1  -5  258.59   11.26
  -3   1  -5  251.74   11.18
   3   1   5  267.19   12.68
  -3   1  -5  270.31   12.85
  -3  -1  -6   15.51    2.17
  -3   1  -6   17.00    2.16
   3   1   6   18.34    3.09
  -3   1  -6   20.82    3.33
  -3   1  -7 1045.49   41.08
  -3   1  -7 1120.09   43.23
  -3   1  -8  123.33    6.54
  -3   1  -8  124.89    8.27
  -3   1  -9 1275.53   49.05
  -3   1 -10    0.40    1.53
  -3   1 -11 2811.81  105.56
  -3   1 -13 1685.13   67.93
  -3  -1 -14    0.67    1.76
  -3   1 -14   -1.47    3.42
  -3   1 -14   -0.51    1.84
  -3   1 -15 1899.49   70.27
   3   1  15 1773.60   70.20
   3  -1  15 1712.59   70.12
  -3   1 -16   83.89    6.12
   3   1  16   79.10    6.11
  -3   1 -17  538.28   22.88
  -3   1 -17  554.32   26.92
   3   1  17  493.79   22.72
   3   1  18    0.22    2.14
  -3   1 -18    1.05    1.98
  -3   1 -18    0.46    3.25
  -3   1 -19  611.90   30.23
  -3  -1 -19  628.63   26.18
  -3   1 -19  599.47   25.98
   3   1  19  575.05   25.83
  -3  -1 -20   56.11    5.24
  -3   1 -20   56.28    5.26
   3   1  20   46.35    4.86
  -3   1 -20   48.51    6.97
   3   1  21  624.59   27.78
  -3   1 -21  658.87   32.19
  -3   1 -21  668.06   28.01
  -3   1 -22    4.12    2.65
  -3   1 -22    0.74    2.52
   3   1  22    1.40    2.41
  -3   1 -23    7.47    2.94
  -3   1 -23    7.42    2.95
   3   1  23    5.13    2.79
  -3   1 -24    0.73    2.46
   3   1  24    8.67    2.81
  -3   1 -25   76.98    6.33
   3   1  25   85.92    6.42
  -3   1 -26    4.06    2.46
   3   1  26    7.27    2.58
  -3   1 -27   42.49    4.36
   3   1  27   40.67    4.27
   3  -1  28    0.42    1.43
  -3   1 -28   -0.57    1.77
   3   1  28    0.17    1.95
   3   1  29   91.30    5.67
   3  -1  29   83.47    5.28
  -3   1 -29  101.12    6.20
   3   1  29   92.58    5.94
   3  -1  30    3.76    1.34
   3   1  30    4.71    1.64
  -3   1 -30    5.45    1.66
   3   1  30    5.18    1.82
   3   1  31  116.61    6.26
   3   1  31  141.10    6.68
   3   1  32    0.61    0.89
   3   1  32    0.40    1.03
  -3   2  32    0.36    1.00
  -3  -2  32   -0.33    1.06
  -3  -2  31   25.85    2.59
  -3   2  31   21.73    2.32
  -3   2  30   -0.59    1.45
  -3  -2  30    1.20    1.65
  -3   2  29    1.26    1.74
  -3  -2  29    1.49    1.82
  -3  -2  29    2.48    2.02
  -3   2  28    2.87    1.88
  -3  -2  28    4.26    2.04
  -3  -2  28    2.08    2.12
  -3  -2  27   32.48    3.83
  -3   2  27   24.70    3.32
  -3   2  26    0.19    2.22
  -3  -2  26   -0.21    2.48
  -3   2  25    7.82    2.86
  -3  -2  25    3.14    2.87
  -3   2  24    4.52    2.37
  -3  -2  24    5.11    2.76
  -3   2  24    4.88    2.64
  -3  -2  24    4.16    2.53
   3   2 -24    0.92    2.93
   3  -2 -24    2.25    2.86
  -3   2  23   22.71    3.52
  -3   2  23   34.63    4.26
  -3  -2  23   29.01    4.13
  -3  -2  23   28.91    3.96
   3   2 -23   15.58    4.53
   3  -2 -23   18.04    4.64
  -3   2  22   -0.67    2.20
   3   2 -22    0.94    2.62
  -3   2  22    0.68    2.33
   3  -2 -22    1.39    2.99
  -3  -2  22    1.18    2.40
  -3   2  22    1.21    2.22
  -3  -2  22    1.43    2.37
  -3   2  21   -0.22    2.08
   3   2 -21   -0.93    3.16
   3  -2 -21   -0.46    3.06
  -3   2  21    0.45    2.29
  -3  -2  21   -1.39    2.68
  -3   2  21    0.24    2.29
  -3  -2  21    0.72    2.44
  -3   2  20   11.12    2.70
  -3   2  20   11.97    3.09
  -3  -2  20   10.97    3.09
   3  -2 -20   10.92    4.23
  -3   2  20   10.38    2.81
  -3  -2  20   10.34    2.82
   3   2 -20   11.97    3.71
  -3   2  19    5.09    2.28
  -3  -2  19    1.51    2.45
   3   2 -19    4.94    3.29
   3  -2 -19    3.11    3.26
  -3   2  19    1.78    2.33
  -3   2  19    3.67    2.32
  -3  -2  19   -1.15    2.21
  -3   2  18    2.05    2.11
   3   2 -18    2.16    2.96
   3  -2 -18    1.28    3.10
   3  -2 -18    1.88    2.50
  -3   2  18    3.25    2.41
  -3  -2  18    0.82    2.27
  -3   2  18    0.88    2.19
  -3  -2  18    0.45    2.17
  -3   2  17   13.32    2.96
   3   2 -17   15.15    4.26
   3  -2 -17   18.68    4.57
  -3  -2  17   21.46    3.27
   3  -2 -17   16.84    3.79
  -3   2  17   15.13    3.37
  -3  -2  17   17.03    3.10
  -3   2  17   16.09    3.22
  -3  -2  17   16.73    3.06
  -3   2  16   44.05    4.23
   3  -2 -16   37.85    5.51
   3  -2 -16   39.30    5.30
  -3   2  16   43.22    4.35
  -3  -2  16   44.80    4.47
  -3   2  16   51.43    4.68
  -3  -2  16   48.22    4.42
  -3  -2  16   52.88    4.60
   3   2 -16   44.42    6.06
  -3   2  15    0.70    1.65
  -3  -2  15    4.77    2.20
   3  -2 -15    1.59    2.29
  -3   2  15    2.35    2.11
  -3   2  15    1.48    1.91
  -3  -2  15    2.46    1.88
   3  -2 -14   28.53    4.12
  -3   2  14   34.02    3.52
  -3  -2  14   34.01    3.56
  -3   2  14   33.66    3.74
   3  -2 -13   13.76    3.16
   3  -2 -12   33.78    4.20
   3  -2 -11  351.94   16.93
   3  -2 -10  152.16    9.13
  -3  -2   9   80.77    4.88
   3  -2  -9   86.24    6.41
  -3   2   9   87.00    6.71
  -3  -2   9   84.93    6.54
  -3   2   9   80.27    4.91
   3  -2  -8   89.31    6.15
  -3  -2   8   84.51    6.35
  -3   2   8   74.99    4.61
  -3   2   8   77.67    6.05
  -3  -2   8   71.24    4.58
  -3   2   7    3.85    1.46
  -3  -2   7    3.59    1.47
  -3   2   7    6.70    2.60
  -3  -2   7    1.70    2.43
  -3  -2   6   96.75    5.19
  -3   2   6   88.62    5.01
  -3   2   6   98.02    6.55
  -3  -2   6   89.18    6.42
  -3  -2   5  107.26    5.64
  -3   2   5  105.55    6.94
  -3   2   5  103.82    5.53
  -3  -2   5  117.96    7.19
  -3  -2   4   35.83    3.92
  -3   2   4   33.79    3.77
  -3   2   3  175.37    9.39
  -3  -2   3  172.72    9.42
  -3   2   2  138.89    8.04
  -3  -2   2  146.96    8.16
  -3   2   1    1.38    2.18
  -3  -2   1    3.46    2.13
  -3   2   0   93.90    6.15
  -3  -2   0   90.25    6.07
  -3   2  -1   13.06    2.82
  -3  -2  -1   17.30    2.78
   3   2   2  123.60    7.34
   3  -2   2  126.65    7.46
  -3   2  -2  121.58    7.33
  -3  -2  -2  123.00    7.36
   3   2   3   82.27    5.59
   3  -2   3   73.16    5.40
  -3   2  -3   78.47    5.58
  -3  -2  -3   75.50    5.59
  -3   2  -4   63.88    3.97
  -3  -2  -4   67.18    4.05
   3   2   4   68.36    5.16
   3  -2   4   69.47    5.21
  -3   2  -4   67.02    5.24
  -3  -2  -4   65.98    5.18
   3  -2   5   25.75    3.67
  -3  -2  -5   22.28    2.49
  -3   2  -5   16.28    2.29
  -3  -2  -5   16.48    3.23
   3   2   5   27.88    3.46
  -3   2  -5   20.53    3.55
  -3  -2  -6   39.88    3.17
  -3   2  -6   40.38    3.10
   3   2   6   43.04    4.25
   3  -2   6   44.33    4.34
  -3   2  -6   41.43    4.22
  -3  -2  -6   40.07    4.26
  -3   2  -7   15.31    2.12
  -3  -2  -7   11.79    2.03
  -3   2  -7   11.21    2.87
  -3  -2  -7   11.42    2.89
  -3  -2  -8   70.67    4.50
  -3   2  -8   64.60    4.34
  -3   2  -8   61.42    5.67
  -3  -2  -8   77.74    6.13
  -3  -2  -9  186.22    8.93
  -3   2  -9  175.82    8.84
  -3   2  -9  187.20   11.06
  -3  -2  -9  175.49   10.62
  -3  -2 -10   14.32    2.47
  -3   2 -10   16.32    2.52
  -3  -2 -11  568.53   23.57
  -3   2 -11  573.11   23.57
  -3  -2 -12   -0.62    1.78
  -3   2 -12    0.16    1.72
  -3  -2 -13   21.04    3.00
  -3   2 -13   18.22    2.62
  -3   2 -13   17.67    2.96
  -3  -2 -14    7.22    2.05
  -3   2 -14    5.06    2.07
   3   2  15    1.38    1.91
   3  -2  15    2.34    2.02
  -3  -2 -15    2.86    1.96
  -3   2 -15    1.81    2.02
  -3  -2 -15    1.99    3.32
   3   2  16    4.75    2.42
   3  -2  16    5.75    2.28
  -3  -2 -16    5.12    3.70
  -3  -2 -16    6.65    2.27
  -3   2 -16    4.64    2.16
  -3   2 -16    7.97    3.73
  -3   2 -17  113.04    9.73
  -3  -2 -17  105.50    6.99
  -3   2 -17  103.44    6.93
  -3  -2 -17  117.01    9.85
   3   2  17  101.10    6.96
   3  -2  17  105.16    7.12
   3   2  18   13.79    2.97
  -3  -2 -18   13.28    2.76
  -3   2 -18   11.09    2.76
  -3  -2 -18   10.81    4.10
  -3   2 -18   15.12    4.20
   3  -2  18   14.14    2.81
   3   2  19    0.89    2.23
   3  -2  19    4.67    2.39
  -3   2 -19    1.94    2.27
   3   2  20   -0.46    2.31
   3  -2  20    0.45    2.08
  -3   2 -20    1.32    2.15
  -3  -2 -20   -0.24    2.49
  -3   2 -20   -0.24    2.31
   3   2  21   18.67    3.39
   3  -2  21   21.06    3.48
  -3   2 -21   21.58    3.42
  -3  -2 -21   18.10    3.64
  -3   2 -21   25.06    3.84
  -3  -2 -22   11.24    3.00
  -3   2 -22    7.32    2.60
  -3   2 -22    9.33    2.85
   3   2  22   11.35    2.90
   3  -2  22    9.43    2.75
  -3   2 -23   -0.22    2.29
  -3  -2 -23    1.21    2.48
  -3   2 -23    0.24    2.49
   3   2  23    2.76    2.38
   3  -2  23    1.14    2.33
  -3   2 -24    4.20    2.37
  -3  -2 -24    3.76    2.30
  -3   2 -24    2.55    2.30
   3   2  24    1.34    2.32
   3  -2  24    1.11    2.27
  -3  -2 -25  302.14   15.44
  -3   2 -25  308.08   15.47
   3   2  25  338.47   15.51
   3  -2  25  323.14   15.39
   3  -2  26   23.99    2.92
  -3  -2 -26   20.47    3.30
  -3   2 -26   23.45    3.43
   3   2  26   24.72    3.57
   3  -2  26   25.86    3.55
   3  -2  27    1.23    1.53
  -3  -2 -27    1.77    1.99
  -3   2 -27    5.46    2.26
   3   2  27    0.18    1.92
   3  -2  27    3.46    2.17
  -3  -2 -28    6.36    1.99
  -3   2 -28    6.29    2.13
   3   2  28    7.30    2.12
   3  -2  28    7.83    2.23
  -3   2 -29   15.82    2.45
  -3  -2 -29   15.02    2.39
   3  -2  29   19.65    2.56
   3   2  29   14.38    2.46
  -3   2 -30    8.07    1.61
   3   2  30    3.24    1.66
  -3  -2 -30    4.59    1.59
   3   2  30    5.29    1.63
   3  -2  30    3.11    1.61
   3   2  31   11.03    1.73
   3   2  31   12.47    1.79
   3  -2  31   11.53    1.81
   3   2  32    2.16    0.99
   3   2  32    1.78    0.89
   3  -2  32    1.15    0.94
  -3  -3  32    0.44    0.78
  -3  -3  31   19.59    2.09
  -3   3  31   15.50    1.83
  -3  -3  30   -0.12    1.47
  -3   3  30    0.90    1.28
  -3  -3  30    1.79    1.43
  -3   3  29    7.36    1.82
  -3  -3  29    1.97    1.85
  -3  -3  29    4.74    2.11
  -3   3  28    3.93    1.79
  -3  -3  28    3.24    2.08
  -3  -3  28    4.74    2.28
  -3  -3  27   16.59    2.89
  -3   3  27   15.22    2.60
  -3  -3  27   16.79    3.08
  -3   3  26    5.43    2.15
  -3  -3  26    4.46    2.59
  -3  -3  26    2.81    1.94
  -3  -3  26    1.96    2.30
  -3   3  25   27.42    3.46
  -3  -3  25   28.99    3.60
  -3  -3  25   29.09    3.90
  -3  -3  25   29.03    4.01
  -3  -3  24    5.27    2.68
  -3   3  24    6.80    2.49
  -3  -3  24    7.45    3.02
  -3   3  23   35.01    4.18
  -3  -3  23   17.95    3.74
  -3  -3  23   19.42    4.13
   3   3 -23   20.79    5.12
   3  -3 -23   27.46    5.42
  -3  -3  22   10.69    3.14
  -3   3  22   13.08    3.00
  -3  -3  22   17.58    3.57
   3   3 -22   15.17    4.22
   3  -3 -22   11.76    4.05
  -3   3  22   16.24    3.43
  -3  -3  22   11.55    3.09
  -3  -3  21  194.89   10.97
   3   3 -21  191.25   13.53
  -3   3  21  195.84   10.66
   3  -3 -21  162.33   12.78
  -3   3  21  195.73   11.03
  -3  -3  21  201.57   11.03
  -3  -3  21  196.80   10.95
  -3  -3  20   47.59    4.99
  -3   3  20   41.64    4.51
   3   3 -20   54.53    6.78
   3  -3 -20   46.00    6.40
  -3   3  20   50.53    4.99
  -3  -3  20   55.14    5.20
  -3  -3  20   51.82    5.17
   3  -3 -19  376.50   20.52
  -3  -3  19  362.25   17.37
   3  -3 -19  350.38   20.00
  -3   3  19  361.13   16.98
  -3   3  19  367.21   17.41
  -3  -3  19  382.33   17.51
  -3  -3  19  356.19   17.16
   3   3 -19  325.85   19.93
  -3  -3  19  377.25   17.30
  -3  -3  18  173.18   10.15
  -3  -3  18  176.94   10.38
  -3   3  18  178.79    9.95
   3   3 -18  172.60   12.64
   3  -3 -18  184.31   12.74
  -3   3  18  191.45   10.43
  -3  -3  18  184.09   10.34
  -3  -3  18  178.56   10.17
   3  -3 -18  181.70   12.82
   3   3 -17 1548.32   64.35
  -3   3  17 1535.57   60.82
  -3  -3  17 1572.26   61.00
   3  -3 -17 1481.84   64.03
  -3  -3  17 1564.68   60.92
  -3  -3  17 1582.54   60.73
  -3   3  17 1536.26   60.44
   3  -3 -17 1620.60   64.69
  -3  -3  16  214.96   11.21
  -3   3  16  207.71   10.71
   3  -3 -16  215.66   13.47
  -3   3  16  203.69   10.94
  -3  -3  16  206.70   11.01
   3   3 -16  195.28   13.22
   3  -3 -16  205.73   13.46
  -3  -3  15  396.29   17.92
   3  -3 -15  408.38   20.41
  -3   3  15  415.43   17.93
  -3  -3  15  367.30   17.60
  -3   3  15  398.87   17.53
   3   3 -15  383.16   20.48
   3  -3 -15  381.24   20.40
  -3  -3  14   60.40    5.34
  -3  -3  14   79.28    5.73
   3  -3 -14   72.94    6.74
  -3   3  14   69.39    5.34
  -3  -3  14   68.96    5.26
  -3  -3  13  756.22   31.47
  -3  -3  13  783.07   31.52
   3  -3 -13  835.60   34.10
  -3  -3  13  755.54   31.32
   3  -3 -12  167.44   10.48
   3  -3 -11  809.37   34.54
   3  -3 -10  183.02   10.79
   3  -3  -9  934.04   38.73
  -3   3   8   45.13    3.43
   3  -3  -8   45.26    4.85
  -3   3   8   49.99    4.80
  -3  -3   8   46.58    4.70
  -3  -3   8   46.45    3.39
  -3   3   7   56.73    3.56
  -3  -3   7   36.81    3.13
  -3   3   7   58.58    4.94
  -3  -3   7   41.90    4.56
  -3   3   6   47.01    3.34
  -3  -3   6   48.91    3.39
  -3   3   6   47.25    4.51
  -3  -3   6   44.24    4.50
  -3  -3   5  672.95   26.86
  -3   3   5  677.06   26.85
  -3   3   5  709.62   28.72
  -3  -3   5  703.11   28.74
  -3  -3   4   15.78    2.04
  -3   3   4   18.11    2.96
  -3  -3   4   19.61    3.06
  -3   3   4   16.60    1.98
  -3   3   3  588.88   24.16
  -3  -3   3  545.01   23.98
  -3  -3   2  175.21    9.46
  -3   3   2  167.52    9.17
  -3  -3   1  115.65    7.27
  -3   3   1  132.66    7.65
  -3   3   0    7.98    2.32
  -3  -3   0    8.27    2.35
  -3  -3  -1  945.22   39.85
   3   3   1 1011.77   39.92
   3  -3   1 1041.13   40.07
  -3   3  -1 1028.35   40.17
  -3   3  -2  444.69   19.37
  -3  -3  -2  433.07   19.27
   3   3   2  439.72   19.08
   3  -3   2  431.87   19.14
   3  -3   3  921.89   37.33
   3   3   3  914.37   37.26
  -3   3  -3  964.93   37.66
  -3  -3  -3  935.77   37.56
   3   3   4   51.79    4.47
   3  -3   4   51.48    4.45
  -3   3  -4   47.08    4.44
  -3  -3  -4   45.19    4.44
   3   3   5  659.44   27.50
  -3  -3  -5  665.44   26.06
   3  -3   5  639.28   27.44
  -3   3  -5  670.93   27.88
  -3  -3  -5  680.05   27.90
  -3   3  -5  648.56   25.97
  -3  -3  -6  179.39    8.45
  -3   3  -6  179.97    8.40
  -3   3  -6  176.23    9.93
  -3  -3  -6  174.60    9.96
  -3  -3  -7  173.02    8.32
  -3   3  -7  164.46    8.17
  -3   3  -7  182.50    9.99
  -3  -3  -7  179.54    9.98
  -3  -3  -8    7.31    1.95
  -3   3  -8   10.25    1.97
  -3   3  -8    5.61    2.79
  -3  -3  -8    7.63    2.99
  -3  -3  -9  851.72   33.98
  -3   3  -9  861.57   33.99
  -3   3  -9  888.66   36.38
  -3  -3  -9  872.05   36.33
  -3  -3 -10  402.88   17.09
  -3   3 -10  389.56   17.00
  -3   3 -10  392.76   19.30
  -3  -3 -10  408.26   19.41
  -3  -3 -11  923.78   36.46
  -3   3 -11  912.19   36.45
  -3   3 -11  930.75   39.06
  -3  -3 -11  924.72   38.95
  -3  -3 -12   41.75    3.89
  -3   3 -12   44.07    4.07
  -3   3 -12   36.38    3.49
  -3  -3 -13  739.31   30.27
  -3  -3 -13  772.60   30.55
  -3   3 -13  812.94   30.73
  -3   3 -14  252.44   12.75
  -3  -3 -14  274.39   13.14
  -3  -3 -14  300.92   13.54
  -3   3 -14  285.64   13.33
   3  -3  14  261.58   15.86
   3   3  14  276.36   13.28
   3  -3  14  258.67   13.16
  -3  -3 -15  515.61   22.11
  -3  -3 -15  535.00   22.42
  -3   3 -15  529.11   22.25
   3  -3  15  504.38   25.10
   3   3  15  484.89   22.06
   3  -3  15  488.90   22.06
   3   3  16   14.14    3.04
   3  -3  16   12.21    3.02
  -3   3 -16   15.94    3.04
  -3  -3 -16   14.23    3.33
  -3   3 -16    9.44    3.08
   3  -3  16   11.97    3.54
  -3  -3 -17  257.28   13.47
  -3   3 -17  243.82   12.84
   3   3  17  255.94   13.20
   3  -3  17  258.83   13.28
  -3  -3 -18  115.81    7.92
  -3   3 -18  118.36    7.67
  -3   3 -18  121.47    8.06
   3   3  18  126.20    7.87
   3  -3  18  117.89    7.78
  -3   3 -19  221.40   11.81
  -3  -3 -19  213.32   12.01
  -3   3 -19  238.17   12.27
   3   3  19  225.82   11.98
   3  -3  19  233.42   12.09
   3   3  20    8.04    2.71
   3  -3  20    8.41    2.88
  -3  -3 -20    3.08    2.53
  -3   3 -20    3.87    2.53
  -3   3 -20    0.92    2.38
  -3   3 -21  115.03    7.64
  -3  -3 -21  116.06    7.90
  -3   3 -21  117.27    7.88
   3   3  21  108.37    7.53
   3  -3  21  114.87    7.68
  -3   3 -22   92.38    6.67
  -3  -3 -22   92.89    6.95
  -3   3 -22   97.74    7.02
   3   3  22   98.87    6.96
   3  -3  22   94.54    6.94
  -3   3 -23  361.26   17.12
  -3  -3 -23  342.89   17.33
  -3   3 -23  366.61   17.47
   3   3  23  392.09   17.53
   3  -3  23  382.85   17.41
  -3   3 -24   22.08    3.29
  -3  -3 -24   20.97    3.37
  -3   3 -24   22.97    3.47
   3  -3  24   18.96    2.64
   3   3  24   21.53    3.26
   3  -3  24   21.76    3.40
  -3  -3 -25   15.24    2.94
  -3   3 -25   19.91    3.15
   3   3  25   21.71    3.17
   3  -3  25   20.97    3.16
   3  -3  26    5.07    1.65
  -3   3 -26    4.80    2.10
  -3  -3 -26    6.76    2.26
   3   3  26    6.94    2.30
   3  -3  26    7.31    2.37
  -3  -3 -27    6.13    2.02
  -3   3 -27    3.82    1.82
   3   3  27    3.29    1.92
   3  -3  27    3.13    1.94
  -3  -3 -28    9.31    2.08
  -3   3 -28    8.87    2.06
   3   3  28    7.20    2.06
   3  -3  28   11.46    2.21
  -3  -3 -29   86.33    5.42
  -3   3 -29   83.70    5.39
   3   3  29   93.17    5.44
   3  -3  29   98.14    5.56
   3   3  30   12.38    1.87
   3  -3  30   11.46    1.76
   3   3  31   50.07    3.15
   3  -3  31   51.74    3.22
  -3  -4  30   21.60    2.25
  -3   4  30   17.20    1.88
  -3  -4  29   79.46    4.79
  -3   4  29   72.56    4.35
  -3  -4  29   70.30    4.84
  -3  -4  28   39.05    3.58
  -3   4  28   35.16    3.12
  -3  -4  28   41.76    3.86
  -3   4  27   99.67    5.90
  -3  -4  27   99.43    6.29
  -3  -4  27   98.90    6.58
  -3  -4  26   26.14    3.49
  -3   4  26   21.25    2.92
  -3  -4  26   21.14    3.46
  -3   4  25   62.52    4.81
  -3  -4  25   49.98    4.48
  -3  -4  25   62.12    5.18
  -3   4  24   85.87    6.01
  -3  -4  24   90.88    6.84
  -3  -4  24   98.78    6.73
  -3  -4  24   79.14    5.92
  -3  -4  23  343.10   17.16
  -3  -4  23  404.08   17.91
  -3   4  23  381.36   17.28
  -3  -4  23  408.02   18.17
  -3  -4  22  139.51    8.93
  -3   4  22  148.24    8.79
  -3  -4  22  173.35    9.56
   3  -4 -22  137.78   11.27
   3   4 -22  141.18   11.46
  -3  -4  22  164.54    9.63
  -3  -4  21  252.47   12.62
  -3   4  21  225.96   11.83
   3   4 -21  220.50   14.84
   3  -4 -21  212.45   14.78
  -3  -4  21  259.96   12.69
  -3  -4  21  217.36   12.17
  -3  -4  20   65.99    5.71
  -3   4  20   63.45    5.21
   3  -4 -20   59.21    7.09
   3   4 -20   53.07    6.81
  -3  -4  20   68.08    5.78
  -3  -4  20   64.17    5.68
  -3  -4  19   29.78    4.08
  -3  -4  19   34.22    4.30
  -3   4  19   41.60    4.11
   3  -4 -19   34.72    5.75
  -3  -4  19   38.47    4.32
   3   4 -19   37.52    5.82
   3  -4 -19   36.27    5.59
  -3  -4  18    2.55    2.48
   3  -4 -18    8.62    3.49
  -3  -4  18    7.49    2.66
  -3   4  18    2.98    1.91
   3   4 -18    5.03    3.22
  -3  -4  18    3.19    2.49
   3  -4 -18    4.16    2.81
  -3  -4  17   30.21    3.89
  -3  -4  17   28.36    3.90
  -3   4  17   30.49    3.46
   3  -4 -17   21.86    4.62
   3   4 -17   30.24    5.13
   3  -4 -17   27.19    4.72
  -3  -4  17   28.33    3.70
   3   4 -16   70.65    7.50
  -3  -4  16   75.58    5.94
   3  -4 -16   75.33    7.63
  -3  -4  16   74.59    5.83
  -3  -4  16   76.79    5.87
   3  -4 -16   73.22    7.60
   3  -4 -15   99.29    8.46
  -3  -4  15   98.62    6.73
  -3  -4  15  103.23    6.76
   3  -4 -15   92.49    8.38
  -3  -4  15  101.90    6.63
  -3  -4  15   98.22    6.68
   3   4 -15   89.00    8.12
   3   4 -14   12.86    3.62
   3  -4 -14    8.88    3.28
  -3  -4  14    5.41    2.32
   3  -4 -14    7.94    2.94
  -3  -4  14    8.44    2.30
  -3  -4  14    8.85    2.46
  -3  -4  14    9.24    2.42
  -3  -4  13   19.36    3.09
  -3  -4  13   21.52    3.11
  -3  -4  13   19.77    2.91
   3  -4 -13   29.04    4.49
  -3  -4  13   19.62    2.86
  -3  -4  12   24.72    3.13
  -3  -4  12   26.17    3.42
  -3  -4  12   29.14    3.31
   3  -4 -12   28.07    4.34
  -3  -4  12   25.64    3.15
  -3  -4  11  181.39    9.49
   3  -4 -11  195.96   11.67
   3  -4 -10   55.00    5.60
   3  -4  -9  145.93    9.62
   3  -4  -8  102.26    7.77
  -3   4   7  259.09   11.60
  -3  -4   7  247.08   11.54
  -3   4   7  277.30   13.55
  -3  -4   7  274.83   13.56
  -3  -4   6   43.49    3.31
  -3   4   6   44.70    4.39
  -3   4   6   41.72    3.20
  -3  -4   5  102.64    5.77
  -3   4   5  128.06    6.04
  -3   4   5  127.58    7.59
  -3  -4   5  105.72    7.12
  -3   4   4  138.16    6.74
  -3  -4   4  137.15    6.73
  -3   4   4  143.11    8.12
  -3  -4   4  139.72    8.13
  -3   4   3  882.63   34.23
  -3   4   3  942.37   36.04
  -3  -4   3  862.52   34.21
  -3  -4   3  906.98   35.96
  -3   4   2  395.91   17.82
  -3  -4   2  409.45   17.99
  -3   4   1  969.11   38.06
  -3  -4   1  932.07   37.96
  -3  -4   0  319.52   14.86
   3   4   0  340.90   14.96
   3  -4   0  327.95   14.93
  -3   4   0  297.62   14.62
   3   4   1  161.05    8.76
   3  -4   1  187.19    9.15
  -3   4  -1  169.54    8.93
  -3   4  -2  103.43    7.28
  -3  -4  -2  119.23    7.62
  -3   4  -3  201.75   10.40
  -3  -4  -3  164.46    9.86
   3   4   3  183.71    9.90
   3  -4   3  217.21   10.32
   3  -4   4   93.45    6.30
  -3   4  -4   97.02    6.54
  -3  -4  -4   95.91    6.46
  -3   4  -5  803.95   32.90
  -3  -4  -5  792.11   32.84
  -3  -4  -6  134.25    6.91
  -3   4  -6  132.51    6.81
  -3   4  -6  136.70    8.37
  -3  -4  -6  151.37    8.59
  -3  -4  -7  192.71    9.20
  -3   4  -7  195.80    9.14
  -3   4  -7  203.78   10.89
  -3  -4  -7  191.29   10.69
  -3  -4  -8   51.79    3.82
  -3   4  -8   49.33    3.72
  -3   4  -8   47.40    4.89
  -3  -4  -8   53.01    5.16
  -3  -4  -9   22.08    2.64
  -3   4  -9   26.36    2.74
  -3  -4  -9   17.73    3.43
  -3   4  -9   29.53    3.99
  -3  -4 -10   16.39    2.58
  -3   4 -10   19.05    2.54
  -3   4 -10   18.44    3.61
  -3  -4 -10   15.20    3.47
  -3   4 -11   17.54    2.34
  -3  -4 -11    8.03    2.20
  -3   4 -11   13.29    2.34
  -3   4 -11   17.00    3.71
  -3  -4 -11    4.36    2.85
  -3   4 -12   20.38    2.67
  -3  -4 -12   23.66    2.94
  -3   4 -12   22.59    2.87
  -3   4 -12   26.08    4.10
  -3  -4 -12   22.44    3.96
   3  -4  12   22.70    5.12
  -3   4 -13   43.95    3.92
  -3  -4 -13   49.91    4.21
  -3   4 -13   45.75    4.04
   3  -4  13   50.65    6.72
   3   4  13   47.19    4.20
   3  -4  13   43.87    4.04
  -3   4 -13   46.21    5.41
  -3  -4 -13   52.59    5.69
   3  -4  14    5.41    2.17
  -3  -4 -14    8.08    2.32
  -3   4 -14    4.16    2.02
  -3  -4 -14    6.48    3.04
  -3   4 -14    5.41    3.19
   3  -4  14    8.90    3.72
  -3   4 -14    6.17    2.00
   3   4  14    7.62    2.27
   3   4  15   17.61    2.82
   3  -4  15   22.27    3.10
  -3  -4 -15   17.87    3.15
  -3   4 -15   18.32    3.10
  -3   4 -15   24.68    4.56
  -3  -4 -15   15.03    4.03
   3  -4  15   23.46    4.77
   3  -4  16    0.99    2.03
   3   4  16    2.75    2.05
  -3  -4 -16   -1.46    2.50
  -3   4 -16   -2.05    2.35
  -3   4 -16   -5.33    3.25
  -3  -4 -16    0.41    2.85
   3  -4  16    3.31    2.91
   3   4  17    2.22    1.94
   3  -4  17    4.84    2.14
  -3   4 -17    4.25    2.26
  -3   4 -17    0.86    1.96
  -3  -4 -17    4.77    2.97
  -3  -4 -17   -0.22    2.12
  -3   4 -17    0.43    2.65
  -3   4 -18   35.07    4.00
  -3  -4 -18   36.86    4.17
  -3   4 -18   33.92    4.15
  -3   4 -18   30.30    5.30
  -3  -4 -18   32.66    5.37
   3   4  18   39.08    4.04
   3  -4  18   40.12    4.12
  -3   4 -19   91.71    6.53
  -3  -4 -19   80.01    6.57
  -3   4 -19   98.38    6.86
   3   4  19   99.33    6.60
   3  -4  19   90.08    6.51
  -3   4 -19   93.39    8.97
  -3  -4 -19   82.25    8.53
  -3   4 -20   27.23    3.74
  -3  -4 -20   27.34    3.93
  -3   4 -20   23.98    3.71
  -3   4 -20   17.36    4.81
  -3  -4 -20   19.62    4.81
   3   4  20   22.60    3.54
   3  -4  20   27.42    3.74
  -3  -4 -21   49.97    5.14
  -3   4 -21   73.25    5.85
   3   4  21   52.97    5.00
   3  -4  21   65.68    5.34
  -3   4 -21   52.29    6.84
  -3  -4 -21   54.21    7.04
  -3   4 -21   66.81    5.41
  -3   4 -22   37.78    4.17
  -3  -4 -22   35.38    4.44
  -3   4 -22   32.09    4.32
  -3   4 -22   31.27    5.43
  -3  -4 -22   30.00    5.58
   3   4  22   44.23    4.42
   3  -4  22   32.45    4.11
  -3   4 -23  112.48    7.04
  -3  -4 -23   94.12    6.93
  -3   4 -23  110.45    7.26
   3   4  23   95.65    6.74
   3  -4  23   99.54    6.80
  -3   4 -24   38.64    3.92
  -3  -4 -24   29.07    3.84
  -3   4 -24   36.30    4.04
   3   4  24   38.64    4.06
   3  -4  24   39.81    4.07
  -3   4 -25  130.19    7.95
   3   4  25  148.05    8.01
   3  -4  25  146.20    8.03
  -3  -4 -26   77.74    5.54
  -3   4 -26   78.98    5.54
   3   4  26   84.43    5.53
   3  -4  26   79.00    5.45
   3  -4  26   75.91    5.06
   3  -4  27  154.49    7.71
  -3  -4 -27  150.72    8.24
  -3   4 -27  145.67    8.19
   3   4  27  168.43    8.27
   3  -4  27  162.52    8.25
   3  -4  28   24.62    2.22
  -3  -4 -28   21.46    2.56
  -3   4 -28   17.40    2.43
  -3  -4 -28   22.30    2.87
   3   4  28   22.54    2.54
   3  -4  28   28.71    2.70
  -3  -4 -29   28.32    2.82
   3   4  29   35.23    2.72
   3  -4  29   37.14    2.89
   3   4  30    6.20    1.50
   3   4  30    6.19    1.22
   3   4  31   23.40    2.02
  -3  -5  30   13.42    1.82
  -3  -5  29    6.53    1.72
  -3  -5  28    2.18    1.31
  -3  -5  28    3.91    1.84
  -3  -5  27    0.76    1.86
  -3  -5  27    0.13    1.39
  -3  -5  26    3.36    1.88
  -3  -5  26    4.43    2.36
   3  -5 -26    4.19    1.64
  -3  -5  25   29.18    3.20
  -3   5  25   23.32    2.73
   3  -5 -25   26.87    3.09
  -3  -5  25   29.68    3.90
  -3  -5  24   62.36    4.97
  -3   5  24   55.32    4.35
  -3  -5  24   70.67    5.71
  -3   5  23   81.36    5.42
  -3  -5  23   92.14    6.19
  -3  -5  23   87.43    6.37
  -3  -5  22  133.56    7.78
  -3   5  22  113.65    6.87
  -3  -5  22  130.30    8.04
  -3  -5  21  185.85   10.39
  -3  -5  21  192.86   10.30
  -3  -5  21  163.11    9.61
  -3  -5  20   92.37    6.91
   3  -5 -20   84.00    8.56
  -3  -5  20  119.51    7.62
  -3  -5  20  105.03    7.50
  -3  -5  20  103.31    7.34
  -3  -5  19   52.96    5.42
   3  -5 -19   75.11    7.62
   3  -5 -19   72.97    8.30
  -3  -5  19   77.76    6.10
  -3  -5  19   73.74    6.10
  -3  -5  18  109.71    7.61
  -3  -5  18  115.54    7.84
   3  -5 -18  105.57    9.91
   3  -5 -18  107.71    9.24
  -3  -5  18  119.98    7.89
   3   5 -17  494.94   25.42
  -3  -5  17  547.98   23.15
   3  -5 -17  517.29   25.45
  -3  -5  17  514.68   22.86
  -3  -5  17  514.93   22.88
   3  -5 -17  522.00   26.91
   3   5 -16  609.83   28.28
  -3  -5  16  618.90   25.61
   3  -5 -16  560.37   27.69
  -3  -5  16  554.24   25.25
  -3  -5  16  604.21   25.45
   3  -5 -16  563.92   28.88
  -3  -5  16  600.76   25.37
  -3  -5  15  791.55   31.99
  -3  -5  15  742.91   31.85
  -3  -5  15  762.85   31.77
   3   5 -15  779.82   34.60
   3  -5 -15  779.98   35.56
   3  -5 -15  717.14   34.05
  -3  -5  15  794.21   31.84
  -3  -5  14  576.64   25.47
   3  -5 -14  558.72   27.48
  -3  -5  14  601.92   25.47
  -3  -5  14  624.35   25.50
   3  -5 -14  621.09   28.96
  -3  -5  14  595.08   25.27
   3   5 -14  576.55   27.83
   3  -5 -13  677.33   30.86
  -3  -5  13  672.60   28.61
  -3  -5  13  690.35   28.75
  -3  -5  13  695.11   28.59
  -3  -5  13  692.19   28.56
   3  -5 -13  712.56   32.09
   3   5 -13  680.44   30.99
  -3  -5  12  345.94   16.54
  -3  -5  12  378.57   16.71
  -3  -5  12  386.32   17.05
   3  -5 -12  384.73   19.66
  -3  -5  12  361.03   16.58
   3   5 -12  380.83   18.93
   3  -5 -12  332.26   18.32
  -3  -5  11  416.18   19.09
  -3  -5  11  463.79   19.37
  -3  -5  11  443.08   19.42
   3  -5 -11  483.47   22.67
  -3  -5  11  427.34   19.15
  -3  -5  10  484.79   19.53
  -3  -5  10  429.96   19.17
   3  -5 -10  463.00   22.25
   3  -5 -10  433.27   21.77
  -3  -5  10  455.18   19.54
  -3  -5  10  420.71   19.17
  -3  -5   9  749.22   30.78
   3  -5  -9  820.66   34.14
   3  -5  -9  730.54   33.61
   3  -5  -8  374.07   19.11
   3  -5  -7  388.75   19.70
   3  -5  -6  347.58   17.90
  -3  -5   5  313.61   13.58
  -3   5   5  341.88   15.33
  -3  -5   5  338.61   15.39
  -3   5   4   80.55    5.70
  -3  -5   4   88.53    5.94
  -3   5   3   49.95    4.16
  -3  -5   3   36.87    3.85
  -3   5   2   37.07    3.67
  -3  -5   2   47.90    4.26
   3   5  -2   45.82    4.09
   3  -5  -2   38.79    3.91
  -3   5   1   40.41    3.73
  -3  -5   1   40.85    3.88
   3   5  -1   42.65    3.79
   3  -5  -1   49.24    4.02
   3   5   0    7.26    1.87
   3  -5   0    9.23    2.07
  -3   5   0    6.58    1.90
  -3  -5   0    7.48    1.99
  -3  -5  -1  190.10    9.78
  -3   5  -1  177.21    9.56
   3   5   1  190.19    9.54
   3  -5   1  199.91    9.74
   3   5   2  210.09   10.52
   3  -5   2  210.98   10.60
  -3  -5  -2  231.35   10.97
  -3   5  -2  212.45   10.75
  -3  -5  -3  215.85   10.83
  -3   5  -3  212.01   10.77
  -3  -5  -4  133.95    7.73
  -3   5  -4  118.53    7.48
  -3   5  -5  209.99   10.77
  -3  -5  -5  190.16   10.45
  -3   5  -6  165.49    9.59
  -3  -5  -6  174.34    9.64
  -3   5  -7  335.80   16.01
  -3  -5  -7  333.39   15.98
  -3  -5  -8  308.02   13.96
  -3   5  -8  296.65   13.82
  -3  -5  -8  325.36   13.70
  -3   5  -8  291.16   15.19
  -3  -5  -8  334.55   15.65
  -3  -5  -9  461.58   20.99
  -3  -5  -9  505.34   20.84
   3  -5   9  561.64   27.22
  -3   5  -9  508.79   21.17
  -3   5  -9  537.42   23.06
  -3  -5  -9  533.59   23.03
  -3  -5  -9  495.20   22.46
  -3  -5 -10  388.78   17.06
  -3  -5 -10  400.43   16.79
   3  -5  10  408.60   22.49
  -3   5 -10  383.94   18.70
  -3  -5 -10  410.90   18.98
  -3  -5 -10  399.19   18.29
  -3   5 -10  359.96   16.75
  -3   5 -11  506.46   21.40
  -3  -5 -11  509.21   21.24
  -3   5 -11  515.20   21.18
   3  -5  11  580.46   27.75
  -3   5 -11  497.21   23.36
  -3  -5 -11  518.10   23.52
  -3  -5 -11  472.79   22.40
  -3   5 -12  347.95   16.12
  -3  -5 -12  390.59   16.38
  -3   5 -12  372.15   16.12
   3  -5  12  387.53   21.79
   3  -5  12  319.96   15.97
  -3   5 -12  367.42   18.58
  -3  -5 -12  400.42   18.91
  -3  -5 -12  376.84   17.39
  -3  -5 -13  511.36   21.96
  -3   5 -13  552.82   22.12
   3  -5  13  556.13   27.89
  -3   5 -13  526.78   22.16
   3  -5  13  489.79   21.93
  -3   5 -13  526.49   24.82
  -3  -5 -13  492.06   24.40
  -3   5 -14  333.98   14.83
  -3   5 -14  310.65   14.64
  -3  -5 -14  343.46   14.92
   3  -5  14  304.56   19.18
   3  -5  14  299.97   14.49
  -3   5 -14  270.72   17.00
  -3  -5 -14  302.57   17.36
  -3  -5 -15  227.65   11.74
  -3   5 -15  244.18   11.86
   3  -5  15  227.81   15.76
   3  -5  15  230.64   11.56
  -3   5 -15  223.80   14.50
  -3  -5 -15  214.62   13.94
  -3   5 -16   61.80    5.78
   3  -5  16   49.98    7.36
   3  -5  16   65.13    5.42
  -3   5 -16   58.16    7.78
  -3  -5 -16   71.03    8.28
  -3  -5 -17   94.80    6.84
  -3   5 -17  110.54    6.99
  -3   5 -17   98.35    6.87
   3   5  17   95.46    6.40
   3  -5  17  103.47    6.69
  -3   5 -17   87.23    8.83
  -3  -5 -17   75.73    8.18
  -3   5 -18  180.42   10.01
  -3  -5 -18  187.63   10.17
   3   5  18  181.59    9.70
   3  -5  18  184.22    9.80
  -3   5 -18  180.15   10.04
  -3   5 -19  249.83   12.63
  -3   5 -19  254.06   12.82
  -3  -5 -19  249.62   12.79
   3   5  19  273.73   12.63
   3  -5  19  248.61   12.46
  -3  -5 -20  142.84    8.65
  -3   5 -20  140.59    8.65
  -3   5 -20  145.01    8.64
   3   5  20  151.26    8.44
   3  -5  20  151.06    8.54
  -3  -5 -20  117.00   10.46
  -3   5 -21   87.33    6.28
  -3  -5 -21   86.24    6.42
  -3   5 -21   85.14    6.38
   3   5  21   88.88    6.09
   3  -5  21   93.97    6.27
  -3   5 -22   56.89    4.78
  -3  -5 -22   50.69    4.75
  -3   5 -22   47.22    4.71
   3   5  22   59.66    4.78
   3  -5  22   50.74    4.57
  -3   5 -23   19.52    3.00
  -3  -5 -23   23.24    3.08
  -3   5 -23   19.75    3.03
   3   5  23   17.71    2.79
   3  -5  23   16.29    2.80
  -3   5 -24    2.67    1.81
  -3  -5 -24    2.15    1.85
  -3   5 -24    0.33    1.76
   3   5  24    3.54    1.79
   3  -5  24    0.15    1.70
  -3  -5 -25    6.39    1.78
   3   5  25    5.27    1.74
   3  -5  25    3.69    1.67
   3  -5  26    1.40    1.59
  -3  -5 -26    2.33    1.36
  -3  -5 -26   -0.18    1.91
   3   5  26    2.26    1.41
   3  -5  27    0.32    1.38
  -3  -5 -27   -0.58    1.51
   3  -5  28    0.33    1.15
  -3  -5 -28    0.74    1.23
   3  -5  29   14.94    1.53
   3   5  29   12.89    1.87
   3   5  30   16.18    1.79
  -3  -6  29   17.00    2.04
  -3  -6  28   68.38    4.47
  -3  -6  27   27.56    3.08
   3  -6 -26   33.44    3.11
  -3  -6  26   45.10    3.97
   3  -6 -25   59.12    4.28
  -3  -6  25   53.60    4.79
  -3  -6  24  115.26    6.98
   3  -6 -24  133.68    7.51
  -3  -6  24  138.58    8.02
  -3  -6  23   14.70    2.60
   3  -6 -23   16.28    2.96
  -3  -6  23   10.37    3.22
  -3  -6  22   29.09    3.52
   3  -6 -22   24.43    3.42
  -3  -6  22   26.63    3.92
  -3  -6  21   50.00    4.21
  -3  -6  21   55.93    4.80
  -3  -6  20  154.49    8.96
  -3  -6  20  128.47    7.78
  -3  -6  20  148.70    8.50
  -3  -6  19    3.73    2.61
  -3  -6  19    0.49    2.42
   3  -6 -19    8.32    4.16
  -3  -6  19    5.63    2.95
  -3  -6  18  135.95    8.41
  -3  -6  18  146.92    8.77
   3  -6 -18  137.33   11.64
  -3  -6  18  155.50    9.08
  -3  -6  17   55.23    5.01
  -3  -6  17   40.40    4.33
   3  -6 -17   53.03    7.22
  -3  -6  17   52.04    4.99
  -3  -6  17   50.26    4.64
  -3  -6  16    0.64    2.15
  -3  -6  16    1.17    1.84
   3  -6 -16    2.92    2.93
  -3  -6  16    1.32    1.81
  -3  -6  16    0.83    2.19
  -3  -6  15    6.86    2.55
   3  -6 -15    1.88    2.88
  -3  -6  15    5.72    2.20
  -3  -6  15    3.46    2.21
  -3  -6  15    4.90    2.41
  -3  -6  14   24.81    3.47
  -3  -6  14   18.97    3.18
  -3  -6  14   25.80    3.29
   3  -6 -14   27.84    5.02
  -3  -6  14   31.14    3.72
  -3  -6  13   13.64    2.73
  -3  -6  13   14.65    2.78
  -3  -6  13   13.18    2.51
   3  -6 -13    9.49    3.64
  -3  -6  13   17.11    2.93
  -3  -6  12   42.38    4.18
  -3  -6  12   46.19    4.06
  -3  -6  12   43.91    4.22
   3  -6 -12   47.53    5.99
  -3  -6  12   40.84    4.10
  -3  -6  12   44.44    4.24
  -3  -6  11  135.53    7.88
  -3  -6  11  135.71    8.07
   3  -6 -11  140.87   10.65
  -3  -6  11  146.46    8.18
  -3  -6  11  138.44    7.84
  -3  -6  11  135.99    7.92
  -3  -6  10  158.08    8.81
  -3  -6  10  172.60    9.05
  -3  -6  10  163.59    9.17
   3  -6 -10  182.85   12.06
  -3  -6  10  172.68    9.29
  -3  -6   9   56.22    4.36
  -3  -6   9   56.25    4.60
   3  -6  -9   67.73    7.02
  -3  -6   9   62.49    4.95
   3  -6  -9   56.93    6.48
  -3  -6   9   60.85    4.78
  -3  -6   9   49.82    4.81
  -3  -6   8  121.42    7.04
  -3  -6   8  133.05    7.50
   3  -6  -8  147.97   10.43
  -3  -6   8  131.78    7.77
   3  -6  -8  136.64   10.46
  -3  -6   8  135.33    7.58
  -3  -6   8  130.87    8.19
  -3  -6   7  261.69   12.52
  -3  -6   7  273.57   13.17
   3  -6  -7  285.21   16.49
  -3  -6   7  273.72   12.68
  -3  -6   7  276.43   13.59
  -3  -6   6  266.25   12.55
  -3  -6   6  286.22   13.27
   3  -6  -6  258.70   16.24
  -3  -6   6  273.06   13.61
   3  -6  -5  137.78   10.83
  -3  -6   5  116.83    8.30
  -3  -6   5  125.27    7.11
  -3  -6   4  196.81    9.49
  -3  -6   4  176.07    9.32
   3  -6  -4  171.46   13.05
  -3  -6   4  194.46   10.86
  -3  -6   3  120.92    6.79
  -3  -6   3  114.72    6.62
   3  -6  -3  118.75   10.48
  -3  -6   3  114.78    7.88
  -3  -6   2   61.17    4.27
   3  -6  -2   56.54    7.47
  -3  -6   2   44.41    3.93
  -3  -6   2   54.66    5.28
  -3  -6   1   18.95    3.84
   3  -6  -1   25.76    5.97
  -3  -6   1   18.14    2.56
   3  -6   0   80.70    9.20
  -3  -6   0   90.96    5.63
  -3  -6  -1   58.18    4.26
   3  -6   1   56.30    7.67
  -3  -6  -1   54.64    4.86
  -3  -6  -2   59.18    4.34
   3  -6   2   57.42    7.93
  -3  -6  -2   59.77    5.18
  -3  -6  -2   44.00    5.28
   3  -6   3  247.81   16.29
  -3  -6  -3  239.96   12.35
  -3  -6  -3  218.98   12.58
   3  -6   4  912.87   41.28
  -3  -6  -4  907.30   36.37
  -3  -6  -4  837.88   36.51
  -3  -6  -5  353.44   17.22
  -3  -6  -6   62.60    4.72
  -3  -6  -6   62.42    6.04
  -3  -6  -7    9.66    3.79
  -3  -6  -7   15.81    2.80
   3  -6   7   19.56    6.20
  -3  -6  -8   83.56    5.52
  -3   6  -8   68.20    4.98
   3  -6   8   83.25    9.31
  -3  -6  -8   78.05    6.73
  -3  -6  -9   53.45    4.38
  -3   6  -9   46.43    4.02
   3  -6   9   43.08    7.24
  -3  -6  -9   41.05    4.91
  -3  -6 -10   23.60    3.98
  -3   6 -10   15.58    2.53
   3  -6  10   18.82    5.62
  -3  -6 -11    4.12    2.91
  -3   6 -11   14.06    2.50
   3  -6  11    2.23    4.49
  -3   6 -12   22.10    2.90
   3  -6  12   20.13    5.19
  -3  -6 -12   17.14    3.43
  -3  -6 -13    1.91    2.71
   3  -6  13    7.21    4.01
  -3   6 -13    5.72    2.11
   3  -6  13    5.52    1.94
  -3  -6 -14   15.49    3.20
  -3   6 -14   16.93    2.80
   3  -6  14    9.77    4.29
   3  -6  14   13.19    2.37
   3  -6  15   -0.52    3.32
   3  -6  15    0.63    1.69
  -3  -6 -16    3.27    1.69
   3  -6  16    1.49    3.30
   3  -6  16    2.25    1.74
  -3   6 -17   57.07    4.94
  -3  -6 -17   49.53    4.30
  -3   6 -18  257.78   12.24
  -3  -6 -18  214.97   11.43
  -3   6 -19   97.56    6.59
  -3   6 -20   93.63    6.37
  -3   6 -21   71.11    5.31
  -3   6 -22  140.08    8.04
  -3  -6 -22  158.14    9.65
  -3   6 -23   68.45    4.93
  -3  -6 -23   75.12    6.15
  -3  -6 -24  127.55    8.00
  -3  -6 -25  107.23    6.89
   3  -6  26  143.15    7.13
  -3  -6 -26  125.02    7.32
   3  -6  27   28.78    2.59
  -3  -6 -27   22.78    2.44
   3   6  28   10.03    1.59
   3  -6  28    8.13    1.41
   3   6  29    3.17    0.97
  -3  -7  28    0.98    1.21
  -3  -7  27    1.25    1.51
  -3  -7  26   56.08    4.21
   3  -7 -25    5.02    1.58
  -3  -7  25    5.85    2.24
   3  -7 -24   20.21    2.62
  -3  -7  24   16.73    2.96
   3  -7 -23    7.09    2.04
  -3  -7  23    4.98    2.47
   3  -7 -22   54.12    4.55
   3  -7 -21    9.90    2.50
   3  -7 -20  119.71    7.66
   3  -7 -19  139.37    8.56
  -3  -7  18  476.13   21.25
   3  -7 -18  513.46   21.78
  -3  -7  18  477.49   21.34
  -3  -7  17   84.62    6.28
  -3  -7  17   71.24    5.36
   3  -7 -17   81.33    8.84
   3  -7 -17   88.37    6.76
  -3  -7  17   84.58    6.48
  -3  -7  16   44.13    4.27
  -3  -7  16   42.88    4.78
   3  -7 -16   52.87    7.05
  -3  -7  16   49.74    4.89
  -3  -7  15    8.82    2.78
  -3  -7  15    5.97    2.26
   3  -7 -15    7.66    3.70
  -3  -7  15    6.85    2.69
  -3  -7  14   29.38    3.88
   3  -7 -14   30.27    5.74
  -3  -7  14   36.43    4.20
  -3  -7  14   28.80    3.72
   3  -7 -13    9.12    4.20
  -3  -7  13   17.61    3.05
  -3  -7  13   13.43    3.29
  -3  -7  13    0.59    3.15
  -3  -7  13    0.35    3.10
  -3  -7  12   62.96    5.50
  -3  -7  12   73.17    5.78
  -3  -7  12   60.15    5.29
  -3  -7  12   58.14    5.28
  -3  -7  11   12.15    3.22
  -3  -7  11    9.93    3.78
  -3  -7  11   18.58    3.29
  -3  -7  11   19.46    3.61
  -3  -7  10  157.30    8.87
  -3  -7  10  180.63    9.41
  -3  -7  10  169.49    9.61
  -3  -7  10  162.15    9.22
  -3  -7  10  145.64    9.47
  -3  -7   9   72.86    5.48
  -3  -7   9   82.71    6.08
  -3  -7   9   84.92    6.33
  -3  -7   9   92.06    6.25
  -3  -7   9   87.95    6.73
   3  -7  -8  214.25   11.26
  -3  -7   8  211.10   11.35
   3  -7  -8  226.83   14.37
  -3  -7   8  191.19   10.61
  -3  -7   8  216.91   11.63
  -3  -7   8  211.74   10.70
  -3  -7   7   57.33    4.69
   3  -7  -7   62.87    7.02
   3  -7  -7   61.55    5.19
  -3  -7   7   61.21    5.20
   3  -7  -7   65.94    7.54
  -3  -7   7   60.52    4.76
  -3  -7   7   58.25    5.52
  -3  -7   6  101.11    6.32
   3  -7  -6   93.80    6.41
  -3  -7   6   99.78    6.92
   3  -7  -6  102.98    9.63
   3  -7  -6  106.42    9.03
  -3  -7   6   98.66    6.27
  -3  -7   6   90.11    7.07
   3  -7  -5   23.76    4.87
  -3  -7   5   40.79    4.57
   3  -7  -5   12.58    4.54
  -3  -7   5   23.76    3.18
  -3  -7   5   37.37    3.93
  -3  -7   5   28.47    5.08
   3  -7  -5   17.09    3.35
   3  -7  -4   11.09    3.67
  -3  -7   4    6.17    3.41
   3  -7  -4   11.48    4.68
  -3  -7   4   12.34    2.74
   3  -7  -4    9.73    2.65
  -3  -7   3    5.06    2.93
   3  -7  -3    4.67    2.71
  -3  -7   3    4.24    2.03
  -3  -7   3    4.55    1.85
   3  -7  -3    2.35    1.71
   3  -7  -3    3.10    3.43
  -3  -7   3    3.10    2.30
  -3  -7   2    0.78    2.46
  -3  -7   2    2.36    1.68
  -3  -7   2    2.74    1.82
   3  -7  -2    0.53    3.75
  -3  -7   2    1.35    2.11
   3  -7  -2   -0.98    1.70
  -3  -7   1    6.14    3.09
  -3  -7   1    2.24    1.94
  -3  -7   1    2.06    2.37
  -3  -7   1    4.12    2.04
   3  -7  -1    2.75    4.08
   3  -7  -1    0.79    1.64
  -3  -7   0   41.94    3.85
  -3  -7   0   41.85    3.86
   3  -7   0   44.54    3.69
  -3  -7   0   44.99    4.60
   3  -7   0   44.83    7.37
  -3  -7  -1   19.83    2.66
  -3  -7  -1   16.24    2.56
   3  -7   1   18.08    2.43
   3  -7   1   16.22    5.41
  -3  -7  -1   20.53    3.40
  -3  -7  -2    4.42    3.21
  -3  -7  -2    3.63    1.97
  -3  -7  -2    6.69    1.92
   3  -7   2    4.63    4.55
  -3  -7  -2    7.00    2.61
  -3  -7  -3   11.40    2.37
  -3  -7  -3   13.76    3.54
  -3  -7  -3   10.66    2.15
   3  -7   3    7.54    4.37
  -3  -7  -3    9.60    2.92
  -3  -7  -4  210.44   10.48
  -3  -7  -4  202.22   10.28
   3  -7   4  219.94   15.88
  -3  -7  -4  202.31   12.02
  -3  -7  -5  126.86    7.48
  -3  -7  -5  127.40    7.37
   3  -7   5  144.94   12.80
  -3  -7  -5  123.34    8.74
  -3  -7  -6  121.09    7.09
  -3  -7  -6  114.55    8.45
  -3  -7  -7   37.31    3.87
  -3  -7  -7   42.08    5.03
  -3  -7  -7   45.34    5.41
  -3   7  -7   33.68    3.58
  -3   7  -8  288.57   13.67
   3  -7   8  277.52   19.22
  -3  -7  -8  270.95   13.42
  -3  -7  -8  310.06   15.58
  -3  -7  -9  168.61    9.37
   3  -7   9  195.43   15.23
  -3  -7  -9  213.02   11.86
  -3   7  -9  182.57    9.67
  -3  -7  -9  197.97   11.56
  -3  -7 -10  497.79   21.56
   3  -7  10  497.06   28.36
  -3   7 -10  509.00   21.99
  -3  -7 -10  560.00   24.51
  -3  -7 -10  535.64   23.80
  -3   7 -11  217.69   11.35
  -3  -7 -11  251.73   13.79
   3  -7  11  242.80   17.31
  -3  -7 -11  232.62   12.91
  -3   7 -12  588.68   25.50
   3  -7  12  605.62   32.03
  -3  -7 -12  636.10   28.13
  -3  -7 -12  622.13   27.13
  -3  -7 -13  109.82    8.99
   3  -7  13  118.83   11.49
   3  -7  13  124.54    7.15
  -3  -7 -13  113.88    8.24
  -3   7 -13  115.80    7.24
  -3   7 -14  100.69    6.77
  -3  -7 -14  113.09    8.97
   3  -7  14  104.44   10.94
   3  -7  14  111.51    6.80
  -3  -7 -14  107.51    7.71
  -3  -7 -15   41.36    5.87
   3  -7  15   43.95    3.93
  -3  -7 -15   40.01    4.60
  -3   7 -16  192.93   10.66
  -3  -7 -16  221.47   13.16
   3  -7  16  212.74   10.63
  -3   7 -17   42.56    4.35
  -3  -7 -17   40.76    5.83
   3  -7  17   46.81    4.21
  -3   7 -18   85.01    5.98
   3  -7  18   79.20    5.67
  -3   7 -19    7.41    2.31
  -3  -7 -19    3.95    3.42
   3  -7  19    8.17    2.11
  -3   7 -20   36.06    3.54
  -3  -7 -20   39.19    4.95
  -3  -7 -21   -0.24    2.22
  -3  -7 -22   27.28    3.66
  -3  -7 -23    3.35    2.21
  -3  -7 -24   19.47    2.76
  -3  -7 -25    1.12    1.56
   3  -7  26    2.18    1.45
   3  -7  27    5.40    1.28
   3   7  27    1.45    0.93
   3  -7  28   22.81    1.83
  -3  -8  27   23.89    2.25
  -3  -8  26  238.48   10.59
   3  -8 -25   30.81    2.57
  -3  -8  25   42.42    3.49
   3  -8 -24  292.92   12.74
  -3  -8  24  300.24   13.33
   3  -8 -23   49.75    3.81
   3  -8 -22  331.15   14.72
   3  -8 -21   26.73    3.20
   3  -8 -20   72.00    5.54
  -3  -8  20   76.34    5.84
   3  -8 -19   -0.19    2.17
  -3  -8  19    1.53    2.25
   3  -8 -18   12.76    3.02
  -3  -8  18   14.60    3.18
  -3  -8  17    2.01    2.28
  -3  -8  16   15.85    3.18
  -3  -8  15    0.41    2.09
  -3  -8  14   42.35    3.83
   3  -8 -14   48.11    5.12
  -3  -8  14   43.66    4.53
  -3  -8  13   21.20    2.91
  -3  -8  13   23.06    3.62
  -3  -8  13   23.56    3.31
   3  -8 -13   20.94    3.67
  -3  -8  12   63.70    5.09
  -3  -8  12   70.11    6.00
   3  -8 -12   78.43    6.38
  -3  -8  12   70.64    5.58
   3  -8 -11   13.26    3.95
  -3  -8  11    9.79    2.91
  -3  -8  11   10.11    2.53
  -3  -8  11   10.38    2.76
   3  -8 -11    6.75    2.98
  -3  -8  10   70.82    5.46
   3  -8 -10   67.85    6.02
   3  -8 -10   61.88    7.69
  -3  -8  10   70.22    6.04
  -3  -8  10   78.63    5.72
  -3  -8  10   62.93    5.56
  -3  -8   9   13.45    3.31
  -3  -8   9   15.70    3.00
   3  -8  -9   17.86    3.49
   3  -8  -9   23.01    4.91
  -3  -8   9   22.12    3.52
  -3  -8   9   26.95    3.52
  -3  -8   8  129.81    7.68
   3  -8  -8  118.84    8.00
   3  -8  -8  122.46   10.59
  -3  -8   8  133.66    8.51
  -3  -8   8  113.43    7.54
  -3  -8   8  120.12    8.38
   3  -8  -7   46.84    4.89
   3  -8  -7   46.87    6.59
  -3  -8   7   58.66    5.45
   3  -8  -7   54.32    7.10
  -3  -8   7   42.18    4.59
  -3  -8   7   45.49    5.44
  -3  -8   7   51.89    5.02
  -3  -8   6  506.76   20.09
   3  -8  -6  419.94   23.40
   3  -8  -6  447.04   20.20
  -3  -8   6  465.98   21.09
   3  -8  -6  402.35   24.06
  -3  -8   6  461.15   20.13
  -3  -8   6  437.77   19.73
  -3  -8   6  440.35   21.10
   3  -8  -5   78.08    7.79
   3  -8  -5   63.87    5.34
  -3  -8   5   69.18    5.21
  -3  -8   5   64.16    5.75
   3  -8  -5   54.22    7.55
  -3  -8   5   57.83    4.98
  -3  -8   5   68.86    6.32
   3  -8  -4  273.59   16.75
  -3  -8   4  293.26   13.51
  -3  -8   4  282.36   14.61
   3  -8  -4  262.57   17.96
   3  -8  -4  263.95   13.47
  -3  -8   4  311.75   15.35
   3  -8  -3   77.27    9.17
  -3  -8   3   88.25    6.14
  -3  -8   3   89.02    5.92
   3  -8  -3   83.65    5.94
  -3  -8   3   88.63    6.92
   3  -8  -3   89.44    8.35
  -3  -8   3   81.80    7.20
   3  -8  -2  940.46   41.24
  -3  -8   2  930.45   37.40
   3  -8  -2  932.98   37.36
  -3  -8   2  965.20   38.87
   3  -8  -2  934.61   44.05
  -3  -8   2  943.25   39.26
  -3  -8   2  894.14   37.06
  -3  -8   1  175.07    9.30
   3  -8  -1  172.82   11.92
   3  -8  -1  149.62    8.83
  -3  -8   1  181.75   10.56
   3  -8  -1  159.38   13.83
  -3  -8   1  161.32    8.91
  -3  -8   1  179.41   11.16
  -3  -8   0  632.95   24.95
   3  -8   0  577.39   28.03
   3  -8   0  533.02   24.24
  -3  -8   0  604.85   26.18
   3  -8   0  536.20   30.81
  -3  -8   0  573.86   26.82
  -3  -8   0  612.93   24.70
  -3  -8  -1   81.83    5.55
  -3  -8  -1   67.26    5.40
   3  -8   1   55.87    4.78
   3  -8   1   52.82    9.09
  -3  -8  -1   82.60    6.68
  -3  -8  -2  341.87   14.64
   3  -8   2  268.03   13.63
  -3  -8  -2  315.54   15.79
   3  -8   2  228.40   19.12
  -3  -8  -2  336.28   14.61
  -3  -8  -3   36.33    5.46
  -3  -8  -3   41.01    4.05
  -3  -8  -3   30.14    3.84
  -3  -8  -4  322.33   15.14
  -3  -8  -4  323.64   15.07
   3  -8   4  299.48   21.00
  -3  -8  -4  338.32   17.25
  -3  -8  -5  121.80    7.52
   3  -8   5  110.22   11.89
  -3  -8  -5  130.83    7.74
  -3  -8  -5  116.03    9.19
  -3   8  -6  870.52   36.30
  -3  -8  -6  904.01   36.52
  -3  -8  -6  902.95   36.32
  -3  -8  -6  939.75   38.29
  -3  -8  -6  904.83   38.40
  -3   8  -7  113.52    7.01
  -3  -8  -7  123.67    8.70
  -3  -8  -7  102.80    6.88
  -3  -8  -7  116.28    8.85
  -3  -8  -8  234.71   11.87
  -3   8  -8  233.07   11.89
  -3  -8  -8  274.02   14.15
   3  -8   8  250.24   18.25
  -3  -8  -8  245.09   13.78
  -3   8  -9   31.70    3.61
  -3  -8  -9   32.69    3.59
  -3  -8  -9   35.58    5.08
   3  -8   9   30.38    6.71
  -3  -8  -9   41.78    5.13
  -3   8 -10  104.22    6.63
  -3  -8 -10  105.66    6.51
  -3  -8 -10  117.38    8.79
   3  -8  10   83.76   10.44
  -3  -8 -10  110.06    8.21
  -3  -8 -11   19.79    3.85
  -3   8 -11   13.05    2.49
  -3  -8 -11   11.21    2.19
   3  -8  11   11.23    4.98
  -3  -8 -11   12.37    3.83
  -3  -8 -12    5.96    3.12
  -3   8 -12    2.86    1.89
   3  -8  12    0.61    4.15
  -3  -8 -12    4.21    3.70
   3  -8  12    6.83    2.29
  -3  -8 -13    1.57    2.77
  -3   8 -13    0.53    1.66
  -3  -8 -13    2.64    3.24
   3  -8  13   -0.18    1.96
  -3  -8 -14   53.48    6.41
   3  -8  14   55.55    4.62
  -3  -8 -14   50.08    5.31
  -3  -8 -15   15.36    3.33
  -3  -8 -15   11.28    3.88
   3  -8  15   14.43    2.79
  -3  -8 -16  103.89    8.30
   3  -8  16   96.83    6.44
  -3  -8 -17    6.11    3.23
   3  -8  17   12.16    2.58
  -3  -8 -18  134.34    8.90
   3  -8  18  116.51    7.04
  -3  -8 -19   37.04    4.57
   3  -8  19   29.09    3.17
  -3  -8 -20  322.36   15.06
   3  -8  20  283.75   12.98
  -3  -8 -21   45.27    4.56
  -3  -8 -22  255.55   12.37
  -3  -8 -23   31.72    3.22
  -3  -8 -24  178.94    8.50
   3  -8  25   37.07    2.95
   3  -8  26  202.76    8.82
   3  -9 -24    7.99    1.27
   3  -9 -23    1.32    1.11
   3  -9 -22   40.19    3.15
   3  -9 -21    2.02    1.41
  -3  -9  21    3.38    1.95
   3  -9 -20  124.41    6.95
  -3  -9  20  121.64    7.11
   3  -9 -19    9.77    2.24
  -3  -9  19    8.68    2.45
   3  -9 -18   93.16    6.25
  -3  -9  18   92.56    6.27
  -3  -9  17    4.14    2.23
  -3  -9  16   33.59    3.97
  -3  -9  15    2.06    2.27
   3  -9 -14  176.62   10.10
  -3  -9  14  164.94    9.38
  -3  -9  13   11.64    2.85
   3  -9 -13   12.26    3.26
  -3  -9  12  119.77    8.23
  -3  -9  12  116.92    7.55
   3  -9 -12  137.56    8.49
  -3  -9  11    6.71    2.21
   3  -9 -11    6.65    2.85
   3  -9 -11    9.10    3.57
  -3  -9  11    9.47    2.87
  -3  -9  11    6.07    2.51
   3  -9 -10  221.42   11.36
   3  -9 -10  182.63   13.62
  -3  -9  10  197.25   11.31
  -3  -9  10  197.83   10.45
  -3  -9  10  200.15   10.79
  -3  -9  10  160.35    9.61
  -3  -9   9   19.13    3.14
  -3  -9   9   20.00    3.71
   3  -9  -9   19.22    4.54
  -3  -9   9   23.41    3.91
  -3  -9   9   14.63    3.12
   3  -9  -9   27.82    3.92
  -3  -9   8  218.96   11.37
   3  -9  -8  239.11   12.20
   3  -9  -8  208.50   14.67
  -3  -9   8  240.20   12.80
  -3  -9   8  214.74   11.43
  -3  -9   8  219.90   12.39
  -3  -9   7    7.91    3.19
  -3  -9   7    6.41    2.41
   3  -9  -7    8.66    2.80
   3  -9  -7    6.88    3.65
  -3  -9   7    9.73    3.03
  -3  -9   7    4.78    2.27
  -3  -9   6   37.38    4.88
   3  -9  -6   22.02    4.96
   3  -9  -6   26.37    3.75
  -3  -9   6   36.93    4.68
  -3  -9   6   21.12    3.42
  -3  -9   6   32.52    3.91
  -3  -9   5    2.19    2.71
  -3  -9   5    2.40    1.94
   3  -9  -5   -0.62    2.08
   3  -9  -5    4.41    2.55
  -3  -9   5    2.49    2.44
  -3  -9   5   -0.66    1.86
  -3  -9   4   39.93    3.92
   3  -9  -4   44.82    4.30
   3  -9  -4   45.22    5.98
  -3  -9   4   46.28    5.11
  -3  -9   4   41.26    5.20
  -3  -9   3    7.29    3.23
  -3  -9   3    6.09    2.27
   3  -9  -3    6.86    2.45
   3  -9  -3    8.42    3.46
  -3  -9   3   11.80    3.27
   3  -9  -3   11.48    4.56
  -3  -9   2   86.55    5.76
  -3  -9   2   76.78    5.98
   3  -9  -2   78.72    5.85
   3  -9  -2   94.95    8.36
  -3  -9   2   89.54    7.08
   3  -9  -2   71.00    9.11
  -3  -9   2   82.83    7.41
  -3  -9   1   -1.55    3.50
  -3  -9   1    0.54    1.99
   3  -9  -1    1.31    2.05
  -3  -9   1   -0.40    2.18
   3  -9  -1    0.41    2.49
   3  -9  -1    3.72    4.65
  -3  -9   1   -0.57    2.49
   3  -9   0   53.85    4.58
  -3  -9   0   64.42    5.20
  -3  -9   0   54.16    5.67
   3  -9   0   51.86    8.58
  -3  -9   0   62.39    6.62
   3  -9   0   53.38    6.29
  -3  -9   0   59.72    4.84
  -3  -9  -1    7.71    2.47
  -3  -9  -1    5.91    2.27
   3  -9   1    1.05    1.77
   3  -9   1    1.58    2.34
   3  -9   1    1.98    4.26
  -3  -9  -2   23.82    3.49
  -3  -9  -2   26.14    3.50
   3  -9   2   19.75    2.85
   3  -9   2   17.60    4.15
  -3  -9  -3    0.98    3.22
  -3  -9  -3    0.19    2.09
  -3  -9  -3    1.96    2.08
   3  -9   3    0.32    1.72
   3  -9   3   -1.16    2.73
   3  -9   3    2.01    4.32
  -3  -9  -4   10.98    4.16
  -3  -9  -4   17.05    3.06
   3  -9   4    6.14    3.33
   3  -9   4   11.34    5.20
  -3  -9  -4   16.70    3.10
  -3  -9  -5    6.05    3.77
  -3   9  -5    0.77    1.92
  -3  -9  -5    1.17    1.90
  -3  -9  -5    2.60    2.71
   3  -9   5   -0.66    3.92
   3  -9   5    0.76    2.41
  -3   9  -6  150.14    8.37
  -3  -9  -6  152.30    8.50
  -3  -9  -6  153.74    9.93
   3  -9   6  156.04   13.76
  -3  -9  -6  148.28   10.06
  -3  -9  -7   34.70    5.07
  -3  -9  -7   28.83    3.60
  -3  -9  -7   36.67    5.12
  -3   9  -7   26.80    3.30
  -3  -9  -8  467.65   20.26
  -3  -9  -8  486.40   22.33
  -3  -9  -8  491.06   22.50
  -3   9  -8  452.91   20.07
  -3  -9  -9   22.86    4.58
  -3   9  -9   21.19    2.85
  -3  -9  -9   13.30    2.74
  -3  -9  -9   15.65    4.11
  -3  -9 -10  225.69   11.36
  -3   9 -10  225.91   11.40
  -3  -9 -10  254.05   13.88
  -3  -9 -10  239.98   13.36
  -3  -9 -11   22.68    4.17
  -3   9 -11   19.91    2.79
  -3  -9 -11   18.64    2.63
  -3  -9 -11   16.93    4.30
   3  -9  11   26.03    3.54
  -3  -9 -12   89.49    5.96
  -3  -9 -12  117.77    8.89
   3  -9  12  116.42    7.05
  -3  -9 -12  113.26    8.13
  -3  -9 -13   -0.76    2.81
  -3  -9 -13   -2.48    3.62
   3  -9  13   -0.18    2.02
  -3  -9 -14   13.91    3.45
  -3  -9 -14    9.60    3.97
   3  -9  14   13.21    2.83
  -3  -9 -15   10.51    3.51
   3  -9  15   11.43    2.51
  -3  -9 -15    4.28    2.57
  -3  -9 -16  100.97    7.76
   3  -9  16  103.24    6.62
  -3  -9 -17    0.48    2.47
   3  -9  17    0.78    1.90
  -3  -9 -18   76.76    6.17
   3  -9  18   74.72    5.08
  -3  -9 -19    8.62    2.48
   3  -9  19    6.98    1.82
  -3  -9 -20   46.41    4.09
   3  -9  20   39.76    3.08
  -3  -9 -21    0.83    1.57
  -3  -9 -22    2.28    1.34
  -3  -9 -23   -0.38    0.92
   3  -9  23    0.59    1.42
   3  -9  24    1.44    1.11
   3  -9  25    2.78    0.94
  -3 -10  23    2.82    1.25
   3 -10 -22   98.43    4.91
  -3 -10  22  101.25    5.34
   3 -10 -21    0.18    1.10
  -3 -10  21   -0.51    1.63
   3 -10 -20  184.72    8.58
  -3 -10  20  173.97    8.68
   3 -10 -19    3.32    1.65
  -3 -10  19    6.43    2.01
   3 -10 -18   98.89    5.90
  -3 -10  18   89.87    5.78
  -3 -10  17    1.75    1.79
  -3 -10  16   38.26    3.69
   3 -10 -15    2.60    2.18
  -3 -10  15    1.11    1.90
   3 -10 -14    4.77    2.53
  -3 -10  14    5.88    2.09
   3 -10 -13    1.47    2.40
  -3 -10  13    1.99    1.98
   3 -10 -12    3.06    2.48
  -3 -10  12    4.54    2.01
   3 -10 -11   -0.66    2.48
  -3 -10  11    0.48    2.27
  -3 -10  11    1.35    1.88
   3 -10 -10  510.73   21.92
  -3 -10  10  525.14   22.60
  -3 -10  10  452.44   20.76
  -3 -10   9   19.14    3.73
  -3 -10   9   15.98    2.83
   3 -10  -9   17.69    3.42
  -3 -10   9   19.06    3.27
   3 -10  -8  349.25   15.48
  -3 -10   8  369.13   16.51
  -3 -10   8  310.56   14.37
  -3 -10   8  320.31   15.59
  -3 -10   7    5.39    3.00
   3 -10  -7   -0.63    2.58
  -3 -10   7    5.40    3.03
  -3 -10   7    2.68    1.93
  -3 -10   7    2.28    2.09
  -3 -10   6  607.96   25.81
  -3 -10   6  696.27   28.42
   3 -10  -6  670.15   26.87
  -3 -10   6  582.43   25.74
  -3 -10   6  632.28   27.66
  -3 -10   5   12.29    3.59
   3 -10  -5   12.48    2.80
  -3 -10   5   20.24    4.06
   3 -10  -5    9.66    3.36
  -3 -10   5    7.21    2.53
  -3 -10   4  450.72   19.20
   3 -10  -4  452.68   19.76
  -3 -10   4  475.41   21.43
  -3 -10   4  439.73   21.07
  -3 -10   3    5.74    3.66
  -3 -10   3   10.53    2.78
   3 -10  -3    7.52    2.65
   3 -10  -3    7.25    3.34
  -3 -10   3   10.61    3.38
  -3 -10   2 1105.91   42.93
  -3 -10   2 1199.25   45.49
   3 -10  -2 1083.27   43.20
  -3 -10   2 1129.31   45.36
  -3 -10   1   19.09    4.99
  -3 -10   1   20.22    3.60
   3 -10  -1   19.25    3.08
   3 -10  -1    7.75    3.10
  -3 -10   1   19.41    4.22
  -3 -10   1   19.81    3.34
  -3 -10   0  922.28   34.66
  -3 -10   0  949.88   35.27
  -3 -10   0  897.94   37.19
  -3 -10  -1   15.35    3.34
   3 -10   1   17.66    2.90
   3 -10   1   11.56    3.63
  -3 -10  -2  926.85   34.86
   3 -10   2  784.92   33.76
  -3 -10  -3    0.33    4.03
  -3 -10  -3    2.20    2.53
   3 -10   3    2.69    1.84
  -3 -10  -4  139.99    7.93
  -3 -10  -4  119.39    8.82
  -3 -10  -4  125.94    9.93
  -3 -10  -5    3.47    3.99
  -3 -10  -5    1.57    2.35
  -3 -10  -5    0.85    3.06
  -3  10  -5    3.69    2.00
  -3 -10  -6  290.73   13.72
  -3  10  -6  253.26   12.96
  -3 -10  -6  301.10   15.33
  -3 -10  -6  281.69   15.68
  -3 -10  -7    3.00    3.50
  -3  10  -7    1.46    1.63
  -3 -10  -7   -2.06    2.30
  -3 -10  -7    1.42    2.87
  -3 -10  -8   43.55    4.28
  -3 -10  -8   42.49    5.74
  -3 -10  -8   43.72    6.03
  -3 -10  -9   -0.56    3.21
  -3 -10  -9    1.98    1.88
  -3 -10  -9    2.28    3.26
   3 -10   9    5.01    2.48
  -3 -10 -10   25.05    4.78
  -3 -10 -10   30.24    3.37
  -3 -10 -10   27.06    5.36
   3 -10  10   26.51    3.94
  -3 -10 -11    4.60    3.01
  -3 -10 -11    2.46    1.44
  -3 -10 -11    3.11    2.89
   3 -10  11    3.30    2.18
  -3 -10 -12    5.02    2.86
   3 -10  12    7.66    2.44
  -3 -10 -12    7.69    2.93
  -3 -10 -13   -0.27    2.54
   3 -10  13    1.55    2.01
  -3 -10 -13    2.00    2.29
  -3 -10 -14   18.27    3.71
   3 -10  14   17.75    2.88
  -3 -10 -15    3.22    2.63
   3 -10  15    3.97    2.15
  -3 -10 -16   17.19    3.15
   3 -10  16   14.42    2.56
  -3 -10 -17    2.74    2.01
   3 -10  17    0.25    1.62
  -3 -10 -18  124.97    7.25
   3 -10  18  116.97    6.31
  -3 -10 -19    8.58    1.94
   3 -10  19    5.90    1.53
  -3 -10 -20  185.97    8.72
   3 -10  21   -0.98    1.32
  -3 -10 -21    0.44    0.91
   3 -10  22   48.60    3.09
   3 -10  23    1.71    0.84
   3 -11 -20   45.18    2.68
  -3 -11  20   34.98    2.65
   3 -11 -19    6.25    1.25
  -3 -11  19    2.59    1.42
   3 -11 -18    2.61    1.37
  -3 -11  18    4.93    1.45
  -3 -11  17    1.87    1.43
  -3 -11  16   41.04    3.31
   3 -11 -15    3.84    1.82
  -3 -11  15    2.65    1.65
   3 -11 -14   13.86    2.73
  -3 -11  14    7.42    2.14
   3 -11 -13    3.19    2.02
  -3 -11  13    4.81    1.88
   3 -11 -12   42.41    4.16
  -3 -11  12   32.99    3.46
   3 -11 -11    0.92    2.10
  -3 -11  11    0.93    1.68
   3 -11 -10    0.74    2.35
  -3 -11  10    0.80    1.94
   3 -11  -9    3.91    2.29
  -3 -11   9    3.90    2.45
  -3 -11   8  145.63    9.12
   3 -11  -8  140.84    8.29
   3 -11  -7    0.18    2.20
  -3 -11   7    0.98    2.58
   3 -11  -6   73.49    5.60
  -3 -11   6   65.55    5.98
   3 -11  -5    1.26    2.01
  -3 -11   5    1.80    2.62
  -3 -11   5   -1.18    2.75
   3 -11  -4  103.44    6.91
  -3 -11   4  118.77    8.18
  -3 -11   3    0.26    2.85
   3 -11  -3    0.70    1.78
  -3 -11   3    1.33    2.58
   3 -11  -2   45.85    4.21
  -3 -11   2   52.52    5.59
  -3 -11   2   52.07    5.83
  -3 -11   1    0.57    3.13
  -3 -11   1    0.19    2.11
   3 -11  -1    0.33    1.75
  -3 -11   0   -2.94    3.51
  -3 -11   0   -0.58    2.19
   3 -11   0    0.48    1.58
  -3 -11  -1   -0.57    2.03
   3 -11   1    0.31    1.58
  -3  11  -2   98.95    6.14
  -3 -11  -2  111.05    6.86
   3 -11   2   94.03    5.91
  -3 -11  -3   -0.61    3.57
  -3  11  -3    0.90    1.49
  -3 -11  -3   -0.75    2.16
   3 -11   3    0.13    1.47
  -3 -11  -3   -0.53    3.01
  -3 -11  -4   19.69    5.05
  -3 -11  -4   31.48    3.79
  -3 -11  -4   24.26    4.48
  -3 -11  -5    5.23    3.43
  -3 -11  -5   -0.90    1.90
  -3 -11  -5    0.79    3.00
  -3 -11  -6   97.81    6.56
  -3 -11  -6  106.77    7.89
  -3 -11  -6  114.60    8.47
  -3 -11  -7   -0.81    3.56
  -3 -11  -7    0.17    1.76
  -3 -11  -7   -2.06    3.03
   3 -11   7    0.72    2.20
  -3 -11  -8   16.55    2.72
  -3 -11  -8   13.02    3.73
   3 -11   8   16.48    3.22
  -3 -11  -8   19.28    4.51
  -3 -11  -9   -0.14    1.49
  -3 -11  -9   -0.25    2.60
   3 -11   9    0.68    2.10
  -3 -11  -9    1.95    2.92
  -3 -11 -10   89.03    6.80
   3 -11  10  102.14    6.10
  -3 -11 -11   -2.16    2.62
   3 -11  11   -0.16    1.90
  -3 -11 -12   87.02    6.77
   3 -11  12   96.07    5.98
  -3 -11 -13   -0.62    2.31
   3 -11  13    1.92    1.92
  -3 -11 -14   97.48    6.53
   3 -11  14   96.58    5.92
  -3 -11 -15   -0.33    1.74
   3 -11  15   -0.86    1.69
  -3 -11 -16   11.56    2.21
   3 -11  16   10.91    1.95
  -3 -11 -17   -2.44    1.64
   3 -11  17    1.22    1.25
   3 -11  18    1.68    1.07
  -3 -11 -18    1.34    1.06
   3 -11  18    0.53    0.99
   3 -11  19    0.89    0.91
   3 -12 -15   -0.46    1.17
   3 -12 -14   15.32    2.24
   3 -12 -13    1.30    1.44
   3 -12 -12   37.42    3.29
   3 -12 -11   -1.38    1.73
   3 -12 -10   19.15    2.70
   3 -12  -9    1.01    1.80
   3 -12  -8  231.42   11.09
   3 -12  -7    5.07    2.11
  -3 -12   7    9.31    2.77
   3 -12  -6  438.57   19.55
  -3 -12   6  513.11   21.10
   3 -12  -5   20.97    2.92
  -3 -12   5   24.77    3.78
   3 -12  -4  718.93   30.37
  -3 -12   4  843.47   32.22
   3 -12  -3   10.56    2.33
  -3 -12   3   15.92    3.46
  -3  12   2  485.11   20.19
   3 -12  -2  504.99   20.53
   3 -12  -1   17.68    2.55
   3 -12   0  529.88   21.65
   3 -12   1    8.80    1.93
   3 -12   2  277.27   13.18
  -3 -12  -2  423.11   16.48
  -3 -12  -3   12.80    3.48
  -3 -12  -4  320.00   15.09
  -3 -12  -4  341.43   16.40
   3 -12   4  359.08   15.32
  -3 -12  -5    2.61    1.99
  -3 -12  -5    1.52    2.71
   3 -12   5    4.03    2.38
  -3 -12  -6  131.69    7.08
  -3 -12  -6  120.77    8.09
   3 -12   6  118.05    6.97
  -3 -12  -7    1.88    2.48
   3 -12   7    5.75    2.12
  -3 -12  -8  128.84    8.20
   3 -12   8  138.34    7.41
  -3 -12  -9   -0.59    2.23
   3 -12   9    1.36    1.74
  -3 -12 -10   13.89    2.84
   3 -12  10   15.71    2.42
  -3 -12 -11    0.69    1.86
   3 -12  11    0.50    1.72
  -3 -12 -12    6.43    2.22
   3 -12  12    6.22    1.83
  -3 -12 -13    3.85    1.75
   3 -12  13    2.72    1.51
  -3 -12 -14   86.74    5.11
   3 -12  14   89.08    4.89
  -3 -12 -15    0.52    1.05
   3 -12  15    0.22    1.05
   3 -13 -12    2.00    0.83
   3 -13 -11    0.37    0.91
   3 -13 -10    3.77    1.27
   3 -13  -9    2.94    1.24
   3 -13  -8   11.35    1.79
   3 -13  -8   13.74    1.59
   3 -13  -7    0.09    1.13
   3 -13  -7   -0.39    1.10
   3 -13  -6    0.27    1.07
   3 -13  -6   -0.18    1.21
   3 -13  -5   -0.26    1.07
   3 -13  -5   -0.77    1.25
   3 -13  -4    3.52    1.23
  -3 -13   4    5.31    2.01
   3 -13  -4    5.13    1.55
   3 -13  -3    0.33    1.04
  -3 -13   3   -0.47    1.93
   3 -13  -3    1.87    1.43
   3 -13  -2    2.28    1.09
   3 -13  -2    1.60    1.50
   3 -13  -1    3.35    1.06
   3 -13  -1    2.80    1.64
   3 -13   0   31.56    2.88
  -3 -13  -1    1.12    1.93
   3 -13   1    1.53    1.47
  -3 -13  -2    9.76    2.33
  -3 -13  -3    2.54    1.92
  -3 -13  -4    0.47    1.82
  -3 -13  -5   -0.61    1.78
  -3 -13  -6    6.41    1.98
   3 -13   6    9.17    1.78
  -3 -13  -7    3.56    1.87
   3 -13   7   -1.10    1.63
  -3 -13  -8   11.04    2.17
   3 -13   8   12.32    1.97
  -3 -13  -9    0.12    1.37
   3 -13   9   -0.90    1.34
  -3 -13 -10    8.58    1.75
   3 -13  10    8.65    1.66
  -3 -13 -11    0.91    1.00
   3 -13  11   -0.14    0.93
   3 -13  12    0.75    0.81
  -4   0  31    0.57    0.95
  -4   0  31   -0.08    0.96
  -4   0  30  181.40    7.65
  -4   0  30  124.32    7.07
  -4   0  29   -0.76    1.52
  -4   0  29    0.25    1.67
  -4   0  28  453.51   19.33
  -4   0  27    2.20    2.02
  -4   0  26  383.74   17.37
  -4   0  25   -0.20    2.43
  -4   0  25    0.85    2.58
  -4   0  24  552.10   24.35
  -4   0  24  569.25   24.67
  -4   0  23   -0.68    2.61
  -4   0  23    1.64    2.98
  -4   0  22  388.96   18.10
  -4   0  22  393.29   18.05
  -4   0  21   -0.48    2.53
   4   0 -21   -3.00    3.66
  -4   0  21    0.24    2.59
  -4   0  20   93.84    6.88
  -4   0  20   83.13    6.67
  -4   0  19   -2.15    2.65
   4   0 -19    2.46    3.32
  -4   0  19   -2.62    2.84
  -4   0  18   52.54    5.16
  -4   0  18   48.20    5.10
   4   0 -18   58.12    7.25
  -4   0  17   -0.68    2.42
  -4   0  17   -1.60    2.60
  -4   0  16  246.08   12.63
  -4   0  15   -1.03    2.04
  -4   0  14    1.36    2.01
  -4   0  13    0.74    1.84
  -4   0  13   -1.63    2.43
  -4   0  12  207.52   10.43
  -4   0  12  198.18   10.83
  -4   0  11    1.28    1.71
  -4   0  11    0.33    1.53
   4   0 -11    2.76    1.74
  -4   0  11    1.49    2.02
   4   0 -10  168.17    9.10
  -4   0  10  148.72   10.49
  -4   0  10  147.78    8.22
  -4   0   9    0.45    1.67
   4   0  -9   -0.41    1.79
  -4   0   9    1.85    2.53
  -4   0   8 1849.73   74.75
   4   0  -8 1949.20   73.01
  -4   0   8 1868.23   71.91
  -4   0   7    1.00    1.52
  -4   0   7   -1.15    2.63
  -4   0   6 1081.61   42.27
  -4   0   6 1092.33   44.84
  -4   0   5    0.13    1.52
  -4   0   5    2.68    2.57
  -4   0   4 1988.81   77.66
  -4   0   3    1.02    2.60
  -4   0   2  109.59    7.82
  -4   0   1   -0.48    2.59
  -4   0   0 1614.98   63.60
  -4   0  -1    0.48    2.35
  -4   0  -2  576.75   25.52
  -4   0  -3   -0.74    2.46
  -4   0  -4  567.79   25.28
  -4   0  -5   -0.26    2.54
  -4   0  -6   19.34    2.63
  -4   0  -6   23.67    4.16
  -4   0  -7    0.15    1.71
  -4   0  -7    0.86    2.65
  -4   0  -8  358.31   15.98
  -4   0  -8  366.90   18.33
  -4   0  -9    0.49    1.75
  -4   0  -9    0.32    2.46
  -4   0 -10    7.98    2.27
  -4   0 -10    8.21    3.26
  -4   0 -11   -0.92    2.08
  -4   0 -12  582.32   25.29
  -4   0 -12  626.51   25.86
  -4   0 -12  626.00   29.08
  -4   0 -13   -1.13    1.84
  -4   0 -13   -0.42    2.08
  -4   0 -13    0.83    2.81
  -4   0 -14  342.97   16.70
  -4   0 -14  377.57   17.34
  -4   0 -14  394.03   20.85
  -4   0 -15    0.21    1.91
  -4   0 -15    0.23    2.43
  -4   0 -15   -0.47    3.24
  -4   0 -16  150.74    9.32
   4   0  16  144.85    9.11
  -4   0 -16  149.56   11.92
   4   0  17    0.25    2.37
  -4   0 -17   -0.52    2.74
  -4   0 -17    1.54    3.25
  -4   0 -18  607.09   25.61
   4   0  18  526.05   24.68
  -4   0 -18  548.95   29.03
   4   0  19    0.75    2.62
  -4   0 -19    0.53    2.66
  -4   0 -19    1.60    3.16
  -4   0 -20  333.75   16.91
  -4   0 -20  363.19   17.80
   4   0  20  368.15   17.34
  -4   0 -20  351.96   21.20
   4   0  21   -0.49    2.58
  -4   0 -21    0.23    2.56
  -4   0 -21   -0.27    2.61
  -4   0 -21    2.14    3.03
  -4   0 -22  944.65   38.35
  -4   0 -22  976.85   39.09
   4   0  22  928.14   38.37
  -4   0 -22  831.20   42.56
  -4   0 -23    0.25    2.78
   4   0  23   -1.82    2.67
  -4   0 -24 1084.59   43.15
   4   0  24 1030.54   42.55
  -4   0 -25    1.78    2.26
   4   0  25    0.40    2.36
  -4   0 -26  260.44   12.81
   4   0  26  244.91   12.39
  -4   0 -27   -2.36    2.10
   4   0  27    0.16    1.87
  -4   0 -28  218.16   10.21
   4   0  28  226.05   10.00
   4   0  29    0.26    1.13
  -4   0 -29    0.13    1.33
   4   0  29    1.18    1.56
   4   0  30  238.79   10.48
   4   0  31    0.21    0.83
  -4   1  31    1.20    1.03
  -4  -1  31    1.89    1.05
  -4   1  31    0.42    0.94
  -4  -1  30    3.12    1.42
  -4  -1  30    2.89    1.27
  -4   1  30    1.43    1.43
  -4   1  30    3.43    1.38
  -4  -1  29    3.11    1.68
  -4  -1  29    1.41    1.66
  -4   1  29    1.54    1.42
  -4  -1  28    2.16    2.00
  -4  -1  28    2.10    2.01
  -4   1  28    0.42    1.65
  -4  -1  27    1.87    1.98
  -4  -1  27    2.97    2.29
  -4   1  27    4.50    2.11
  -4  -1  26   -0.95    2.40
  -4   1  26   -0.18    2.03
  -4  -1  26   -1.95    2.49
  -4  -1  25    1.23    2.43
  -4   1  25   -2.15    2.32
  -4  -1  25    1.69    2.59
  -4  -1  24    0.22    2.55
  -4   1  24    1.88    2.30
  -4  -1  24    4.02    2.69
  -4  -1  23    3.91    2.49
  -4   1  23   -0.46    2.63
  -4  -1  23    6.72    2.70
  -4   1  23    5.49    2.56
  -4   1  22    4.54    2.53
  -4  -1  22    2.62    2.50
   4   1 -22    1.48    2.92
   4  -1 -22    4.79    3.37
  -4   1  22    6.90    2.92
  -4  -1  22    7.58    2.92
  -4  -1  21    2.68    2.44
  -4   1  21   -0.23    2.27
   4   1 -21   -1.01    3.30
  -4   1  21    0.73    2.56
  -4  -1  21    1.43    2.70
  -4  -1  20   10.32    2.98
  -4   1  20    6.51    2.80
   4   1 -20    9.65    3.91
  -4   1  20    5.82    2.77
  -4  -1  20    9.79    3.24
  -4  -1  19    2.45    2.54
  -4   1  19    3.70    2.40
   4   1 -19    4.98    3.46
  -4   1  19    1.45    2.50
  -4  -1  19    1.19    2.44
  -4  -1  18    0.97    2.23
  -4   1  18    0.46    2.33
   4   1 -18    2.94    3.50
  -4   1  18    5.24    2.60
  -4  -1  18    0.23    2.60
  -4  -1  17    2.81    2.38
  -4   1  17    4.63    2.40
  -4   1  17    3.04    2.54
  -4   1  16  118.36    7.62
  -4  -1  16  115.22    7.68
  -4   1  16  123.69    8.00
  -4  -1  15   -0.64    2.06
  -4   1  15    0.20    1.92
  -4   1  15   -2.46    2.77
  -4  -1  14   20.08    3.12
  -4   1  14   22.44    3.13
   4  -1 -14   24.87    3.84
  -4  -1  14   21.25    3.51
  -4  -1  13    6.63    2.11
  -4   1  13    7.29    2.17
   4  -1 -13    6.55    2.36
  -4  -1  13    4.63    2.44
  -4   1  12  139.40    7.91
   4  -1 -12  138.23    9.00
  -4  -1  12  140.23    8.04
  -4   1  12  141.13    8.38
  -4  -1  12  146.03    8.45
  -4  -1  11    1.18    1.53
   4  -1 -11    0.76    1.94
  -4   1  11   -1.52    2.11
  -4  -1  11    0.37    2.03
  -4   1  10  295.99   14.00
  -4   1  10  289.73   16.43
   4  -1  -9   19.85    3.28
  -4   1   9   26.20    2.95
  -4   1   9   28.63    4.52
  -4   1   8  352.71   15.69
  -4   1   8  369.35   18.28
  -4   1   7    0.14    1.53
  -4   1   7    0.29    2.45
  -4   1   6   13.98    2.30
  -4   1   6   10.51    3.01
  -4   1   5    9.98    1.99
  -4   1   5    8.58    2.88
  -4   1   4  465.01   21.60
  -4   1   3    0.77    2.30
  -4   1   2   31.13    4.06
  -4   1   1    1.23    2.39
  -4   1   0   55.36    5.34
  -4   1  -1   -1.22    2.42
   4   1   1    0.72    2.22
  -4   1  -2   37.49    4.53
   4   1   2   43.66    4.67
  -4   1  -3    1.74    2.49
   4   1   3    1.20    2.22
   4   1   4   38.15    4.43
  -4   1  -4   35.88    4.54
  -4   1  -5    0.52    2.28
   4   1   5    3.50    2.42
  -4   1  -6   40.86    3.54
   4   1   6   39.00    4.65
  -4   1  -6   42.67    4.73
  -4   1  -7   13.20    2.28
  -4   1  -7   14.58    3.41
  -4   1  -8  100.93    6.17
  -4   1  -8  103.30    7.92
  -4   1  -9    0.16    1.79
  -4   1  -9    0.32    2.70
  -4   1 -10   11.80    2.16
  -4   1 -10    7.28    2.19
  -4   1 -10    7.86    3.30
  -4   1 -11    3.46    1.83
  -4  -1 -11    2.78    1.87
  -4   1 -11    3.51    2.02
  -4   1 -11    1.10    2.85
  -4  -1 -12    1.91    1.88
  -4   1 -12    0.59    2.18
  -4   1 -12   -2.74    3.57
  -4  -1 -13    3.66    2.13
  -4   1 -13    2.51    2.14
  -4   1 -13    3.34    3.09
  -4  -1 -14   11.57    2.46
  -4   1 -14   13.28    2.95
  -4   1 -14    9.72    3.75
  -4  -1 -15    1.62    1.94
  -4   1 -15    5.59    2.67
  -4   1 -15    3.72    3.24
   4   1  16   12.14    2.97
  -4  -1 -16    5.29    2.49
  -4   1 -16    4.40    2.71
  -4   1 -16    5.37    3.62
   4   1  17    4.18    2.58
  -4  -1 -17    3.31    2.36
  -4   1 -17    4.27    2.31
  -4   1 -17    0.76    2.54
  -4   1 -17    3.05    3.06
  -4   1 -18   36.73    4.45
  -4  -1 -18   49.84    4.79
  -4   1 -18   37.22    4.70
  -4   1 -18   40.63    6.41
   4   1  18   37.04    4.58
   4   1  19    0.49    2.44
  -4   1 -19   -0.46    2.38
  -4   1 -19   -0.26    2.63
  -4   1 -19   -0.53    2.73
  -4   1 -20   38.30    4.39
  -4   1 -20   36.16    4.76
  -4   1 -20   34.33    6.16
  -4  -1 -20   34.26    6.08
   4   1  20   33.01    4.30
   4   1  21    4.31    2.71
  -4   1 -21    1.39    2.32
  -4   1 -21    2.85    2.60
  -4   1 -21    5.24    3.09
  -4  -1 -21    3.19    3.37
   4   1  22    1.63    2.50
  -4   1 -22    1.81    2.37
  -4   1 -22   -1.26    2.65
  -4  -1 -22    1.04    3.01
  -4   1 -22    2.06    3.03
  -4   1 -23   -0.87    2.42
  -4   1 -23    2.68    2.52
   4   1  23   -0.22    2.26
  -4   1 -24  277.35   13.98
   4   1  24  265.93   13.53
  -4   1 -25    1.50    1.96
   4   1  25    0.39    2.13
  -4   1 -26  183.71   10.01
   4   1  26  183.63    9.77
   4  -1  27    1.23    1.32
  -4   1 -27    1.22    1.57
   4   1  27    1.43    1.78
  -4   1 -28    1.51    1.48
   4   1  28    1.50    1.61
   4   1  29    0.38    1.22
  -4   1 -29    2.91    1.34
   4   1  29    1.36    1.37
   4   1  30    0.64    0.90
   4   1  30   -0.27    1.08
   4   1  31    1.21    0.87
  -4   2  31    3.80    1.22
  -4   2  30  235.12   10.07
  -4  -2  29   25.59    2.57
  -4   2  29   35.26    2.90
  -4   2  28  495.40   19.86
  -4  -2  28  520.09   20.45
  -4  -2  27   26.40    3.32
  -4   2  27   33.33    3.39
  -4  -2  27   31.29    3.72
  -4   2  26  518.45   21.99
  -4  -2  26  537.48   22.55
  -4  -2  26  499.60   22.18
  -4   2  25   44.06    4.33
  -4  -2  25   40.73    4.46
  -4  -2  25   54.57    5.01
  -4   2  24  400.86   18.05
  -4  -2  24  390.15   18.41
  -4  -2  23    5.73    3.23
  -4   2  23    3.93    2.49
  -4  -2  23    4.07    2.92
  -4  -2  22   28.70    4.36
  -4   2  22   21.49    3.72
   4   2 -22   16.52    4.80
   4  -2 -22   12.47    4.38
  -4  -2  22   27.30    4.28
  -4  -2  21    3.20    3.11
  -4   2  21    2.64    2.67
   4   2 -21    3.48    3.55
   4  -2 -21    6.63    3.64
  -4  -2  21    2.84    3.08
  -4  -2  20   50.68    5.39
  -4   2  20   41.44    4.72
   4   2 -20   46.36    7.12
   4  -2 -20   49.45    7.00
  -4  -2  20   50.85    5.41
  -4  -2  19    6.51    2.99
  -4   2  19    1.98    2.34
   4   2 -19    8.52    3.98
   4  -2 -19    3.34    3.59
  -4   2  18  348.68   16.86
  -4  -2  18  368.93   17.51
  -4   2  18  385.70   17.60
   4   2 -18  345.57   20.54
   4  -2 -18  315.55   19.70
  -4  -2  17   37.08    4.59
  -4   2  17   33.42    4.08
   4   2 -17   40.45    6.37
   4  -2 -17   27.99    5.63
   4  -2 -17   37.74    5.24
  -4   2  17   42.90    4.75
  -4  -2  16   52.35    5.00
  -4   2  16   44.84    4.47
   4  -2 -16   43.44    5.56
  -4   2  16   49.08    5.11
  -4  -2  16   48.72    5.08
  -4  -2  15   12.29    2.86
  -4   2  15   11.20    2.51
   4  -2 -15   12.39    3.34
  -4   2  15   14.11    3.20
  -4  -2  15   12.02    3.08
  -4  -2  14  147.65    8.55
  -4   2  14  127.83    7.86
   4  -2 -14  145.33    9.84
  -4   2  14  142.49    8.79
  -4  -2  14  144.25    8.66
  -4  -2  13    3.14    1.96
  -4   2  13    3.89    1.87
   4  -2 -13    4.36    2.53
  -4  -2  13    3.18    2.32
  -4  -2  12   91.24    6.11
  -4   2  12   86.19    5.68
   4  -2 -12   85.15    7.07
  -4  -2  12   89.44    6.29
  -4  -2  11   17.67    2.79
   4  -2 -11   17.95    3.44
  -4  -2  11   14.93    3.02
  -4  -2  10  138.85    7.58
  -4  -2  10  122.28    7.19
   4  -2 -10  142.23    9.10
  -4   2  10  118.75    9.16
  -4  -2  10  120.48    9.28
  -4   2  10  116.59    7.03
  -4   2  10  134.70    7.86
  -4  -2   9   26.62    3.11
  -4   2   9   26.46    3.01
  -4  -2   9   24.28    2.96
   4  -2  -9   24.39    3.76
  -4   2   9   24.51    4.09
  -4  -2   9   26.01    4.32
  -4   2   8  863.72   34.04
  -4   2   8  829.65   36.60
  -4  -2   8  838.64   36.79
  -4  -2   8  870.53   34.13
  -4   2   7   83.68    5.41
  -4   2   7   91.44    7.41
  -4  -2   7   93.18    7.54
  -4  -2   7   84.97    5.51
  -4   2   6  876.98   37.43
  -4  -2   6  908.07   37.67
  -4  -2   6  876.45   34.96
  -4   2   6  885.09   34.94
  -4   2   5  108.83    6.30
  -4  -2   5  111.31    8.29
  -4   2   5   95.28    7.75
  -4  -2   5  114.85    6.42
  -4   2   4 1525.91   61.07
  -4  -2   4 1539.34   61.10
  -4   2   3  134.15    9.13
  -4  -2   3  148.76    9.44
  -4   2   2 1195.95   47.78
  -4  -2   2 1152.50   47.65
  -4   2   1  107.63    8.37
  -4  -2   1  117.12    8.01
  -4   2   0 1834.03   72.09
  -4  -2   0 1851.85   72.07
  -4   2  -1  209.17   12.27
  -4  -2  -1  207.53   12.20
   4   2   1  247.32   12.85
   4  -2   1  233.04   12.51
  -4   2  -2 3279.73  125.06
  -4  -2  -2 3328.27  125.11
   4   2   2 3250.20  124.84
   4  -2   2 3301.77  124.93
  -4   2  -3  322.98   16.79
  -4  -2  -3  336.65   17.05
   4   2   3  352.57   16.89
   4  -2   3  355.57   16.92
   4   2   4 2631.21   99.92
   4  -2   4 2604.43   99.97
  -4   2  -4 2583.22  100.09
  -4  -2  -4 2589.75  100.20
   4   2   5   97.90    7.29
   4  -2   5   98.05    7.37
  -4   2  -5   87.71    7.50
  -4  -2  -5  105.54    7.81
   4   2   6  327.09   16.85
   4  -2   6  365.57   17.41
  -4   2  -6  333.58   17.26
  -4  -2  -6  361.44   17.53
  -4  -2  -7   28.31    3.36
  -4   2  -7   27.74    3.27
  -4   2  -7   30.17    4.74
  -4  -2  -7   31.63    5.06
  -4  -2  -8  201.86    9.76
  -4   2  -8  179.74    9.60
  -4   2  -8  184.81   11.62
  -4  -2  -8  186.14   11.69
  -4  -2  -9   13.84    2.64
  -4   2  -9   14.93    2.56
  -4   2  -9   13.35    3.55
  -4  -2  -9   11.53    3.51
  -4  -2 -10  155.62    8.82
  -4   2 -10  163.89    8.95
  -4   2 -10  172.66   11.16
  -4  -2 -10  173.69   11.16
  -4  -2 -11    7.01    2.05
  -4  -2 -11    8.84    2.53
  -4   2 -11   12.68    2.68
  -4   2 -11    7.27    3.25
  -4  -2 -11   11.93    3.52
  -4  -2 -12   18.89    2.79
  -4   2 -12   24.63    3.37
  -4  -2 -12   23.25    3.33
  -4   2 -12   22.12    4.45
  -4  -2 -12   21.93    4.39
  -4  -2 -13   -0.89    1.86
  -4  -2 -13    1.04    2.17
  -4   2 -13   -1.45    2.24
  -4   2 -13   -0.41    2.88
  -4  -2 -13    0.82    2.76
  -4  -2 -14   10.92    2.66
  -4  -2 -14   13.82    3.12
  -4   2 -14   14.03    3.01
  -4   2 -14   10.53    4.02
  -4  -2 -14   11.76    3.97
  -4  -2 -15    1.98    2.04
  -4   2 -15    3.14    2.17
  -4  -2 -15    4.63    2.63
  -4   2 -15    0.46    2.03
  -4   2 -15    5.55    3.43
  -4  -2 -15    0.46    2.98
  -4  -2 -16   83.97    6.29
  -4   2 -16   85.67    6.47
  -4  -2 -16   96.58    6.98
  -4   2 -16   88.51    6.81
   4   2  16   82.97    6.56
   4  -2  16   90.59    6.74
  -4   2 -16   84.11    8.81
  -4  -2 -16   96.07    9.09
   4   2  17    9.74    2.96
   4  -2  17   11.98    3.12
  -4  -2 -17    9.45    2.75
  -4   2 -17    8.52    2.86
  -4  -2 -17    9.66    3.32
  -4   2 -17    6.48    3.01
  -4   2 -17    4.51    3.86
  -4  -2 -17    8.11    4.40
  -4  -2 -18  248.39   12.82
  -4   2 -18  243.03   12.79
  -4  -2 -18  247.26   13.39
  -4   2 -18  245.98   13.22
   4   2  18  250.24   13.09
   4  -2  18  245.80   13.03
  -4   2 -18  213.39   15.75
  -4  -2 -18  238.03   16.39
  -4   2 -19   33.46    4.29
  -4  -2 -19   34.33    4.21
  -4   2 -19   35.12    4.57
  -4  -2 -19   30.58    4.45
  -4   2 -19   30.84    6.02
  -4  -2 -19   37.71    6.25
   4   2  19   31.25    4.25
   4  -2  19   36.74    4.41
  -4   2 -20  628.73   26.56
  -4  -2 -20  628.24   27.14
  -4   2 -20  609.65   26.83
   4   2  20  641.57   26.82
   4  -2  20  609.47   26.56
  -4   2 -20  541.93   30.16
  -4  -2 -20  552.19   30.50
  -4   2 -21   49.29    4.96
  -4  -2 -21   47.38    5.18
  -4   2 -21   50.53    5.11
  -4  -2 -21   45.56    6.85
   4   2  21   57.27    5.27
   4  -2  21   53.90    5.28
  -4   2 -22  543.68   24.13
  -4  -2 -22  537.81   24.63
  -4   2 -22  558.08   24.65
   4   2  22  563.61   24.37
   4  -2  22  566.70   24.41
  -4   2 -23   37.38    4.21
  -4  -2 -23   34.23    4.41
  -4   2 -23   34.85    4.32
   4   2  23   33.81    4.21
   4  -2  23   35.04    4.27
  -4   2 -24  228.61   12.07
  -4  -2 -24  238.85   12.54
  -4   2 -24  244.81   12.59
   4   2  24  239.50   12.30
   4  -2  24  255.74   12.52
  -4   2 -25    2.19    2.35
  -4  -2 -25    5.04    2.39
   4   2  25    4.08    2.29
   4  -2  25    4.53    2.34
  -4  -2 -26   96.54    6.28
  -4   2 -26   85.54    6.12
   4   2  26   91.64    6.13
   4  -2  26   99.04    6.31
  -4  -2 -27   12.82    2.43
  -4   2 -27   13.60    2.46
   4   2  27   17.84    2.68
   4  -2  27   14.21    2.51
  -4  -2 -28  273.10   13.17
  -4   2 -28  290.24   13.21
   4   2  28  307.05   13.18
   4  -2  28  312.24   13.25
   4   2  29   23.62    2.41
   4  -2  29   20.96    2.42
   4   2  30  247.73    9.27
   4  -2  30  255.63    9.34
  -4   3  31    0.12    0.79
  -4  -3  29    0.11    1.37
  -4   3  29    0.77    1.00
  -4  -3  29   -1.10    1.45
  -4  -3  28    3.00    1.71
  -4   3  28    0.81    1.24
  -4  -3  28    1.88    1.71
  -4  -3  27    2.45    1.56
  -4  -3  27    0.92    1.88
  -4   3  27    2.55    1.50
  -4  -3  27   -0.31    1.95
  -4  -3  26   24.42    3.14
  -4   3  26   28.53    3.11
  -4  -3  26   33.80    3.72
  -4  -3  26   29.69    3.42
  -4  -3  25   11.46    2.78
  -4   3  25   15.25    2.53
  -4  -3  25   15.75    3.14
  -4  -3  25   10.21    2.63
  -4  -3  24   58.98    5.19
  -4  -3  24   64.29    5.50
  -4   3  24   71.64    5.23
  -4  -3  24   66.67    5.70
  -4  -3  23    1.44    2.47
  -4  -3  23   -0.44    2.60
  -4   3  23    2.61    1.99
  -4  -3  23    3.05    2.64
  -4   3  22   10.17    2.73
  -4  -3  22   11.10    3.40
  -4  -3  22    6.99    2.92
  -4  -3  21    2.28    2.47
  -4   3  21    2.22    2.06
   4   3 -21    5.74    3.28
   4  -3 -21    2.72    2.82
  -4  -3  21    3.25    2.85
  -4  -3  20   39.58    4.69
  -4   3  20   40.50    4.21
   4   3 -20   41.54    6.27
   4  -3 -20   39.75    5.78
  -4   3  19   -0.41    2.08
   4   3 -19   -0.98    3.01
   4  -3 -19    1.40    2.96
  -4   3  18    3.23    2.02
   4   3 -18    7.30    3.61
   4  -3 -18    7.86    3.43
   4  -3 -18    6.83    3.13
  -4   3  17    0.78    1.84
   4   3 -17   -3.34    4.09
   4  -3 -17    1.81    2.68
   4  -3 -17   -5.44    2.90
  -4  -3  17    0.23    2.74
  -4   3  16   30.97    3.57
   4   3 -16   27.50    5.24
   4  -3 -16   38.59    5.87
   4  -3 -16   28.32    4.75
  -4  -3  16   28.50    4.11
   4  -3 -15    7.94    2.99
  -4   3  15    8.32    2.28
  -4  -3  15    9.00    3.00
  -4   3  14   49.62    4.37
   4  -3 -14   67.85    6.61
  -4  -3  14   62.86    5.28
   4  -3 -13   54.37    5.93
  -4  -3  13   49.56    4.73
  -4  -3  12  368.00   17.14
   4  -3 -12  359.22   18.78
  -4  -3  12  361.65   16.77
   4  -3 -11   42.43    5.14
  -4  -3  11   46.57    4.48
   4  -3 -10   14.38    3.36
  -4  -3  10   17.16    2.95
  -4   3   9    2.41    1.73
  -4  -3   9    4.61    1.87
   4  -3  -9    2.51    2.30
  -4   3   9    3.15    2.69
  -4  -3   9    7.39    2.96
  -4  -3   8  117.15    6.79
  -4   3   8  120.29    6.81
   4  -3  -8  123.12    8.80
  -4   3   8  125.27    8.76
  -4  -3   8  114.73    8.73
  -4  -3   7   22.47    2.74
  -4   3   7   18.93    2.62
  -4   3   7   21.56    3.89
  -4  -3   7   16.01    3.59
  -4   3   6   56.34    4.17
  -4  -3   6   60.00    4.26
  -4   3   6   51.05    5.46
  -4  -3   6   50.93    5.46
  -4  -3   5   22.46    2.69
  -4   3   5   13.96    2.31
  -4   3   5   14.08    3.41
  -4  -3   5   18.13    3.59
  -4   3   4  138.22    7.24
  -4   3   4  145.15    9.44
  -4  -3   4  136.48    9.16
  -4  -3   4  123.83    7.09
  -4   3   3   96.13    7.52
  -4  -3   3  114.76    8.10
  -4  -3   2   23.56    4.36
  -4   3   2   22.72    3.95
  -4   3   1    4.70    2.47
  -4  -3   1    9.53    2.87
  -4  -3   0   76.17    6.36
   4   3   0   79.45    6.38
   4  -3   0   87.36    6.59
  -4   3   0   82.72    6.59
   4   3   1    0.73    2.13
   4  -3   1    0.25    2.10
  -4   3  -1   -1.30    2.29
  -4  -3  -1    1.02    2.12
  -4   3  -2 1052.95   42.71
  -4  -3  -2 1029.93   42.53
   4   3   2 1014.84   42.22
   4  -3   2 1045.29   42.41
  -4   3  -3  442.88   20.58
  -4  -3  -3  438.66   20.48
   4   3   3  435.53   20.20
   4  -3   3  421.46   20.16
  -4   3  -4  537.52   24.17
  -4  -3  -4  556.62   24.38
   4   3   4  514.67   23.71
   4  -3   4  523.09   23.85
  -4   3  -5    7.07    2.99
  -4  -3  -5   13.60    3.28
   4   3   5    9.16    2.77
   4  -3   5   11.19    2.96
  -4   3  -6  180.30   11.05
  -4  -3  -6  194.84   11.37
  -4   3  -7   84.45    7.14
  -4  -3  -7   84.79    7.23
  -4  -3  -8   56.96    4.44
  -4   3  -8   55.89    4.34
  -4   3  -8   52.22    5.79
  -4  -3  -8   58.61    6.09
  -4  -3  -9   -0.22    2.55
  -4   3  -9    0.62    1.50
  -4  -3  -9    1.99    1.56
  -4  -3  -9    1.49    1.73
  -4   3  -9    2.26    1.72
  -4   3  -9   -0.32    2.31
  -4  -3  -9    0.65    2.32
  -4  -3 -10  108.75    6.50
  -4   3 -10  114.49    6.89
  -4  -3 -10  115.12    6.88
  -4  -3 -10  131.32    7.42
  -4   3 -10  122.70    7.21
  -4   3 -10  128.84    9.27
  -4  -3 -10  139.05    9.52
  -4  -3 -10  119.47    7.92
  -4   3 -11   44.02    4.08
  -4  -3 -11   40.77    4.10
  -4  -3 -11   62.50    4.98
  -4   3 -11   52.51    4.65
  -4   3 -11   45.98    6.10
  -4  -3 -11   55.70    6.49
  -4  -3 -11   47.45    5.03
  -4  -3 -11   48.70    3.98
  -4  -3 -12   13.56    2.90
  -4   3 -12   12.13    2.49
  -4   3 -12   23.07    3.72
  -4  -3 -12   16.52    3.32
  -4   3 -12    9.16    4.47
  -4  -3 -12   15.22    4.23
  -4   3 -13    3.18    1.83
  -4  -3 -13    3.56    2.08
  -4  -3 -13    5.14    2.55
  -4   3 -13    4.69    2.35
  -4   3 -13    5.68    3.12
  -4  -3 -13    5.25    3.14
  -4  -3 -14   34.11    3.80
  -4  -3 -14   38.01    4.24
  -4   3 -14   39.82    4.31
  -4   3 -14   42.15    6.01
  -4  -3 -14   36.40    5.69
   4   3  15   24.32    3.62
   4  -3  15   18.10    3.33
  -4  -3 -15   19.44    3.02
  -4  -3 -15   20.10    3.52
  -4   3 -15   18.29    3.39
  -4   3 -15   22.12    4.76
  -4  -3 -15   22.10    4.87
   4  -3  15   20.37    4.71
   4   3  16   13.91    3.11
   4  -3  16   15.33    3.16
  -4   3 -16   13.42    2.89
  -4  -3 -16   12.18    2.92
  -4   3 -16   13.39    3.06
  -4   3 -16    9.44    4.00
  -4  -3 -16    9.95    3.83
   4  -3  16    7.22    3.53
   4   3  17    5.65    2.52
   4  -3  17    4.96    2.62
  -4   3 -17    7.59    2.83
  -4  -3 -17    7.93    2.85
  -4   3 -17    6.31    2.69
  -4   3 -17    4.88    3.35
  -4  -3 -17    9.35    3.74
   4   3  18    3.75    2.61
   4  -3  18    0.23    2.19
  -4   3 -18    0.90    2.35
  -4  -3 -18    1.52    2.38
  -4   3 -18    2.71    2.38
  -4   3 -18    1.49    2.98
  -4  -3 -18    4.52    3.44
   4   3  19    1.85    2.44
   4  -3  19    3.71    2.47
  -4   3 -19    1.13    2.21
  -4  -3 -19    2.01    2.33
  -4   3 -19    1.47    2.37
  -4   3 -19    2.96    3.34
  -4  -3 -19   -3.01    3.53
   4   3  20   -0.23    2.61
   4  -3  20    2.50    2.31
  -4   3 -20    3.34    2.51
  -4  -3 -20    0.74    2.36
  -4   3 -20   -1.93    2.57
  -4   3 -20    2.92    2.64
  -4  -3 -20    0.49    2.86
   4   3  21   17.17    3.26
   4  -3  21   18.14    3.26
  -4   3 -21   17.38    3.21
  -4  -3 -21   18.97    3.35
  -4   3 -21   20.81    3.46
  -4   3 -22   46.40    4.62
  -4  -3 -22   47.84    4.85
  -4   3 -22   44.07    4.63
   4   3  22   50.13    4.77
   4  -3  22   44.11    4.53
  -4   3 -23    2.58    2.23
  -4  -3 -23    3.86    2.27
  -4   3 -23    3.79    2.21
   4   3  23    5.19    2.31
   4  -3  23    4.86    2.36
  -4   3 -24    7.55    2.36
  -4  -3 -24    4.16    2.09
  -4   3 -24    6.24    2.41
   4   3  24    9.42    2.50
   4  -3  24    6.74    2.36
  -4  -3 -25    0.90    1.88
  -4   3 -25   -0.53    1.68
   4   3  25    0.17    1.87
   4  -3  25    2.05    1.85
  -4  -3 -26    0.95    1.60
  -4   3 -26   -0.16    1.49
   4   3  26   -1.48    1.68
   4  -3  26   -1.36    1.87
  -4  -3 -27    1.24    1.32
  -4   3 -27   -0.13    1.48
   4   3  27    1.52    1.56
   4  -3  27    0.78    1.57
   4   3  28    5.42    1.49
   4  -3  28    3.32    1.44
  -4  -3 -29    0.11    1.41
   4   3  29    0.88    1.00
   4  -3  29   -0.08    1.10
   4   3  30    0.67    0.92
  -4  -4  29   49.27    3.54
  -4  -4  28  264.58   11.93
  -4   4  27   61.54    4.07
  -4  -4  27   81.91    5.05
   4  -4 -27   68.98    4.59
  -4  -4  27   84.12    5.27
  -4  -4  26  155.98    8.06
  -4  -4  26  158.86    8.29
  -4  -4  25   88.10    5.78
  -4   4  25   68.83    4.81
  -4  -4  25   84.54    5.86
  -4  -4  25   60.92    4.94
  -4  -4  24  239.20   12.25
  -4  -4  24  289.89   13.16
  -4   4  24  241.16   11.97
  -4  -4  24  286.04   13.29
  -4  -4  23   59.85    5.26
  -4  -4  23   47.78    4.57
  -4  -4  23   58.18    5.48
  -4  -4  22   46.14    4.60
  -4   4  22   47.86    4.39
  -4  -4  22   42.72    4.73
  -4   4  21   18.59    2.97
  -4  -4  21   25.61    3.94
  -4  -4  21   18.45    3.41
   4   4 -20   52.39    6.70
   4  -4 -20   56.95    6.75
  -4  -4  20   56.36    5.19
  -4  -4  20   46.79    5.09
  -4   4  20   45.11    4.42
   4  -4 -20   57.17    6.71
  -4  -4  19    7.81    3.10
  -4   4  19    2.74    2.05
  -4  -4  19   10.09    3.45
   4  -4 -19    1.35    2.77
   4   4 -19    6.97    3.77
   4  -4 -19    2.64    3.34
  -4  -4  18   16.73    3.83
  -4  -4  18   17.94    3.90
   4   4 -18   21.57    5.17
   4  -4 -18   23.29    4.96
  -4  -4  18   16.00    3.96
  -4  -4  17   13.71    3.82
  -4  -4  17   16.90    3.98
   4   4 -17   21.40    5.08
   4  -4 -17    9.70    4.18
   4  -4 -17    8.95    3.80
  -4  -4  17   14.45    3.52
  -4  -4  16  154.46    9.90
   4  -4 -16  174.67   12.28
  -4  -4  16  172.74   10.16
  -4  -4  16  165.65    9.82
   4   4 -16  180.42   12.65
   4  -4 -16  151.20   11.90
   4  -4 -15   25.08    5.14
  -4  -4  15   25.93    4.23
   4   4 -15   30.41    5.57
  -4  -4  15   29.70    4.41
   4  -4 -15   28.43    4.83
  -4  -4  15   27.71    4.01
  -4  -4  14   26.09    4.00
   4  -4 -14   30.11    4.97
  -4  -4  14   25.87    3.88
  -4  -4  14   26.91    3.83
  -4  -4  13   29.25    3.89
  -4  -4  13   32.62    3.92
   4  -4 -13   28.81    4.79
  -4  -4  13   29.43    3.82
  -4  -4  12   -0.21    2.29
  -4  -4  12    0.60    1.89
   4  -4 -12    0.37    2.33
  -4  -4  12    2.15    2.06
  -4  -4  11    3.60    2.42
  -4  -4  11    0.19    1.88
   4  -4 -11    1.46    2.23
  -4  -4  11   -0.56    2.27
  -4  -4  10  344.46   15.64
  -4  -4  10  344.33   15.45
   4  -4 -10  373.32   18.41
  -4  -4  10  323.15   15.20
  -4  -4   9  354.82   16.29
  -4  -4   9  376.89   16.65
   4  -4  -9  370.33   19.06
  -4  -4   9  348.68   16.13
  -4  -4   9  348.43   16.73
  -4  -4   8  402.10   18.25
  -4   4   8  420.61   18.35
  -4   4   8  434.63   20.99
  -4  -4   8  442.64   18.74
  -4  -4   8  437.99   19.67
  -4  -4   7   68.12    4.80
  -4   4   7   69.60    4.75
  -4   4   7   75.87    6.48
  -4  -4   7   71.01    6.49
  -4  -4   6  444.38   18.62
  -4   4   6  448.32   18.61
  -4   4   6  426.29   20.75
  -4  -4   6  421.68   20.77
  -4   4   5  424.59   20.03
  -4  -4   5  424.28   20.15
  -4  -4   5  415.63   17.76
  -4   4   5  411.71   17.70
  -4  -4   4  729.21   29.94
  -4  -4   4  784.69   30.57
  -4   4   4  754.11   32.33
  -4  -4   4  741.79   32.34
  -4   4   4  750.67   30.00
  -4  -4   3  297.20   13.99
  -4  -4   3  298.04   11.67
  -4   4   3  195.51   12.51
  -4   4   2  813.72   33.75
  -4  -4   2  767.22   33.53
  -4   4   1  576.09   26.70
  -4  -4   1  598.78   26.84
   4   4  -1  648.47   27.00
   4  -4  -1  614.49   26.78
  -4   4   0  876.12   36.64
  -4  -4   0  836.94   36.38
   4   4   0  873.28   36.36
   4  -4   0  895.92   36.47
   4   4   1  293.45   14.44
   4  -4   1  277.27   14.26
  -4  -4  -1  292.38   14.68
  -4  -4  -2 1221.34   50.09
  -4   4  -2 1263.47   50.33
   4   4   2 1204.18   49.74
   4  -4   2 1280.68   50.09
  -4  -4  -3  826.87   34.71
  -4   4  -3  823.47   34.72
   4   4   3  803.82   34.21
   4  -4   3  808.08   34.33
  -4  -4  -3  819.98   34.58
  -4   4  -4  613.12   26.43
  -4  -4  -4  618.53   26.44
  -4  -4  -4  526.16   23.69
   4   4   4  578.96   25.71
   4  -4   4  638.21   26.17
  -4  -4  -4  598.48   26.06
  -4   4  -5   34.29    5.21
  -4  -4  -5   68.05    6.28
  -4  -4  -5   64.72    4.39
  -4  -4  -5   34.52    5.55
  -4  -4  -6    7.63    3.64
  -4  -4  -6   11.64    2.29
  -4   4  -6   21.72    4.22
  -4  -4  -6   10.78    3.66
  -4   4  -6   22.62    2.71
  -4  -4  -7  111.18    6.43
  -4   4  -7  107.62    6.58
  -4  -4  -7  101.20    7.94
  -4   4  -7  122.82    8.64
  -4  -4  -7  124.72    8.74
  -4   4  -8  177.93    8.55
  -4   4  -8  169.19   10.66
  -4  -4  -8  158.80   10.47
  -4  -4  -8  145.53    9.47
  -4  -4  -9   54.31    4.09
  -4   4  -9   28.91    3.30
  -4   4  -9   26.55    5.16
  -4  -4  -9   53.24    6.23
  -4  -4  -9   37.93    4.78
  -4   4 -10   42.22    3.89
  -4  -4 -10   37.93    4.75
  -4  -4 -10   44.79    4.07
  -4   4 -10   46.82    5.58
  -4  -4 -10   49.88    5.60
  -4  -4 -10   35.13    3.57
  -4  -4 -11    5.19    2.62
  -4  -4 -11    0.31    1.82
  -4   4 -11    0.53    1.62
  -4  -4 -11    2.16    1.84
  -4   4 -11    4.38    1.89
  -4   4 -11    1.75    2.11
  -4  -4 -11    2.83    2.53
  -4  -4 -12    0.71    2.04
  -4  -4 -12    0.38    1.77
  -4   4 -12    0.56    1.82
  -4   4 -12   -0.37    2.39
  -4  -4 -12    2.23    2.44
  -4   4 -12    1.47    1.75
  -4  -4 -13   30.76    3.65
  -4   4 -13   27.98    3.50
  -4   4 -13   29.64    4.83
  -4  -4 -13   31.22    5.06
  -4   4 -13   27.35    3.46
  -4  -4 -14  161.66    8.94
  -4   4 -14  155.71    8.83
   4  -4  14  148.15   12.58
  -4   4 -14  133.93    8.39
   4   4  14  150.30    8.85
   4  -4  14  139.13    8.71
  -4   4 -14  142.61   11.01
  -4  -4 -14  153.08   11.20
  -4  -4 -15   72.46    5.77
  -4   4 -15   56.92    5.28
   4  -4  15   46.10    7.17
   4   4  15   57.15    5.18
   4  -4  15   55.99    5.22
  -4   4 -15   60.87    7.10
  -4  -4 -15   60.79    7.04
  -4  -4 -16  225.10   11.73
  -4   4 -16  232.47   11.75
   4   4  16  214.14   11.51
   4  -4  16  201.68   11.25
  -4   4 -16  199.54   14.02
  -4  -4 -16  215.17   14.31
  -4   4 -17  108.72    7.47
  -4  -4 -17  122.46    7.96
  -4   4 -17  114.79    7.71
   4   4  17  120.09    7.66
   4  -4  17  106.55    7.49
  -4   4 -17  101.80    9.61
  -4  -4 -17  109.38    9.84
  -4   4 -18  227.56   12.38
  -4  -4 -18  244.68   12.81
  -4   4 -18  239.57   12.66
   4   4  18  259.02   12.61
   4  -4  18  251.97   12.65
  -4   4 -18  212.66   15.20
  -4  -4 -18  233.47   15.51
  -4   4 -19   46.05    4.87
  -4  -4 -19   50.39    4.98
  -4   4 -19   47.40    4.88
  -4  -4 -19   44.40    6.34
   4   4  19   61.59    5.12
   4  -4  19   53.44    4.88
  -4   4 -19   49.84    6.70
  -4   4 -20  132.16    8.34
  -4  -4 -20  132.69    8.51
  -4   4 -20  138.39    8.54
   4   4  20  133.36    8.23
   4  -4  20  136.79    8.26
  -4   4 -21   76.88    6.07
  -4  -4 -21   87.55    6.57
  -4   4 -21   85.19    6.41
   4   4  21   92.11    6.27
   4  -4  21   92.58    6.42
  -4   4 -22  265.18   13.18
  -4  -4 -22  255.29   13.20
  -4   4 -22  268.35   13.32
   4   4  22  291.40   13.30
   4  -4  22  260.44   13.06
  -4   4 -23   94.55    6.64
  -4  -4 -23  100.07    6.77
  -4   4 -23   95.57    6.65
   4  -4  23   97.97    6.50
  -4   4 -24  185.25    9.91
  -4  -4 -24  178.66    9.80
   4   4  24  208.16    9.96
   4  -4  24  196.79    9.90
  -4   4 -24  190.09    9.99
  -4  -4 -25   67.84    4.97
  -4   4 -25   68.15    4.85
   4   4  25   69.54    4.82
   4  -4  25   67.75    4.81
   4  -4  26  127.69    6.52
   4   4  26  146.55    7.24
   4  -4  26  143.66    7.30
   4   4  27   62.00    3.96
   4  -4  27   57.17    3.93
  -4  -4 -28   84.48    5.29
   4   4  28   82.24    4.39
   4   4  29   25.84    2.23
  -4  -5  29   11.63    1.69
  -4  -5  28    0.99    1.37
   4  -5 -27    1.63    1.11
  -4  -5  27    0.12    1.56
   4  -5 -26   46.56    3.72
  -4  -5  26   53.20    4.15
   4  -5 -25   31.02    3.22
  -4  -5  25   32.29    3.65
  -4  -5  24   19.99    2.76
  -4  -5  24   19.96    3.40
  -4  -5  23   23.82    2.91
  -4  -5  23   31.39    3.56
  -4  -5  22  182.16    9.76
  -4  -5  22  172.98    9.26
  -4  -5  21   50.82    4.67
  -4  -5  21   43.47    4.21
  -4  -5  20   14.91    2.89
  -4  -5  20   12.72    2.98
  -4  -5  19   98.00    7.06
  -4  -5  19  115.57    7.62
  -4  -5  19  120.06    7.75
  -4  -5  18  344.25   16.64
   4  -5 -18  316.23   18.94
   4  -5 -18  351.21   20.29
  -4  -5  18  352.62   16.93
  -4  -5  18  367.65   16.93
   4  -5 -17   75.07    7.80
  -4  -5  17   88.74    6.66
  -4  -5  17   87.88    6.63
   4  -5 -17   77.11    8.47
  -4  -5  17   89.41    6.76
  -4  -5  16   -0.69    2.23
   4  -5 -16    1.98    2.56
   4  -5 -16    1.84    2.96
  -4  -5  16    1.11    2.37
  -4  -5  16    0.44    2.49
  -4  -5  15   28.15    4.09
  -4  -5  15   33.80    4.10
   4  -5 -15   19.23    4.43
   4  -5 -15   29.37    5.15
  -4  -5  15   30.36    4.10
  -4  -5  14  179.63   10.86
  -4  -5  14  202.73   11.07
   4  -5 -14  202.77   13.59
  -4  -5  14  211.96   11.18
   4   5 -14  206.28   13.57
   4  -5 -14  202.34   13.21
  -4  -5  13   66.16    5.75
  -4  -5  13   63.92    5.58
   4  -5 -13   53.51    6.54
  -4  -5  13   52.72    5.22
   4   5 -13   63.38    7.11
   4  -5 -13   46.21    6.13
  -4  -5  12   19.91    3.72
  -4  -5  12   22.08    3.69
  -4  -5  12   21.65    3.62
   4  -5 -11   78.37    7.91
  -4  -5  11   95.17    6.71
  -4  -5  11   79.74    6.15
  -4  -5  10  227.24   11.49
   4  -5 -10  245.56   14.39
  -4  -5  10  214.38   11.12
  -4  -5   9   93.47    6.35
   4  -5  -9   88.17    8.05
  -4  -5   9   80.23    5.81
  -4  -5   9   70.06    6.18
  -4  -5   8   61.37    4.86
  -4  -5   8   53.11    5.02
  -4  -5   8   59.53    5.74
  -4  -5   7  225.79   11.20
   4  -5  -7  233.90   14.12
  -4  -5   7  204.36   10.58
  -4  -5   7  216.61   11.94
  -4  -5   6  303.22   13.77
  -4   5   6  303.15   13.70
  -4   5   6  327.44   16.11
  -4  -5   6  296.67   16.01
  -4  -5   6  319.61   15.70
  -4  -5   6  337.48   14.67
  -4  -5   5    7.91    3.02
  -4   5   5    6.61    1.70
  -4  -5   5    7.90    1.79
  -4   5   5    8.74    2.53
  -4  -5   5   12.86    2.87
  -4   5   4   31.32    2.81
  -4  -5   4   28.41    4.17
  -4  -5   4   25.30    2.68
  -4  -5   4   28.62    3.92
  -4   5   4   26.69    3.68
  -4  -5   3   18.33    3.78
  -4   5   3   21.14    2.33
  -4  -5   3   18.20    2.25
   4   5  -3   23.08    3.42
   4  -5  -3   21.16    3.44
  -4   5   3   18.18    3.17
  -4  -5   3   22.14    3.39
  -4  -5   2  151.12    7.78
  -4   5   2  154.72    9.46
  -4  -5   2  156.37    9.59
   4   5  -2  154.23    9.25
   4  -5  -2  154.82    9.40
  -4  -5   2  158.45    9.86
  -4  -5   1   19.83    2.69
  -4  -5   1   16.69    2.18
  -4  -5   1    8.95    3.55
   4   5  -1   12.28    2.82
   4  -5  -1   16.70    3.05
  -4   5   1   13.86    2.88
  -4  -5   1   13.13    2.91
  -4  -5   0   33.02    3.41
  -4   5   0   37.26    4.20
  -4  -5   0   40.43    4.44
   4   5   0   38.96    4.09
   4  -5   0   36.44    4.12
  -4  -5   0   43.26    4.07
  -4  -5  -1   43.22    4.65
   4   5   1   50.71    4.61
   4  -5   1   41.12    4.47
  -4  -5  -1   43.36    4.33
  -4  -5  -1   42.49    3.87
  -4   5  -1   42.65    4.56
  -4  -5  -2   21.52    4.39
  -4  -5  -2   19.27    2.85
   4  -5   2   29.91    3.70
   4   5   2   23.71    3.30
  -4  -5  -2   17.34    3.14
  -4   5  -2   27.11    3.70
  -4  -5  -2   18.22    3.38
  -4  -5  -3    9.92    2.71
  -4   5  -3    9.85    2.51
  -4  -5  -3    7.04    2.47
  -4  -5  -3    6.37    2.01
  -4  -5  -3    4.59    3.36
  -4  -5  -4   14.86    2.59
  -4  -5  -4    9.90    3.37
  -4   5  -4   10.05    2.62
  -4  -5  -4   12.25    2.72
  -4   5  -5   44.47    4.83
  -4  -5  -5   59.67    5.54
  -4  -5  -5   52.14    4.23
  -4  -5  -5   41.60    5.35
  -4   5  -6  186.31   10.78
  -4  -5  -6  166.93   10.53
  -4  -5  -6  154.87    8.76
  -4   5  -6  193.84    9.42
  -4  -5  -6  157.76   10.61
  -4   5  -7  227.62   12.97
  -4  -5  -7  232.32   13.11
  -4  -5  -7  228.84   11.22
  -4   5  -7  224.77   11.30
  -4  -5  -7  242.66   13.07
  -4   5  -8  312.94   16.39
  -4  -5  -8  311.38   16.40
  -4   5  -8  316.01   14.57
  -4  -5  -8  313.25   16.19
  -4  -5  -8  318.48   14.48
  -4  -5  -9  245.17   11.86
  -4   5  -9  233.64   11.82
  -4  -5  -9  258.88   13.48
  -4   5  -9  225.80   13.44
  -4  -5  -9  256.47   13.98
  -4  -5 -10  289.06   14.42
  -4   5 -10  339.81   14.94
  -4  -5 -10  319.03   16.08
  -4   5 -10  331.23   16.97
  -4  -5 -10  315.84   16.74
  -4   5 -11  233.00   12.02
   4  -5  11  240.38   17.36
  -4  -5 -11  255.38   13.54
  -4   5 -11  247.31   14.25
  -4  -5 -11  262.41   14.49
  -4   5 -12  302.09   14.46
   4  -5  12  299.60   19.83
   4  -5  12  286.70   14.38
  -4  -5 -12  327.43   15.78
  -4   5 -12  318.20   16.90
  -4  -5 -12  301.35   16.64
  -4   5 -13  189.36   10.08
   4  -5  13  181.45   14.63
   4   5  13  191.78   10.01
   4  -5  13  167.76    9.82
  -4  -5 -13  189.93   11.02
  -4   5 -13  177.16   12.04
  -4  -5 -13  194.45   12.37
   4  -5  14  155.89   12.91
  -4   5 -14  138.04    8.22
   4   5  14  140.05    8.13
   4  -5  14  129.97    8.12
  -4   5 -14  127.62   10.01
  -4  -5 -14  125.10    9.91
   4   5  15   18.47    3.01
   4  -5  15   23.08    3.23
  -4  -5 -15   17.72    2.94
  -4  -5 -15   13.73    3.67
   4  -5  15   26.51    5.39
   4   5  16   22.10    3.07
   4  -5  16   25.43    3.32
  -4  -5 -16   19.04    3.15
  -4   5 -16   22.82    3.28
  -4  -5 -16   18.99    3.83
   4  -5  16   21.16    4.92
  -4   5 -17   63.43    5.49
  -4  -5 -17   79.92    5.85
  -4   5 -17   55.11    5.26
   4   5  17   73.62    5.38
   4  -5  17   59.72    5.16
  -4  -5 -17   82.09    7.68
  -4   5 -18  155.75    9.18
  -4  -5 -18  140.64    8.90
  -4   5 -18  156.28    9.06
   4   5  18  154.07    8.72
   4  -5  18  163.04    9.01
  -4   5 -19   49.52    4.77
  -4  -5 -19   48.94    4.57
  -4   5 -19   48.27    4.52
   4   5  19   46.05    4.20
   4  -5  19   48.96    4.45
  -4   5 -20   16.07    3.08
  -4  -5 -20   11.56    2.61
   4   5  20   14.84    2.57
   4  -5  20   14.61    2.67
  -4   5 -21   10.95    2.68
   4   5  21   13.11    2.46
   4  -5  21   10.18    2.37
  -4   5 -22   22.21    3.16
   4  -5  22   17.25    2.57
  -4   5 -23    1.63    1.84
   4   5  23    3.16    1.50
   4  -5  23    1.38    1.53
  -4   5 -24    3.02    1.82
   4   5  24    1.47    1.39
  -4  -5 -25    9.33    2.49
   4   5  25   11.63    1.76
   4  -5  26    1.59    1.21
  -4  -5 -26    1.08    1.72
   4  -5  27    0.64    0.82
  -4  -5 -27    2.17    1.52
  -4  -5 -28    8.87    1.50
   4   5  29   12.74    1.37
  -4  -6  28   47.02    3.22
   4  -6 -27   63.08    3.85
  -4  -6  27   86.65    4.62
   4  -6 -26   85.68    4.84
  -4  -6  26   86.96    5.32
   4  -6 -25   74.98    4.72
   4  -6 -24   61.25    4.48
   4  -6 -23  100.45    6.31
   4  -6 -22  117.10    7.27
  -4  -6  21   71.38    4.88
  -4  -6  21   69.54    5.80
  -4  -6  20   30.72    3.54
  -4  -6  20   48.22    4.84
  -4  -6  19   25.79    3.32
  -4  -6  19   29.30    4.04
  -4  -6  18   18.46    3.23
  -4  -6  18   23.55    3.77
  -4  -6  17   10.62    2.73
   4  -6 -17   10.76    3.69
  -4  -6  17   10.86    2.99
  -4  -6  16   11.54    2.96
   4  -6 -16    8.74    3.91
  -4  -6  16   10.89    3.02
  -4  -6  15    8.21    2.69
   4  -6 -15   13.76    4.02
  -4  -6  15   14.30    3.10
  -4  -6  14    4.51    2.56
   4  -6 -14    3.25    3.00
  -4  -6  14    5.14    2.46
  -4  -6  13    3.85    2.14
   4  -6 -13    1.83    2.86
  -4  -6  13    5.46    2.53
   4  -6 -12   53.38    6.54
  -4  -6  12   46.82    4.51
  -4  -6  12   40.28    4.23
  -4  -6  11  234.99   12.04
   4  -6 -11  248.61   15.45
  -4  -6  11  231.28   12.05
  -4  -6  10  264.06   13.50
   4  -6 -10  302.98   17.37
  -4  -6  10  289.00   13.71
  -4  -6  10  280.00   14.26
  -4  -6   9  334.07   15.99
   4  -6  -9  363.91   19.86
  -4  -6   9  360.75   16.10
  -4  -6   9  339.78   16.83
  -4  -6   8  162.60    9.24
   4  -6  -8  193.33   12.83
  -4  -6   8  161.79    9.16
   4  -6  -8  180.32   13.13
  -4  -6   8  166.76    9.15
  -4  -6   8  178.21   10.34
  -4  -6   7  261.51   12.77
   4  -6  -7  284.39   16.63
  -4  -6   7  257.60   12.82
   4  -6  -7  256.21   16.84
  -4  -6   7  246.37   12.42
  -4  -6   7  302.48   14.38
  -4  -6   6  197.64   10.06
   4  -6  -6  189.67   13.35
  -4  -6   6  174.75    9.94
   4  -6  -6  199.42   14.46
  -4  -6   6  199.16   11.24
  -4  -6   5  181.18    9.68
   4  -6  -5  206.80   13.28
  -4  -6   5  169.55    9.70
  -4  -6   5  184.70   11.00
  -4  -6   4  142.99    8.01
  -4  -6   4  130.90    8.09
  -4  -6   4  142.11    9.39
  -4  -6   3  401.31   17.66
  -4  -6   3  392.83   18.09
  -4  -6   3  397.64   19.49
   4  -6  -2  344.47   15.46
  -4  -6   2  336.36   16.27
  -4  -6   2  370.93   17.99
  -4  -6   1  375.40   17.40
  -4  -6   1  365.53   18.71
  -4  -6   0  232.22   12.26
  -4  -6  -1  333.51   16.22
  -4  -6  -2  215.91   10.96
  -4  -6  -2  224.86   12.08
  -4  -6  -2  208.85   10.98
  -4  -6  -2  238.75   13.38
  -4  -6  -3  158.85    8.67
  -4  -6  -3  149.77    8.37
  -4  -6  -3  149.98    9.58
  -4  -6  -3  164.84   10.76
  -4  -6  -4   64.76    4.94
  -4  -6  -4   68.86    5.90
  -4  -6  -4   55.93    4.63
  -4  -6  -4   61.63    6.60
  -4  -6  -5  152.12    8.27
  -4  -6  -5  134.81    7.76
  -4  -6  -5  147.69    9.32
  -4  -6  -5  131.40    9.75
  -4  -6  -6   92.72    6.24
  -4   6  -6  103.06    6.52
  -4  -6  -6   88.15    7.22
  -4  -6  -6   94.55    7.94
  -4  -6  -7   37.20    5.38
  -4  -6  -7   39.35    4.02
  -4   6  -7   27.43    3.40
  -4  -6  -7   38.82    4.91
  -4  -6  -8   34.02    5.05
  -4  -6  -8   27.17    3.58
  -4   6  -8   46.25    4.11
   4  -6   8   37.93    7.54
  -4  -6  -8   34.23    5.00
  -4  -6  -9   37.56    5.50
  -4  -6  -9   49.67    4.56
  -4   6  -9   32.10    3.73
   4  -6   9   20.36    6.92
  -4  -6 -10   26.30    4.63
  -4  -6 -10   28.76    3.78
  -4   6 -10   45.32    4.09
   4  -6  10   38.33    7.31
  -4  -6 -11    9.83    3.73
  -4   6 -11   10.68    2.43
   4  -6  11    1.91    4.50
  -4  -6 -12    2.67    2.73
  -4   6 -12    0.99    1.88
   4  -6  12    8.22    4.69
  -4  -6 -13    6.46    2.86
  -4   6 -13    5.86    2.28
   4  -6  13    3.71    4.18
  -4  -6 -14    3.21    2.60
  -4   6 -14    5.94    2.28
   4  -6  14    6.57    3.85
   4  -6  15    5.65    3.70
   4  -6  16   29.36    5.92
  -4   6 -17   67.25    5.56
  -4   6 -18   84.07    6.19
  -4   6 -19  123.87    7.70
  -4   6 -20  104.43    6.76
  -4   6 -21  101.04    6.59
  -4  -6 -21  111.84    7.87
  -4   6 -22   69.80    5.01
  -4  -6 -22   68.40    5.81
  -4   6 -23   97.33    6.03
  -4  -6 -23  114.94    7.27
  -4  -6 -24  100.28    6.63
  -4  -6 -25  119.95    6.97
   4  -6  26   62.29    3.63
  -4  -6 -26   59.72    4.22
  -4  -6 -27   55.33    3.56
   4  -7 -26   13.03    1.46
   4  -7 -25   29.55    2.51
   4  -7 -24   13.16    2.03
   4  -7 -23   22.73    2.66
  -4  -7  23   19.19    2.98
   4  -7 -22   25.33    2.98
  -4  -7  22   19.12    3.22
   4  -7 -21  148.67    8.10
  -4  -7  21  131.00    8.07
   4  -7 -20   85.54    6.21
  -4  -7  20   80.17    6.13
  -4  -7  19  305.73   13.65
  -4  -7  19  248.14   12.16
  -4  -7  18  120.64    7.22
  -4  -7  18  138.02    8.36
  -4  -7  17  256.93   12.82
   4  -7 -17  289.95   14.33
  -4  -7  17  276.04   13.68
  -4  -7  16   63.59    5.31
   4  -7 -16   80.79    6.61
  -4  -7  16   67.33    5.81
  -4  -7  15  144.16    8.56
   4  -7 -15  141.74   11.76
  -4  -7  15  145.44    8.85
   4  -7 -14   90.07    8.99
  -4  -7  14   93.77    6.60
  -4  -7  13  358.06   17.56
   4  -7 -13  424.54   22.45
  -4  -7  13  404.97   18.10
  -4  -7  12  165.27    9.66
   4  -7 -12  171.70   12.98
  -4  -7  12  177.91    9.90
  -4  -7  11  351.03   15.89
   4  -7 -11  354.32   20.06
  -4  -7  11  318.13   15.68
  -4  -7  11  318.08   15.90
  -4  -7  10   63.05    5.57
   4  -7 -10   81.46    8.11
  -4  -7  10   61.49    5.17
  -4  -7  10   64.36    5.61
  -4  -7  10   62.36    5.70
  -4  -7   9  166.15    9.18
   4  -7  -9  172.66   12.49
  -4  -7   9  153.13    9.08
  -4  -7   9  139.31    8.77
  -4  -7   9  141.66    9.61
  -4  -7   8   77.71    6.00
   4  -7  -8   90.65    8.86
   4  -7  -8   81.34    6.49
  -4  -7   8   72.83    5.69
  -4  -7   8   69.06    6.49
  -4  -7   7  160.54    8.69
   4  -7  -7  130.12    8.40
  -4  -7   7  149.12    8.66
   4  -7  -7  125.60   11.62
  -4  -7   7  120.91    7.93
  -4  -7   7  146.01    9.52
  -4  -7   6   26.29    4.29
   4  -7  -6   25.61    3.58
   4  -7  -6   21.22    5.49
  -4  -7   6   22.86    3.34
  -4  -7   6   25.88    3.57
  -4  -7   5   37.06    4.99
   4  -7  -5   40.27    4.01
  -4  -7   5   35.10    4.16
  -4  -7   5   42.77    4.18
   4  -7  -5   29.60    6.30
  -4  -7   4   20.59    4.05
  -4  -7   4   22.00    3.16
   4  -7  -4   23.28    3.01
   4  -7  -4   18.45    5.44
  -4  -7   4   20.10    3.20
  -4  -7   3   55.63    4.69
   4  -7  -3   53.25    6.77
   4  -7  -3   46.26    4.21
  -4  -7   3   59.12    5.19
   4  -7  -3   56.61    8.52
  -4  -7   3   49.47    5.97
  -4  -7   2   13.78    4.25
  -4  -7   2   15.00    2.91
   4  -7  -2   11.46    2.42
   4  -7  -2    8.41    5.31
  -4  -7   2   12.61    2.99
  -4  -7   1   11.42    4.08
  -4  -7   1   13.19    2.81
   4  -7  -1    3.23    1.91
   4  -7  -1    0.67    4.72
  -4  -7   1    3.42    2.54
  -4  -7   0   10.67    2.53
   4  -7   0   11.74    5.20
  -4  -7   0   13.25    3.02
  -4  -7  -1  120.29    7.29
   4  -7   1  123.88   12.75
  -4  -7  -1  116.99    8.09
  -4  -7  -2   43.26    4.17
  -4  -7  -2   47.76    5.18
   4  -7   2   47.09    8.15
  -4  -7  -2   50.06    6.22
  -4  -7  -3   16.59    4.67
  -4  -7  -3   16.26    2.83
   4  -7   3   15.83    5.94
  -4  -7  -3   18.53    3.81
  -4  -7  -4    0.96    3.84
  -4  -7  -4    2.37    1.95
   4  -7   4    6.85    5.20
  -4  -7  -4    4.66    2.84
  -4  -7  -5   56.59    4.78
   4  -7   5   73.50    9.94
  -4  -7  -5   63.64    6.10
  -4  -7  -5   71.09    5.40
  -4  -7  -5   73.30    7.07
  -4  -7  -6  134.91    7.91
  -4   7  -6  122.02    7.60
  -4  -7  -6  110.75    7.06
  -4  -7  -6  130.15    8.97
  -4  -7  -6  136.51    9.63
  -4  -7  -7  504.88   21.62
  -4   7  -7  516.59   21.55
  -4  -7  -7  447.26   20.52
  -4  -7  -7  504.39   23.13
  -4  -7  -7  498.49   23.54
  -4  -7  -8  183.78   10.15
   4  -7   8  188.31   15.77
  -4   7  -8  188.43   10.05
  -4  -7  -8  180.52   11.59
  -4   7  -9  383.38   17.88
   4  -7   9  399.30   24.82
  -4  -7  -9  416.69   19.91
  -4   7 -10  153.24    8.54
   4  -7  10  134.65   13.15
  -4  -7 -10  130.90    9.54
  -4   7 -11  218.21   11.32
   4  -7  11  202.12   16.79
  -4  -7 -11  230.16   13.51
  -4  -7 -11  209.08   12.45
  -4   7 -12   86.86    6.22
   4  -7  12   85.90   10.89
  -4  -7 -12   81.21    7.90
   4  -7  12   92.61    5.77
  -4  -7 -12   69.90    6.83
  -4   7 -13  197.96   10.78
  -4  -7 -13  211.87   13.04
   4  -7  13  204.85   16.18
   4  -7  13  203.74   10.11
  -4  -7 -13  196.83   11.81
  -4  -7 -14   88.86    8.12
   4  -7  14   76.90    9.68
   4  -7  14   87.15    5.63
  -4   7 -14   86.03    6.22
  -4  -7 -14   85.35    6.89
  -4  -7 -15  199.64   12.46
  -4  -7 -15  187.67   10.87
  -4  -7 -16  114.86    9.08
  -4   7 -17  367.81   17.04
  -4  -7 -17  375.17   18.87
  -4   7 -18  137.22    8.18
  -4  -7 -18  143.73    9.90
  -4   7 -19  131.00    7.68
  -4  -7 -19  132.65    9.16
  -4   7 -20   25.81    3.14
  -4  -7 -20   28.86    4.19
  -4   7 -21   14.14    2.32
  -4  -7 -21   16.54    3.32
  -4   7 -22    5.92    1.71
  -4  -7 -22   12.61    2.70
  -4  -7 -23   13.23    2.50
  -4  -7 -24   10.63    2.14
   4  -7  25   10.20    1.55
  -4  -7 -25   11.16    1.75
   4  -7  26    2.50    0.90
  -4  -8  25  136.63    6.49
   4  -8 -24   41.32    2.94
  -4  -8  24   42.32    3.30
   4  -8 -23  129.52    6.57
  -4  -8  23  127.89    6.79
   4  -8 -22    9.29    1.97
  -4  -8  22    7.34    2.44
   4  -8 -21   49.06    3.93
  -4  -8  21   44.82    4.11
  -4  -8  20   16.58    3.02
  -4  -8  19   15.24    2.94
  -4  -8  18    0.68    2.20
   4  -8 -17   -0.81    2.24
  -4  -8  17   -0.54    2.10
  -4  -8  16    1.91    1.64
   4  -8 -16   -0.64    2.33
  -4  -8  16    2.21    2.07
  -4  -8  15   27.82    3.21
   4  -8 -15   28.52    4.01
  -4  -8  15   27.49    3.63
  -4  -8  14   -1.16    1.93
   4  -8 -14   -0.94    2.61
  -4  -8  14    0.19    2.12
  -4  -8  13   12.67    2.89
   4  -8 -13    9.67    3.33
  -4  -8  13   11.87    2.93
  -4  -8  12   12.17    3.01
   4  -8 -12   10.00    3.24
   4  -8 -12   16.34    4.20
  -4  -8  12   14.44    2.79
  -4  -8  12   14.12    2.99
   4  -8 -11  218.46   11.73
  -4  -8  11  213.06   11.16
  -4  -8  11  197.58   10.80
  -4  -8  11  205.45   10.88
  -4  -8  11  205.81   11.12
  -4  -8  10    9.24    2.92
  -4  -8  10    5.52    2.62
   4  -8 -10    7.88    3.08
  -4  -8  10    7.51    2.47
  -4  -8  10    7.40    2.56
  -4  -8   9   29.18    4.19
  -4  -8   9   30.56    4.06
   4  -8  -9   25.14    4.02
  -4  -8   9   28.43    3.74
  -4  -8   9   21.97    3.44
  -4  -8   8   27.18    4.40
  -4  -8   8   29.21    3.81
   4  -8  -8   30.97    4.21
  -4  -8   8   35.73    4.20
  -4  -8   8   25.91    3.51
  -4  -8   7  297.12   13.72
   4  -8  -7  297.56   17.79
   4  -8  -7  289.33   13.98
  -4  -8   7  294.38   14.44
  -4  -8   7  241.90   12.98
  -4  -8   7  292.44   14.91
  -4  -8   6   59.28    5.07
   4  -8  -6   38.46    4.81
   4  -8  -6   32.86    5.56
  -4  -8   6   32.76    4.45
   4  -8  -6   14.68    5.28
  -4  -8   6   39.24    5.22
  -4  -8   5  256.07   11.62
   4  -8  -5  198.03   14.27
   4  -8  -5  182.44   10.68
  -4  -8   5  210.48   11.77
   4  -8  -5  152.66   14.41
  -4  -8   5  234.02   12.92
  -4  -8   4  107.98    6.79
   4  -8  -4  101.64    9.37
   4  -8  -4   93.95    6.55
  -4  -8   4   93.80    7.16
   4  -8  -4   75.89   10.23
  -4  -8   4   92.01    8.08
  -4  -8   3  311.21   15.01
   4  -8  -3  311.89   18.71
   4  -8  -3  320.37   14.96
  -4  -8   3  337.66   16.25
   4  -8  -3  315.36   21.14
  -4  -8   3  335.16   17.10
  -4  -8   2   -0.32    3.56
  -4  -8   2   10.34    2.81
   4  -8  -2    2.99    1.99
   4  -8  -2    5.10    3.48
   4  -8  -2    9.34    5.13
  -4  -8   2    3.92    2.74
  -4  -8   1   80.90    5.91
   4  -8  -1   69.01    7.94
   4  -8  -1   61.52    4.96
  -4  -8   1   77.27    6.47
   4  -8  -1   53.50    9.25
  -4  -8   1   78.80    7.69
  -4  -8   0   95.32    6.34
   4  -8   0   85.68    8.67
   4  -8   0   74.18    5.44
  -4  -8   0   93.08    7.14
   4  -8   0   78.25   10.60
  -4  -8  -1  195.15   10.73
  -4  -8  -1  218.96   12.07
   4  -8   1  222.64   17.73
  -4  -8  -2   12.03    2.99
  -4  -8  -2    3.61    2.41
   4  -8   2    0.73    6.35
  -4  -8  -2    8.32    3.48
  -4  -8  -3  114.73    7.32
  -4  -8  -3  114.60    8.39
  -4  -8  -3  115.29    9.46
  -4  -8  -3  127.02    7.67
  -4  -8  -4  210.23   11.18
  -4  -8  -4  239.91   13.04
   4  -8   4  220.42   17.75
  -4  -8  -4  223.22   13.77
  -4   8  -5  977.34   39.09
  -4  -8  -5  903.50   38.39
  -4  -8  -5 1030.98   40.84
   4  -8   5  940.51   47.26
  -4  -8  -5 1009.57   41.50
  -4  -8  -6   18.42    4.83
  -4   8  -6   31.49    3.65
  -4  -8  -6   10.34    2.97
  -4  -8  -6   25.72    4.67
  -4   8  -7   92.13    6.48
  -4  -8  -7   91.03    6.16
  -4  -8  -7  100.36    8.44
  -4   8  -8   51.91    4.67
  -4  -8  -8   50.13    4.19
   4  -8   8   50.48    8.36
  -4  -8  -8   63.08    6.53
  -4   8  -9  116.94    7.40
   4  -8   9  124.75   12.39
  -4  -8  -9  115.97    8.85
  -4  -8 -10    4.92    3.37
  -4   8 -10    7.75    2.53
   4  -8  10    1.97    4.80
  -4  -8 -10    0.31    3.60
  -4   8 -11   41.09    4.24
   4  -8  11   40.34    7.47
  -4  -8 -11   43.45    5.82
  -4  -8 -11   46.45    5.54
  -4   8 -12   50.68    4.54
  -4  -8 -12   55.85    6.17
   4  -8  12   52.14    4.26
  -4  -8 -12   48.01    5.36
  -4  -8 -13   27.68    4.32
  -4   8 -13   27.09    3.41
  -4  -8 -13   35.21    5.15
   4  -8  13   32.01    3.26
  -4  -8 -14   23.02    3.75
  -4  -8 -14   19.20    4.36
   4  -8  14   22.23    2.83
  -4  -8 -15    1.88    2.28
  -4  -8 -15    2.65    2.95
   4  -8  15    3.00    1.85
  -4   8 -16    7.98    2.37
   4  -8  16    6.90    2.03
  -4   8 -17    2.40    1.95
  -4  -8 -17    5.92    3.01
  -4   8 -18   49.49    3.97
  -4  -8 -18   52.12    5.32
  -4   8 -19  118.33    6.65
  -4  -8 -19  131.18    8.06
  -4  -8 -20    5.80    2.42
  -4  -8 -21  120.96    7.17
  -4  -8 -22   57.07    4.34
  -4  -8 -23  164.09    8.03
   4  -8  24   12.65    1.66
  -4  -8 -24    9.28    1.55
   4  -8  25   68.04    3.51
   4  -9 -23   27.93    2.10
  -4  -9  23   24.20    2.19
   4  -9 -22    6.41    1.40
  -4  -9  22    2.94    1.49
   4  -9 -21  205.31    9.26
  -4  -9  21  195.61    9.25
  -4  -9  20   23.34    2.80
  -4  -9  19  276.11   12.47
  -4  -9  18    8.02    2.29
   4  -9 -17   77.39    5.38
  -4  -9  17   64.23    4.98
   4  -9 -16    4.01    2.39
  -4  -9  16   -0.15    2.16
   4  -9 -15  269.96   12.97
  -4  -9  15  244.29   12.17
   4  -9 -14   37.99    4.49
  -4  -9  14   29.68    3.78
  -4  -9  13  448.69   19.68
  -4  -9  13  430.15   19.06
  -4  -9  12   17.61    2.93
   4  -9 -12   23.56    3.82
  -4  -9  12   11.34    3.05
  -4  -9  11  321.87   15.47
  -4  -9  11  351.79   16.29
  -4  -9  11  332.88   15.65
  -4  -9  10   20.56    3.31
  -4  -9  10   22.72    3.48
   4  -9 -10   24.31    3.72
  -4  -9  10   19.96    3.29
  -4  -9  10   10.88    2.89
  -4  -9   9   96.24    6.37
   4  -9  -9   90.55    6.54
  -4  -9   9   94.08    6.63
  -4  -9   9   88.21    6.70
  -4  -9   8    3.10    2.69
   4  -9  -8    0.62    2.48
  -4  -9   8    5.98    2.78
   4  -9  -7   89.65    6.68
   4  -9  -7   77.77    8.58
  -4  -9   7   96.50    7.18
  -4  -9   7   92.36    7.42
  -4  -9   6   11.15    3.54
  -4  -9   6   18.40    3.35
   4  -9  -6   10.72    2.73
   4  -9  -6   17.57    4.21
  -4  -9   6   15.62    3.31
  -4  -9   5   13.88    4.03
   4  -9  -5   11.58    2.85
   4  -9  -5    8.72    4.10
  -4  -9   5    7.91    3.07
   4  -9  -5    0.54    3.53
  -4  -9   4    8.70    4.25
   4  -9  -4    5.35    2.60
   4  -9  -4    8.18    4.55
  -4  -9   4   12.81    3.34
   4  -9  -4    2.90    3.93
   4  -9  -3   27.29    3.62
   4  -9  -3   31.13    5.80
  -4  -9   3   28.85    4.40
  -4  -9   3   42.36    5.88
  -4  -9   2    5.37    3.78
  -4  -9   2    6.96    2.53
   4  -9  -2    2.26    1.77
   4  -9  -2    3.59    2.70
  -4  -9   2    5.95    2.82
   4  -9  -2    1.29    3.73
  -4  -9   1   64.29    5.01
   4  -9  -1   48.74    4.29
  -4  -9   1   56.50    5.58
   4  -9  -1   51.79    8.17
  -4  -9   1   62.60    6.73
  -4  -9   0   20.41    4.57
  -4  -9   0   18.99    3.18
   4  -9   0   17.49    2.51
   4  -9   0   19.60    4.39
  -4  -9   0   16.90    3.61
   4  -9   0    6.27    5.01
  -4  -9  -1   56.39    4.84
   4  -9   1   43.08    6.20
  -4  -9  -1   56.04    5.62
   4  -9   1   44.55    8.07
  -4  -9  -2    4.49    2.46
   4  -9   2    3.54    2.51
   4  -9   2    2.90    4.82
  -4  -9  -2    3.92    2.92
  -4  -9  -3  613.01   24.99
  -4  -9  -3  632.12   26.62
   4  -9   3  564.00   32.56
  -4  -9  -3  586.01   27.32
  -4  -9  -4   65.03    5.26
   4  -9   4   47.54    6.51
  -4  -9  -4   61.70    6.10
  -4   9  -4   54.30    4.87
   4  -9   4   45.22    8.00
  -4  -9  -4   66.76    7.06
  -4  -9  -5  225.34   11.37
  -4   9  -5  229.69   11.41
   4  -9   5  178.03   13.73
  -4  -9  -5  215.35   12.52
   4  -9   5  191.23   16.61
  -4  -9  -5  230.64   13.60
  -4  -9  -6    3.19    3.71
  -4   9  -6    5.05    2.36
   4  -9   6    0.68    4.54
  -4   9  -7  489.14   21.37
  -4  -9  -7  493.07   23.35
  -4  -9  -8   37.40    5.53
  -4   9  -8   45.82    4.21
  -4   9  -9  301.90   14.45
  -4  -9  -9  318.61   16.38
  -4  -9  -9  311.37   16.28
  -4  -9 -10    9.21    3.66
  -4   9 -10   15.88    2.80
  -4  -9 -10   11.81    4.15
   4  -9  10   14.14    2.77
  -4   9 -11  282.92   14.05
  -4  -9 -11  332.29   16.36
   4  -9  11  314.28   14.09
  -4  -9 -11  297.32   15.55
  -4  -9 -12   20.41    4.04
  -4  -9 -12   19.00    4.47
  -4   9 -12   23.72    3.07
   4  -9  12   26.14    3.24
  -4  -9 -13  256.07   14.24
   4  -9  13  262.19   12.07
  -4  -9 -13  245.16   13.15
  -4  -9 -14   25.23    3.73
  -4  -9 -14   22.97    4.54
   4  -9  14   24.74    2.91
  -4   9 -15  270.18   12.66
  -4  -9 -15  294.30   14.53
   4  -9  15  273.33   12.43
  -4  -9 -15  268.50   13.25
  -4   9 -16    4.95    1.72
  -4  -9 -16    7.22    2.92
   4  -9  16    7.34    1.83
  -4  -9 -17   50.88    4.82
  -4  -9 -18    2.35    2.31
  -4  -9 -19   36.30    3.72
  -4  -9 -20    2.27    1.64
  -4  -9 -21   16.49    2.10
  -4  -9 -22    4.37    1.17
   4  -9  23    0.71    0.81
   4 -10 -21   17.91    1.71
  -4 -10  20    0.57    1.01
  -4 -10  19    1.01    1.32
   4 -10 -18    1.10    1.44
  -4 -10  18   -1.26    1.54
   4 -10 -17   93.14    5.36
  -4 -10  17   75.94    4.88
   4 -10 -16   -1.83    1.83
  -4 -10  16   -1.19    1.68
   4 -10 -15   24.04    3.09
   4 -10 -14    4.48    2.14
   4 -10 -13   17.83    2.91
   4 -10 -12    0.92    2.02
   4 -10 -11   51.59    4.64
   4 -10 -10    0.92    2.05
  -4 -10  10   -1.51    2.10
  -4 -10   9  141.74    8.01
   4 -10  -9  168.54    8.94
  -4 -10   9  161.71    9.12
  -4 -10   9  162.16    8.99
  -4 -10   8    0.62    2.33
  -4 -10   8   -0.90    2.04
   4 -10  -8    0.36    1.96
  -4 -10   8    1.91    2.23
  -4 -10   7    3.12    2.72
  -4 -10   7    1.10    2.12
   4 -10  -7    2.48    1.98
  -4 -10   7    2.68    2.36
  -4 -10   6    0.24    2.54
  -4 -10   6    1.30    1.94
   4 -10  -6    1.74    1.77
  -4 -10   6    1.17    2.34
  -4 -10   5   29.49    4.29
  -4 -10   5   28.32    3.25
   4 -10  -5   27.41    3.24
  -4 -10   5   31.55    4.09
  -4 -10   4    0.26    2.90
   4 -10  -4   -0.17    1.61
  -4 -10   4    1.00    2.33
  -4 -10   4    0.34    1.82
  -4 -10   3   11.06    3.63
  -4 -10   3   19.03    2.86
   4 -10  -3   14.71    2.46
  -4 -10   3   21.13    3.68
  -4 -10   2    2.32    3.34
  -4 -10   2   -0.35    2.01
   4 -10  -2    0.31    1.49
  -4 -10   2   -0.52    2.43
  -4 -10   1   58.10    4.65
   4 -10  -1   51.30    4.23
  -4 -10   1   69.79    5.97
  -4 -10   1   60.81    6.35
  -4 -10   0    0.63    3.88
  -4 -10   0    4.57    2.48
   4 -10   0    2.16    1.47
  -4 -10   0    4.23    2.84
  -4 -10  -1   15.90    2.99
  -4 -10  -1   14.05    3.41
  -4  10  -2    2.11    1.90
  -4 -10  -2    1.33    2.76
  -4 -10  -3    4.78    3.80
  -4  10  -3    7.46    2.26
  -4 -10  -3    3.45    2.70
  -4 -10  -4   -0.93    3.53
  -4  10  -4    1.63    1.88
  -4 -10  -4    1.06    2.84
  -4 -10  -5    2.11    3.76
  -4  10  -5    1.75    1.70
  -4 -10  -6   -0.58    3.45
  -4  10  -6    0.34    1.74
  -4  10  -7   49.88    4.19
  -4 -10  -7   54.20    5.81
  -4 -10  -8   -2.91    3.53
  -4  10  -8   -0.63    1.66
  -4 -10  -8    0.26    2.97
  -4 -10  -9    5.51    3.25
  -4  10  -9    6.09    1.97
  -4 -10  -9    5.36    3.34
   4 -10   9    5.97    2.38
  -4 -10 -10    0.24    2.67
  -4 -10 -10    0.25    2.91
   4 -10  10    0.46    1.94
  -4  10 -10    1.45    1.62
  -4 -10 -11    1.75    2.57
  -4 -10 -11   -0.99    2.87
   4 -10  11    6.58    2.00
  -4 -10 -12    1.20    2.19
  -4 -10 -12    0.96    2.56
   4 -10  12   -0.14    1.68
  -4 -10 -13    3.15    2.66
   4 -10  13    5.58    1.85
  -4 -10 -13    2.34    2.14
  -4 -10 -14    0.62    2.11
   4 -10  14    0.48    1.47
  -4 -10 -15   15.18    2.87
   4 -10  15   17.09    2.18
  -4 -10 -16    2.99    2.01
   4 -10  16    1.41    1.16
  -4 -10 -17   70.36    4.96
  -4 -10 -18    1.96    1.54
  -4 -10 -19  113.54    5.93
  -4 -10 -20    2.05    1.01
   4 -11 -18    0.57    0.92
   4 -11 -17  181.88    8.14
   4 -11 -16   -1.02    1.47
   4 -11 -15  433.59   17.86
   4 -11 -14    1.40    1.76
   4 -11 -13  371.16   15.97
   4 -11 -12   -0.41    1.99
   4 -11 -11  423.41   18.08
   4 -11 -10    1.71    2.08
   4 -11  -9  271.97   12.53
   4 -11  -8    0.14    2.00
  -4 -11   8    4.41    2.15
   4 -11  -7  159.84    8.31
  -4 -11   7  163.64    9.04
  -4 -11   7  146.33    8.63
   4 -11  -6   -1.82    2.18
  -4 -11   6    1.95    2.27
  -4 -11   6    3.21    2.40
   4 -11  -5  171.99    8.88
  -4 -11   5  167.09    9.89
  -4 -11   4    0.44    2.59
   4 -11  -4    1.07    1.51
  -4 -11   4   -0.64    2.21
   4 -11  -3   87.40    5.45
  -4 -11   3   92.17    6.68
  -4 -11   3  103.39    7.30
  -4 -11   2   -1.71    2.86
   4 -11  -2   -0.13    1.44
  -4 -11   2    0.89    2.11
  -4 -11   1   11.79    3.58
   4 -11  -1    9.13    1.79
  -4 -11   1   11.73    3.02
  -4 -11   0    1.07    3.12
  -4  11   0    0.79    1.69
  -4 -11   0    0.46    2.39
  -4  11  -1   12.68    2.25
  -4 -11  -1   20.33    3.43
  -4  11  -2    0.59    1.57
  -4 -11  -2    0.68    2.64
  -4  11  -3   69.74    4.83
  -4 -11  -3   69.95    6.00
  -4 -11  -3   83.00    7.12
  -4 -11  -4   -0.80    3.47
  -4  11  -4    1.09    1.56
  -4  11  -5  277.04   12.62
  -4 -11  -5  289.93   14.93
  -4 -11  -6   -0.97    3.43
  -4  11  -6    0.99    1.58
  -4 -11  -7  626.35   26.25
  -4  11  -7  560.71   24.18
   4 -11   7  647.98   25.03
  -4 -11  -7  623.33   26.50
  -4 -11  -8   -2.15    3.10
  -4 -11  -8    0.86    2.75
   4 -11   8    0.70    2.07
  -4 -11  -9  412.92   18.87
   4 -11   9  417.95   17.60
  -4 -11  -9  406.17   18.70
  -4 -11 -10    2.83    2.88
   4 -11  10    1.77    1.99
  -4 -11 -10    0.55    2.56
  -4 -11 -11  252.88   13.05
   4 -11  11  277.20   12.06
  -4 -11 -12    3.04    2.47
   4 -11  12    1.10    1.64
  -4 -11 -13  413.38   18.20
   4 -11  13  420.39   17.19
  -4 -11 -14   -1.57    1.93
   4 -11  14    0.65    1.32
  -4 -11 -15  445.97   17.34
   4 -11  15  390.04   15.99
  -4 -11 -16    0.10    1.29
  -4 -11 -17  209.40    9.18
   4 -12 -14    0.18    0.80
   4 -12 -13   -1.43    1.22
   4 -12 -12    0.16    0.98
   4 -12 -11    1.24    1.21
   4 -12 -10    0.19    1.20
   4 -12  -9   91.43    5.04
   4 -12  -8    3.35    1.27
   4 -12  -7   30.86    2.65
   4 -12  -6   -0.09    1.27
  -4 -12   6    2.26    1.65
  -4  12   5    5.13    1.47
   4 -12  -5    4.73    1.37
  -4 -12   5    6.75    2.10
  -4  12   4    1.33    1.17
   4 -12  -4   -1.22    1.16
  -4 -12   4    0.16    1.83
  -4  12   3   15.77    1.96
   4 -12  -3   11.02    1.61
  -4 -12   3   16.79    2.69
  -4  12   2    1.78    1.25
  -4 -12   2    2.66    1.79
  -4  12   1   87.95    4.96
  -4 -12   1   95.78    6.06
  -4  12   0    1.86    1.31
  -4 -12   0    4.13    2.27
  -4  12  -1   14.08    1.90
  -4 -12  -1   19.62    2.99
  -4 -12  -2    1.04    1.98
   4 -12   3   19.15    2.47
   4 -12   4    1.41    1.55
   4 -12   5    7.02    1.84
   4 -12   6    0.22    1.59
  -4 -12  -7    4.67    2.10
   4 -12   7    6.21    1.78
  -4 -12  -8   -1.71    2.26
   4 -12   8    2.46    1.55
  -4 -12  -9   19.43    2.80
   4 -12   9   18.26    2.24
  -4 -12 -10   -1.64    1.64
   4 -12  10   -0.27    1.23
  -4 -12 -11    8.38    1.88
   4 -12  11    9.70    1.51
  -4 -12 -12    3.99    1.40
   4 -12  12    2.65    1.07
  -4 -12 -13   42.68    3.01
   4 -13  -6    0.73    1.00
   4 -13  -5    2.10    1.25
   4 -13  -4    0.65    1.23
   4 -13  -3    2.99    1.45
  -4 -13   2    0.89    1.40
   4 -13  -2   -0.77    1.40
  -4 -13   1    2.58    1.58
  -4 -13   0    3.05    1.34
  -4 -13  -1   66.36    4.23
  -4 -13  -2   11.03    1.81
   4 -13   2   10.61    1.61
   4 -13   3  110.14    5.39
   4 -13   4    8.44    1.39
   4 -13   5   83.78    4.36
  -4 -13  -6   11.23    1.72
   4 -13   6    9.86    1.47
  -4 -13  -7  112.42    5.92
   4 -13   7  122.47    5.50
  -5   0  29    0.47    1.04
  -5   0  28    3.91    1.70
  -5   0  27    1.08    1.57
  -5   0  27   -3.04    2.05
  -5   0  26    0.14    1.75
  -5   0  25   -1.30    1.81
  -5   0  24   10.04    2.60
  -5   0  23   -0.80    2.17
  -5   0  22    3.65    2.58
  -5   0  21   -0.23    2.33
  -5   0  21   -1.62    2.63
  -5   0  20   13.92    3.30
  -5   0  19    1.45    2.36
   5   0 -19   -1.02    3.17
   5   0 -18    6.21    3.70
  -5   0  18    3.93    2.59
  -5   0  17    0.73    2.43
  -5   0  16   26.14    3.95
  -5   0  16   29.89    4.30
  -5   0  15    1.39    2.26
  -5   0  15    2.26    2.72
  -5   0  14    7.61    2.67
  -5   0  14    9.66    3.17
  -5   0  13    0.65    2.15
  -5   0  13    0.24    2.44
  -5   0  12   15.78    2.97
  -5   0  12   19.68    3.43
  -5   0  11    0.20    1.97
  -5   0  11    1.40    2.16
  -5   0  11    1.10    2.34
  -5   0  10   10.73    2.74
  -5   0  10   11.77    2.57
  -5   0  10    8.56    2.66
  -5   0  10   10.71    3.68
  -5   0   9    0.58    1.93
  -5   0   9    2.19    1.78
  -5   0   9    1.77    2.00
  -5   0   9    0.40    2.57
  -5   0   8   11.20    2.56
  -5   0   8    8.97    2.28
  -5   0   8   14.26    2.72
  -5   0   8    8.92    3.64
  -5   0   7   -1.12    2.07
  -5   0   7    1.04    1.65
  -5   0   7    4.91    3.27
  -5   0   6   10.00    2.33
  -5   0   6   10.04    2.43
  -5   0   6    5.02    2.02
  -5   0   6    7.72    3.36
  -5   0   5    0.71    1.79
  -5   0   5    0.49    1.65
  -5   0   5    0.36    2.65
  -5   0   4    7.70    3.20
  -5   0   3    1.37    2.76
  -5   0   2   10.13    3.27
  -5   0   1   -0.33    2.61
  -5   0   0    4.58    2.68
  -5   0  -1    0.66    2.52
  -5   0  -2    4.63    2.79
  -5   0  -3   -0.67    2.52
  -5   0  -4    7.58    3.10
  -5   0  -5    1.42    1.34
  -5   0  -5    2.85    3.11
  -5   0  -6    1.65    1.42
  -5   0  -6    2.55    2.63
  -5   0  -7    0.16    1.52
  -5   0  -7    1.12    2.45
  -5   0  -8    6.03    1.89
  -5   0  -8    6.24    3.20
  -5   0  -9    2.04    2.75
  -5   0 -10   -1.28    2.83
  -5   0 -11   -0.40    1.91
  -5   0 -11    2.22    3.04
  -5   0 -12    9.23    2.63
  -5   0 -12   10.48    3.02
  -5   0 -12   11.60    4.04
  -5   0 -13    0.22    2.17
  -5   0 -13    0.24    2.39
  -5   0 -13    1.45    2.91
  -5   0 -14    0.90    2.28
  -5   0 -14    1.51    2.66
  -5   0 -14    1.00    3.13
  -5   0 -15    2.29    2.44
  -5   0 -15   -1.04    2.71
  -5   0 -15    0.52    3.34
  -5   0 -16    5.81    2.70
  -5   0 -16    6.93    3.13
  -5   0 -16   10.65    4.14
   5   0  17    1.56    2.73
  -5   0 -17    1.40    2.31
  -5   0 -17    1.08    2.53
  -5   0 -17    0.54    3.14
   5   0  18    1.29    2.44
  -5   0 -18    1.64    2.28
  -5   0 -18   -2.17    2.97
  -5   0 -18   -0.54    2.74
   5   0  19   -0.25    2.75
  -5   0 -19   -1.39    2.48
  -5   0 -19    1.06    2.73
  -5   0 -19    3.19    2.76
   5   0  20    1.66    2.36
  -5   0 -20    1.79    2.48
   5   0  21    1.79    2.53
  -5   0 -21   -1.71    2.49
   5   0  22   -0.21    2.51
  -5   0 -22    0.46    2.23
  -5   0 -23    0.85    2.14
   5   0  23   -1.55    2.20
   5   0  24   -1.06    2.09
   5   0  25    1.10    1.92
   5   0  26    2.99    1.74
   5   0  27   -0.80    1.30
   5   0  28    0.46    1.12
   5   0  29    0.34    0.73
  -5  -1  29   -0.13    0.96
  -5  -1  28    1.55    1.42
  -5  -1  27   54.70    4.17
  -5  -1  27   63.96    4.27
  -5   1  27   56.64    3.95
  -5  -1  26    6.24    2.17
  -5  -1  26    8.78    2.22
  -5   1  26    7.89    1.99
  -5  -1  25   38.27    3.83
  -5   1  25   34.70    3.59
  -5  -1  25   42.21    4.15
  -5  -1  24   -2.89    2.77
  -5  -1  24   -0.55    2.34
  -5   1  24   -2.24    2.11
  -5  -1  24    1.13    2.40
  -5  -1  23  176.82    9.58
  -5   1  23  158.68    9.18
  -5  -1  23  160.60    9.50
  -5  -1  22   10.27    3.09
  -5   1  22   11.62    2.89
  -5  -1  22   10.07    3.29
  -5  -1  21  495.18   21.83
  -5   1  21  468.29   21.37
  -5  -1  20    0.48    2.74
  -5   1  20   -0.22    2.63
  -5  -1  19  568.80   23.83
  -5   1  19  538.45   23.31
   5   1 -19  462.07   26.73
   5  -1 -19  467.90   26.62
   5   1 -18   12.06    4.86
  -5  -1  18   23.74    4.31
   5  -1 -18   21.82    5.23
  -5   1  18   17.26    3.66
  -5  -1  18   14.09    3.85
  -5   1  17 1067.10   44.51
  -5  -1  17 1090.99   44.94
  -5  -1  17 1161.72   45.19
  -5  -1  16   28.21    4.59
  -5   1  16   25.24    4.07
  -5  -1  16   22.55    4.29
  -5  -1  15 1377.47   55.05
  -5   1  15 1347.91   54.61
  -5   1  15 1401.72   55.52
  -5  -1  15 1420.22   55.32
  -5  -1  14   33.29    5.07
  -5   1  14   21.00    3.94
  -5   1  14   28.92    4.95
  -5  -1  14   22.88    4.39
  -5  -1  13  436.00   19.46
  -5   1  13  406.82   18.97
  -5   1  13  427.27   19.92
  -5  -1  13  420.07   19.63
  -5   1  12    5.89    2.99
  -5   1  12    4.50    3.64
  -5  -1  12    5.19    3.51
  -5  -1  11  299.13   14.39
  -5   1  11  287.47   14.09
  -5   1  11  298.33   14.90
  -5  -1  11  297.83   14.66
  -5  -1  10    4.70    2.76
  -5   1  10    2.69    2.41
  -5   1  10    9.86    2.75
   5  -1 -10    6.97    2.59
  -5  -1  10    1.41    2.63
  -5   1  10   10.72    3.97
  -5   1   9  161.36    9.02
  -5  -1   9  167.92    9.12
  -5   1   9  161.75    8.75
  -5  -1   9  168.02    9.47
   5  -1  -9  150.68    9.97
  -5   1   9  149.79   11.37
  -5  -1   9  152.78    8.95
  -5  -1   8   26.59    3.89
  -5   1   8   25.99    3.38
   5  -1  -8    9.95    2.92
  -5  -1   8    4.95    2.62
  -5   1   8   15.91    4.76
  -5  -1   7  172.34    9.38
  -5   1   7  169.11    9.20
  -5   1   7  160.25   11.46
  -5  -1   7  161.97    8.94
  -5  -1   6    9.23    2.95
  -5   1   6   13.75    3.05
  -5   1   6   18.09    4.82
  -5   1   5  193.16   10.07
  -5   1   5  205.85   10.47
  -5   1   5  193.02   12.62
  -5  -1   5  214.38   10.47
  -5  -1   4   13.84    2.76
  -5   1   4   10.23    2.21
  -5   1   4   10.93    3.37
  -5  -1   3    7.05    2.16
  -5   1   3    5.90    3.30
  -5   1   2   10.58    3.95
  -5   1   1  251.55   14.45
   5   1   0   27.35    5.40
  -5   1   0    7.24    3.22
   5   1   1   84.36    7.27
  -5   1  -1   70.73    6.77
   5   1   2   11.66    3.32
  -5   1  -2   14.25    3.55
  -5   1  -3  194.83   11.93
  -5   1  -3  182.76    9.18
   5   1   3  186.03   11.70
  -5   1  -4    2.92    1.78
  -5   1  -4    5.50    4.34
  -5   1  -5  334.73   17.85
  -5   1  -5  326.58   14.66
   5   1   5  325.98   17.30
  -5   1  -6   24.69    4.90
   5   1   6   28.98    4.56
  -5   1  -6   23.55    2.86
  -5   1  -7  550.05   22.99
  -5   1  -7  535.78   26.20
  -5   1  -8    5.22    2.21
  -5  -1  -8    2.11    1.94
  -5   1  -8    8.55    3.80
  -5   1  -9  344.80   15.65
  -5  -1  -9  325.50   15.37
  -5   1  -9  361.22   19.14
  -5   1 -10   26.59    3.58
  -5  -1 -10   23.04    3.42
  -5   1 -10   24.67    5.60
  -5  -1 -11 1236.04   49.35
  -5   1 -11 1336.01   54.16
  -5  -1 -11 1236.63   50.50
  -5  -1 -12   14.45    3.69
  -5  -1 -12   25.58    3.86
  -5   1 -12   32.75    4.64
  -5   1 -12   23.21    5.97
  -5  -1 -13 1242.78   50.82
  -5   1 -13 1263.43   51.11
  -5   1 -13 1384.09   51.87
  -5   1 -13 1277.62   55.54
  -5  -1 -14   47.27    5.43
  -5   1 -14   48.62    5.50
  -5   1 -14   58.12    6.64
  -5   1 -14   53.59    8.25
  -5  -1 -15  902.54   36.98
  -5   1 -15  857.12   37.00
  -5   1 -15  937.54   37.80
  -5   1 -15  916.11   41.90
  -5  -1 -16   23.11    3.98
  -5   1 -16   16.02    3.77
  -5   1 -16   22.63    4.83
  -5   1 -16   10.01    5.43
   5   1  16   28.59    4.64
  -5  -1 -17  323.74   15.41
  -5   1 -17  322.64   15.94
   5   1  17  296.46   15.53
  -5   1 -17  291.01   18.95
  -5  -1 -17  296.37   19.01
   5   1  18   11.86    3.55
  -5  -1 -18    9.12    3.31
  -5   1 -18   10.07    3.95
  -5   1 -18    2.66    4.28
  -5  -1 -18    4.84    4.32
  -5  -1 -19  233.39   11.98
  -5   1 -19  229.27   12.37
   5   1  19  207.11   11.90
  -5   1 -19  195.38   14.81
  -5  -1 -19  213.55   15.31
   5   1  20    7.19    3.04
  -5  -1 -20    3.74    2.86
  -5   1 -20    2.24    2.88
  -5   1 -21  102.22    7.25
   5   1  21   96.49    6.99
   5   1  22    2.24    2.34
  -5   1 -22    2.60    2.51
  -5   1 -22    3.56    2.63
  -5   1 -23  166.86    9.27
  -5   1 -23  160.20    9.37
   5   1  23  169.90    9.31
   5   1  24   -1.20    1.99
   5   1  25   54.86    4.33
   5   1  26    4.07    1.68
   5   1  27  104.18    5.72
   5   1  28    0.64    0.78
   5   1  28    0.26    1.08
   5   1  29   59.16    3.34
  -5   2  28    0.30    1.33
  -5  -2  28    0.08    1.08
  -5  -2  27   58.19    4.07
  -5  -2  26    8.62    2.13
  -5  -2  26    6.96    2.09
  -5   2  26    6.27    1.66
  -5  -2  25    1.25    1.89
  -5  -2  25    1.44    1.84
  -5   2  25   -0.67    1.55
  -5  -2  25   -0.33    1.98
  -5  -2  24    0.71    2.13
  -5  -2  24   -1.61    2.18
  -5   2  24    1.83    1.83
  -5  -2  24   -0.55    2.25
  -5  -2  23   46.64    4.66
  -5  -2  23   45.30    4.56
  -5   2  23   43.00    4.10
  -5  -2  22   12.26    3.14
  -5  -2  22    8.17    3.11
  -5   2  22    7.78    2.57
  -5  -2  21   50.16    5.11
  -5   2  21   52.77    4.67
  -5  -2  21   39.44    4.77
  -5  -2  20    1.45    2.60
  -5   2  20    3.50    2.34
  -5  -2  19    7.27    3.02
  -5   2  19   10.17    2.75
   5   2 -19    6.64    3.61
   5  -2 -19    7.74    3.81
  -5  -2  19   10.95    3.25
  -5  -2  18    9.46    3.36
  -5   2  18    6.44    2.95
   5   2 -18    6.23    3.91
   5  -2 -18    2.94    3.32
  -5  -2  18    8.71    3.37
  -5   2  17  126.87    8.09
  -5  -2  17  134.86    8.85
  -5  -2  17  140.92    8.94
   5   2 -17  126.15   11.23
   5  -2 -17  110.66   10.56
  -5  -2  16    7.49    2.93
  -5   2  16    5.40    2.37
  -5  -2  16    6.08    3.28
  -5  -2  15  240.12   12.71
  -5   2  15  226.84   11.95
  -5  -2  15  235.86   12.66
  -5  -2  15  234.26   13.17
  -5  -2  14   53.80    5.68
  -5  -2  14   56.36    5.34
  -5   2  14   55.68    4.77
  -5  -2  14   46.51    5.23
  -5  -2  13  138.33    8.96
  -5  -2  13  137.42    8.56
  -5   2  13  130.20    7.93
   5  -2 -13  133.60    9.61
  -5  -2  13  130.77    8.58
  -5  -2  12   62.82    5.65
  -5  -2  12   60.62    5.22
  -5   2  12   53.50    4.54
   5  -2 -12   48.45    5.61
  -5  -2  12   53.12    5.18
  -5  -2  11    0.93    2.48
  -5  -2  11    3.12    2.26
  -5   2  11    1.37    1.71
   5  -2 -11    1.67    2.08
  -5  -2  11    2.31    2.62
  -5  -2  11    1.89    2.38
  -5  -2  10   26.68    3.70
  -5  -2  10   28.08    3.52
  -5   2  10   24.46    3.06
  -5  -2  10   32.91    3.73
   5  -2 -10   32.00    4.43
  -5   2  10   29.41    3.56
  -5  -2  10   36.74    3.99
  -5   2  10   30.97    4.95
  -5  -2  10   27.90    4.77
  -5   2   9  139.81    8.15
  -5  -2   9  173.87    9.51
  -5   2   9  164.99    9.00
  -5  -2   9  154.34    8.90
   5  -2  -9  165.43   10.69
  -5   2   9  165.32   11.69
  -5  -2   9  150.88   11.29
  -5  -2   9  150.85    8.74
  -5   2   8   94.90    6.31
  -5  -2   8   99.70    6.67
  -5  -2   8   92.21    6.23
   5  -2  -8   85.45    7.45
  -5   2   8   79.09    7.93
  -5  -2   8   85.31    8.06
  -5  -2   8   79.28    5.84
  -5  -2   7    8.89    2.66
  -5   2   7    6.01    2.22
  -5  -2   7    7.31    2.28
  -5  -2   7    5.25    2.02
  -5   2   7    5.36    3.17
  -5  -2   7    6.12    3.14
  -5  -2   6   23.06    3.21
  -5   2   6   27.26    3.33
  -5  -2   6   25.63    3.44
  -5  -2   6   32.84    4.93
  -5  -2   6   20.48    2.77
  -5   2   6   24.74    4.56
  -5  -2   5  198.79   10.33
  -5  -2   5  210.89   10.51
  -5   2   5  191.86   12.55
  -5  -2   5  192.67   12.52
  -5   2   5  193.31   10.25
  -5   2   4  107.54    7.13
  -5  -2   4  141.47    7.68
  -5   2   4  110.79    9.30
  -5  -2   4  130.15    9.64
  -5  -2   4  113.12    7.22
  -5  -2   3   13.87    2.55
  -5   2   3    9.22    3.34
  -5  -2   3   15.11    3.60
  -5  -2   2   15.60    2.63
  -5   2   2   11.52    3.66
  -5  -2   2   18.03    3.95
  -5  -2   1  589.24   25.65
  -5   2   1  633.77   29.07
  -5  -2   1  621.87   28.87
   5   2  -1  695.66   29.30
   5  -2  -1  674.73   29.09
  -5   2   0  223.75   13.95
  -5  -2   0  295.58   15.05
   5   2   0  284.00   14.75
   5  -2   0  299.21   15.00
  -5  -2   0  198.11   10.96
  -5   2  -1  148.30   10.33
  -5  -2  -1  134.48   10.09
  -5  -2  -1  139.19    7.67
   5  -2   1  153.19   10.37
  -5  -2  -2    4.96    1.79
  -5   2  -2    4.08    1.73
   5   2   2    7.47    3.11
   5  -2   2    6.81    3.08
  -5   2  -2    3.71    2.59
  -5  -2  -2    6.49    3.04
  -5  -2  -3  288.94   15.93
  -5   2  -3  286.84   15.78
  -5  -2  -3  250.27   12.59
  -5   2  -3  305.56   13.23
   5   2   3  310.65   16.01
   5  -2   3  315.09   16.19
  -5   2  -4   84.88    7.92
  -5  -2  -4  109.33    8.62
  -5  -2  -4   81.83    5.46
  -5   2  -4   95.87    6.00
   5   2   4  118.63    8.47
   5  -2   4   94.52    7.86
  -5   2  -5   60.76    6.55
  -5  -2  -5   72.27    6.98
  -5  -2  -5   60.27    4.41
  -5   2  -5   71.11    4.91
   5   2   5   72.69    6.70
  -5  -2  -6    6.21    1.69
  -5   2  -6    8.29    2.10
  -5   2  -6   11.76    3.60
  -5  -2  -6    9.38    3.40
  -5   2  -7   40.27    3.74
  -5  -2  -7   35.79    3.37
  -5  -2  -7   33.56    3.12
  -5   2  -7   47.78    5.85
  -5  -2  -7   48.18    5.90
  -5  -2  -8   23.68    4.61
  -5   2  -8   22.12    3.19
  -5  -2  -8   26.83    3.29
  -5   2  -8   17.05    4.77
  -5  -2  -9   -1.04    2.65
  -5   2  -9    1.67    1.94
  -5  -2  -9   -0.16    1.55
  -5   2  -9   -1.21    2.80
  -5  -2  -9   -0.41    3.07
  -5  -2 -10   16.65    3.77
  -5   2 -10   17.04    2.80
  -5  -2 -10   22.71    3.06
  -5   2 -10   15.58    4.33
  -5  -2 -10   23.97    4.77
  -5   2 -11   16.30    2.92
  -5  -2 -11   11.90    2.56
  -5  -2 -11   10.01    3.45
  -5   2 -11   18.47    4.58
  -5  -2 -11   19.23    4.47
  -5  -2 -12    4.49    3.14
  -5  -2 -12    7.06    2.82
  -5   2 -12    8.25    4.35
  -5  -2 -13    1.55    2.06
  -5   2 -13    2.86    3.17
  -5  -2 -13    2.83    3.18
  -5  -2 -14   13.68    3.35
  -5  -2 -14   20.36    4.45
  -5   2 -14   14.95    3.90
  -5   2 -14    6.89    4.33
  -5  -2 -14   22.47    5.82
  -5  -2 -15   16.98    2.93
  -5  -2 -15   12.62    3.21
  -5   2 -15   13.81    3.27
  -5   2 -15   19.69    4.71
  -5  -2 -15   14.09    4.40
   5   2  16   20.77    3.95
  -5  -2 -16   18.61    3.26
  -5  -2 -16   28.42    4.51
  -5   2 -16   17.85    3.97
  -5   2 -16   12.84    4.92
  -5  -2 -16   18.03    5.31
   5  -2  16   17.44    3.67
  -5  -2 -17   80.21    6.29
  -5  -2 -17   92.10    7.05
  -5   2 -17   94.83    7.11
   5   2  17   84.59    6.75
   5  -2  17   90.32    7.05
  -5   2 -17   93.25    9.28
  -5  -2 -17   79.46    8.83
   5   2  18    3.88    2.66
   5  -2  18    7.21    2.89
  -5  -2 -18    9.24    2.71
  -5   2 -18    3.22    2.52
  -5  -2 -18    4.43    2.72
  -5   2 -18    7.88    2.99
  -5   2 -18    9.24    3.52
  -5  -2 -18    4.17    3.52
   5   2  19   21.19    3.53
   5  -2  19   18.15    3.47
  -5   2 -19   17.03    3.29
  -5  -2 -19   21.52    3.66
  -5   2 -19   22.13    3.58
   5   2  20   13.44    3.11
   5  -2  20   12.89    3.13
  -5   2 -20    9.31    2.97
  -5  -2 -20   14.55    3.35
  -5   2 -20    6.83    3.00
  -5   2 -21   59.99    5.29
  -5  -2 -21   71.70    5.68
  -5   2 -21   61.14    5.43
   5   2  21   61.34    5.31
   5  -2  21   66.38    5.48
   5   2  22    5.20    2.41
   5  -2  22    6.33    2.30
  -5   2 -22    3.67    2.38
  -5   2 -23   11.87    2.68
   5   2  23   12.56    2.62
   5  -2  23   15.45    2.81
   5   2  24    0.95    1.77
   5  -2  24    1.47    1.89
   5   2  25    5.72    1.91
   5  -2  25    7.88    2.03
   5   2  26    3.69    1.57
   5  -2  26    4.40    1.68
   5   2  27    5.22    1.43
   5  -2  27    3.97    1.44
   5   2  28    0.76    0.86
   5   2  28    3.09    1.08
   5  -2  28    2.26    1.01
  -5   3  29    1.36    0.92
   5  -3 -28    4.96    1.16
  -5   3  28    5.64    1.47
  -5  -3  27   35.86    2.76
  -5  -3  26    0.86    1.45
  -5  -3  26    3.03    1.68
  -5  -3  25   30.94    3.18
  -5   3  25   27.93    2.69
  -5  -3  25   29.62    3.43
  -5  -3  24   45.73    4.07
  -5   3  24   39.34    3.46
  -5  -3  23  269.32   12.58
  -5   3  23  236.31   11.62
  -5  -3  22   36.80    4.29
  -5   3  22   30.81    3.59
  -5  -3  21  412.43   18.37
  -5   3  21  367.33   17.37
  -5  -3  21  409.92   18.42
  -5   3  20  183.61   10.47
  -5  -3  20  208.73   11.49
  -5  -3  19  876.54   34.69
  -5  -3  19  848.14   34.26
  -5  -3  18   64.95    6.12
  -5   3  18   37.40    4.42
   5   3 -18   50.56    7.43
   5  -3 -18   43.22    6.68
  -5  -3  18   58.85    5.80
  -5  -3  17  346.38   16.83
  -5   3  17  295.35   15.04
  -5  -3  17  349.78   16.41
   5   3 -17  318.17   19.59
   5  -3 -17  303.29   19.10
  -5  -3  16  247.87   12.85
  -5  -3  16  238.78   12.49
  -5  -3  15 1342.07   49.98
  -5   3  15 1119.69   48.20
   5  -3 -15 1182.65   51.86
  -5  -3  15 1340.31   49.91
  -5  -3  14  197.17   11.01
   5  -3 -14  173.02   12.06
  -5  -3  14  176.76   10.74
  -5  -3  13  750.68   30.42
   5  -3 -13  656.07   32.17
  -5  -3  13  710.69   30.29
  -5  -3  12  262.24   13.42
  -5  -3  12  256.95   13.07
   5  -3 -12  219.74   14.23
  -5  -3  12  240.26   12.96
  -5  -3  11  786.64   30.70
   5  -3 -11  699.73   32.31
  -5  -3  11  687.54   29.75
  -5  -3  11  674.33   30.12
   5  -3 -10   83.50    7.96
  -5  -3  10   84.17    6.66
  -5  -3  10   67.93    6.97
  -5  -3   9  392.22   16.57
  -5   3   9  338.13   15.62
  -5  -3   9  313.12   15.43
   5  -3  -9  350.78   18.37
  -5   3   9  317.91   18.50
  -5  -3   9  318.43   18.55
  -5  -3   9  315.12   15.49
  -5  -3   9  326.39   16.71
  -5   3   8  132.17    8.15
  -5  -3   8  186.84    9.46
  -5  -3   8  163.84    8.68
   5  -3  -8  133.80   10.22
  -5   3   8  146.50   10.82
  -5  -3   8  154.26   11.31
  -5  -3   8  122.01    7.98
  -5  -3   8  127.44    9.26
  -5  -3   7  312.98   14.21
  -5   3   7  299.12   13.71
  -5   3   7  274.57   16.22
  -5  -3   7  283.34   16.29
  -5  -3   7  282.60   13.52
  -5  -3   7  248.57   12.96
  -5  -3   7  283.31   14.96
  -5  -3   6   29.36    5.32
  -5  -3   6   71.32    5.37
  -5   3   6   40.17    4.37
  -5   3   6   51.21    6.37
  -5  -3   6   56.46    6.34
  -5  -3   6   49.80    4.30
  -5  -3   5   24.80    5.01
  -5   3   5   33.22    3.68
  -5   3   5   37.24    5.16
  -5  -3   5   36.83    5.45
  -5  -3   5   30.82    3.89
  -5  -3   5   30.47    3.73
  -5   3   4   34.68    3.84
  -5  -3   4   48.12    4.37
  -5  -3   4   47.33    4.22
  -5  -3   4   51.80    6.13
  -5   3   4   32.31    5.36
  -5  -3   3   49.82    4.31
  -5  -3   3   45.44    4.28
  -5   3   3   52.84    6.09
  -5  -3   3   47.09    5.75
  -5   3   3   51.74    4.37
  -5  -3   2   45.13    4.26
  -5  -3   2   54.42    5.95
   5   3  -2   69.94    7.53
   5  -3  -2   66.08    6.70
  -5  -3   1  313.29   14.71
  -5   3   1  339.70   17.83
  -5  -3   1  309.29   17.33
   5   3  -1  336.06   17.59
   5  -3  -1  346.57   17.63
  -5  -3   0  168.68    8.87
  -5   3   0  140.88   10.79
  -5  -3   0  172.05   11.53
   5   3   0  184.66   11.49
   5  -3   0  182.58   11.40
  -5  -3  -1  429.79   19.17
  -5   3  -1  464.60   22.46
  -5  -3  -1  462.49   22.42
   5   3   1  453.06   21.99
   5  -3   1  468.20   22.05
  -5  -3  -2   25.06    3.09
  -5  -3  -2   40.73    5.31
   5   3   2   34.65    4.90
   5  -3   2   39.15    4.98
  -5   3  -2   29.31    4.67
  -5  -3  -2   29.54    4.75
  -5   3  -3  203.82   12.73
  -5  -3  -3  197.59   10.12
  -5  -3  -3  196.33   12.68
  -5   3  -3  210.10   10.51
   5   3   3  237.44   13.12
   5  -3   3  231.44   12.99
  -5  -3  -3  208.28   12.29
  -5  -3  -4  117.80    9.13
  -5   3  -4  118.06    9.08
  -5  -3  -4  113.78    6.68
  -5   3  -4  113.97    6.95
   5   3   4  124.64    9.08
   5  -3   4  117.18    8.84
  -5  -3  -4  127.55    8.91
  -5   3  -5  553.60   25.68
  -5  -3  -5  549.65   25.74
  -5  -3  -5  494.79   21.97
  -5   3  -5  551.84   22.65
   5   3   5  533.96   25.10
   5  -3   5  534.78   25.14
  -5  -3  -5  540.31   24.42
  -5   3  -6   60.62    6.80
  -5  -3  -6   76.00    7.50
  -5  -3  -6   68.87    4.82
  -5   3  -6   63.40    4.90
  -5  -3  -6   63.58    6.65
  -5   3  -7  469.97   22.75
  -5  -3  -7  438.09   22.44
  -5  -3  -7  404.36   18.52
  -5   3  -7  454.66   19.35
  -5  -3  -7  465.17   21.28
  -5   3  -8  252.32   15.22
  -5  -3  -8  285.61   15.85
  -5  -3  -8  241.76   11.67
  -5   3  -8  247.70   12.25
  -5  -3  -8  236.45   13.58
  -5  -3  -9  874.87   35.81
  -5  -3  -9  872.33   35.91
  -5  -3  -9  924.12   38.14
  -5   3  -9  962.82   40.49
  -5  -3  -9 1000.22   40.83
  -5  -3 -10  136.88    7.56
  -5  -3 -10  129.78    7.71
  -5  -3 -10  133.36    9.43
  -5   3 -10  120.09   10.72
  -5  -3 -11  441.78   20.14
  -5  -3 -11  478.64   21.96
  -5   3 -11  497.93   24.62
  -5  -3 -11  487.39   24.50
  -5  -3 -12  246.05   11.97
  -5  -3 -12  226.04   13.05
  -5   3 -12  222.50   15.32
  -5  -3 -12  256.23   15.91
  -5  -3 -13  558.09   24.16
  -5   3 -13  628.81   29.37
  -5  -3 -13  601.87   28.97
  -5  -3 -13  539.69   25.11
  -5  -3 -14  142.06    8.28
  -5  -3 -14  157.32   12.29
   5   3  15  421.08   19.39
   5  -3  15  423.48   19.43
  -5   3 -15  396.17   22.76
  -5  -3 -15  383.01   22.50
  -5   3 -16  191.52   10.78
   5   3  16  206.66   11.15
   5  -3  16  184.78   10.94
  -5   3 -16  163.00   13.39
  -5  -3 -16  175.96   13.75
  -5   3 -17  417.26   19.17
   5   3  17  422.06   19.31
   5  -3  17  421.88   19.36
  -5   3 -17  393.14   22.84
  -5  -3 -17  386.75   22.70
  -5   3 -18   55.96    5.42
   5   3  18   66.32    5.64
  -5   3 -19   52.90    5.17
   5   3  19   53.92    5.05
   5  -3  19   45.78    4.94
  -5   3 -20   79.20    6.16
   5   3  20   96.72    6.54
   5  -3  20   76.92    6.16
  -5   3 -21  217.92   11.56
   5   3  21  222.09   11.39
   5  -3  21  225.63   11.51
  -5   3 -22   30.25    3.69
   5   3  22   39.69    3.95
   5  -3  22   31.06    3.64
  -5   3 -23   16.95    2.85
   5   3  23   20.25    2.86
   5  -3  23   22.10    3.04
  -5   3 -24    9.95    2.28
   5   3  24   14.79    2.40
   5  -3  24    7.46    2.08
   5   3  25    2.28    1.48
   5  -3  25    2.09    1.46
   5   3  26    2.36    1.31
   5  -3  26    0.80    1.32
   5   3  27   14.58    1.67
   5  -3  27   14.29    1.71
  -5  -3 -28    2.56    1.24
  -5   4  28    3.89    1.22
   5  -4 -27    1.16    1.11
  -5  -4  26   25.32    2.18
   5  -4 -26   19.73    2.42
  -5  -4  25   28.17    2.74
  -5  -4  24   15.97    2.45
  -5  -4  23   31.34    3.40
  -5  -4  22   65.99    5.15
  -5  -4  22   63.56    5.38
  -5  -4  21  182.04    9.70
  -5  -4  21  168.94    9.86
  -5  -4  20   49.25    4.87
  -5  -4  20   55.91    5.28
  -5  -4  19   26.28    3.90
  -5  -4  19   25.20    4.14
  -5  -4  18    3.80    2.69
  -5  -4  18    6.77    3.14
  -5  -4  17   29.59    4.16
   5   4 -17   23.38    5.08
   5  -4 -17   29.80    5.31
  -5  -4  17   31.90    4.41
   5   4 -16   17.92    4.27
   5  -4 -16    9.89    3.49
   5  -4 -16   16.88    3.76
  -5  -4  16   14.10    3.52
  -5  -4  16   16.14    3.62
  -5  -4  15    0.48    2.74
   5   4 -15    2.42    3.22
   5  -4 -15    4.07    3.01
   5  -4 -15    1.25    2.42
  -5  -4  15    3.46    2.79
  -5  -4  14   19.47    3.79
   5  -4 -14   23.53    4.30
  -5  -4  14   24.11    4.11
   5  -4 -13   30.06    4.93
  -5  -4  13   32.67    4.46
   5  -4 -12    1.64    2.52
  -5  -4  12    0.65    2.50
   5  -4 -11   45.41    5.73
  -5  -4  11   34.51    4.35
  -5  -4  11   35.48    4.46
   5  -4 -10   51.20    6.31
  -5  -4  10   53.49    4.89
  -5  -4  10   47.50    5.19
   5  -4  -9  202.30   13.07
  -5  -4   9  171.02    9.86
  -5  -4   9  199.92   10.68
  -5  -4   9  191.12   11.17
  -5  -4   8   37.88    4.20
  -5  -4   8   32.35    3.58
   5  -4  -8   29.81    4.98
  -5  -4   8   29.04    3.55
  -5   4   8   32.36    3.48
  -5   4   8   29.45    4.81
  -5  -4   8   28.82    5.00
  -5  -4   8   35.79    4.66
  -5  -4   7   17.87    3.92
  -5  -4   7   20.18    3.25
  -5   4   7   18.37    2.87
  -5  -4   7   16.38    2.70
   5  -4  -7   12.08    3.76
  -5   4   7   17.08    4.03
  -5  -4   7   17.50    4.01
  -5  -4   6   13.21    3.57
  -5  -4   6   16.10    2.97
  -5   4   6   10.34    2.38
  -5  -4   6   13.93    2.59
  -5   4   6   14.54    3.69
  -5  -4   6   13.77    3.64
  -5  -4   5   60.28    4.97
  -5   4   5   60.75    4.77
  -5  -4   5   62.99    4.80
  -5   4   5   57.19    6.33
  -5  -4   5   49.60    5.85
  -5  -4   5   61.85    6.12
  -5  -4   4   22.88    2.95
  -5  -4   4   29.05    4.61
  -5  -4   4   19.49    3.05
  -5   4   4   27.76    3.20
  -5   4   4   30.28    4.67
  -5  -4   4   24.61    4.24
  -5   4   3   66.15    5.04
  -5  -4   3   62.05    5.05
  -5  -4   3   71.34    5.14
  -5   4   3   63.92    6.64
  -5  -4   3   65.45    6.67
   5   4  -3   68.43    6.58
   5  -4  -3   73.64    6.75
  -5  -4   3   76.13    6.93
  -5  -4   2   35.79    5.16
  -5  -4   2   33.90    3.72
  -5   4   2   34.02    3.57
  -5  -4   2   38.61    5.04
  -5  -4   2   31.79    3.48
   5   4  -2   41.93    5.12
   5  -4  -2   44.24    5.08
  -5   4   2   31.49    4.59
  -5  -4   1   40.49    3.98
  -5   4   1   50.86    5.76
  -5  -4   1   43.34    5.36
   5   4  -1   48.12    5.41
   5  -4  -1   35.85    4.87
  -5  -4   0    1.14    1.63
   5   4   0    6.76    2.93
   5  -4   0    5.16    2.99
  -5   4   0    1.77    2.56
  -5  -4   0    0.70    2.34
  -5  -4   0    1.95    1.98
  -5  -4  -1    9.55    3.88
  -5  -4  -1   11.19    2.47
   5   4   1   10.98    3.13
  -5  -4  -1    9.04    2.39
   5  -4   1   12.33    3.63
  -5   4  -1   13.75    3.65
  -5  -4  -1   11.62    3.31
  -5  -4  -2   10.34    3.96
  -5  -4  -2    9.15    2.35
   5   4   2   14.12    3.69
   5  -4   2    9.39    3.31
  -5  -4  -2    6.74    2.31
  -5   4  -2    5.60    2.80
  -5  -4  -2   14.76    3.70
  -5  -4  -3    4.26    2.05
  -5  -4  -3    1.20    3.25
   5   4   3    8.05    2.96
   5  -4   3    4.57    2.85
  -5  -4  -3    0.22    1.97
  -5   4  -3    1.04    2.90
  -5  -4  -3    2.81    2.93
  -5  -4  -4    6.51    3.50
  -5  -4  -4    4.38    2.07
  -5   4  -4    4.07    2.13
  -5   4  -4    6.99    2.98
  -5  -4  -4    8.18    3.37
  -5  -4  -5   25.00    4.55
  -5  -4  -5   39.31    5.21
  -5  -4  -5   33.11    3.47
  -5   4  -5   31.44    4.67
  -5  -4  -6   23.83    4.50
  -5  -4  -6   24.87    3.08
  -5   4  -6   25.53    4.27
  -5  -4  -6   32.73    4.70
  -5   4  -7   42.98    5.51
  -5  -4  -7   49.20    5.80
  -5  -4  -7   46.42    4.12
  -5  -4  -7   46.67    5.54
  -5  -4  -8   21.24    2.95
  -5  -4  -8   11.28    3.89
  -5   4  -8    8.68    3.49
  -5  -4  -8   19.24    4.56
  -5  -4  -9    3.07    3.29
  -5  -4  -9    7.51    2.31
  -5   4  -9    7.41    3.95
  -5  -4  -9    7.93    3.50
  -5  -4 -10    7.73    3.40
  -5   4 -10   10.02    2.43
  -5  -4 -10   14.00    2.57
  -5   4 -10    6.43    3.24
  -5  -4 -10   12.18    3.87
  -5  -4 -11    0.81    2.81
  -5   4 -11    1.64    1.96
  -5   4 -11    2.07    2.66
  -5  -4 -11   -0.42    2.31
  -5  -4 -12    0.79    2.81
  -5   4 -12    2.73    2.27
  -5   4 -12    5.10    3.03
  -5  -4 -12    0.43    2.51
  -5  -4 -13   12.28    3.28
  -5   4 -13   10.93    3.00
  -5   4 -13   11.78    4.04
  -5  -4 -13   20.91    4.54
  -5  -4 -14    0.24    2.39
   5   4  14   -0.45    2.18
   5  -4  14   -0.23    2.37
  -5   4 -14   -0.45    2.64
  -5  -4 -14    0.45    2.47
   5  -4  14    2.35    3.47
   5   4  15    1.36    2.28
   5  -4  15   -0.47    2.30
  -5   4 -15    0.91    2.52
   5  -4  15   -1.11    3.29
   5   4  16   12.02    2.89
   5  -4  16   10.15    2.86
  -5   4 -16    9.89    2.91
  -5   4 -16   16.03    4.02
  -5  -4 -16    8.24    3.37
   5   4  17   23.76    3.39
   5  -4  17   23.44    3.55
  -5   4 -17   17.56    3.36
   5   4  18   23.61    3.38
   5  -4  18   28.02    3.56
  -5   4 -18   22.86    3.59
  -5   4 -19   61.03    5.46
   5   4  19   66.63    5.23
   5  -4  19   70.81    5.45
  -5   4 -20   30.31    3.74
   5   4  20   32.60    3.59
   5  -4  20   25.80    3.50
  -5   4 -21   13.51    2.99
   5   4  21   18.21    2.79
   5  -4  21   15.43    2.83
  -5   4 -22    8.23    2.45
   5   4  22   11.43    2.17
   5  -4  22    9.24    2.23
  -5   4 -23   25.57    3.05
   5   4  23   22.54    2.65
   5  -4  23   19.17    2.54
  -5   4 -24   30.01    3.09
   5   4  24   28.03    2.70
   5  -4  24   24.79    2.68
   5   4  25  129.39    6.37
   5  -4  25  132.31    6.45
  -5  -4 -26   80.59    5.01
   5   4  26   63.26    3.63
  -5  -4 -27  125.34    6.47
  -5   5  27    0.71    0.88
   5  -5 -26    6.94    1.48
   5  -5 -25   22.97    2.52
  -5  -5  24   26.62    2.49
   5  -5 -24   32.40    3.15
  -5  -5  24   32.25    3.26
  -5  -5  23   21.73    2.50
  -5  -5  23   25.11    3.26
  -5  -5  22   14.26    2.32
  -5  -5  22   15.52    2.90
  -5  -5  21    3.10    1.91
  -5  -5  21    4.12    2.48
  -5  -5  20    7.03    2.30
  -5  -5  20    6.72    2.77
  -5  -5  19   40.69    4.22
  -5  -5  19   49.98    5.01
  -5  -5  18   94.15    6.56
  -5  -5  18   91.54    7.01
  -5  -5  17  148.66    9.03
  -5  -5  17  159.67    9.52
  -5  -5  16  130.19    8.37
  -5  -5  16  131.95    8.56
   5  -5 -15  134.18   11.00
  -5  -5  15  154.18    9.38
  -5  -5  15  136.86    8.87
  -5  -5  14  119.69    7.90
   5  -5 -14   94.83    9.09
  -5  -5  14  107.66    7.67
   5  -5 -14   79.42    8.60
  -5  -5  13   87.09    6.89
   5  -5 -13   89.81    8.82
  -5  -5  13   81.71    6.88
  -5  -5  12   69.29    5.98
   5  -5 -12   58.82    7.11
  -5  -5  12   54.48    5.65
  -5  -5  11  113.59    7.72
   5  -5 -11  123.28   10.06
  -5  -5  11   94.06    7.32
  -5  -5  11  110.15    7.79
   5  -5 -10  117.53    9.95
  -5  -5  10  110.67    7.48
  -5  -5  10  104.51    7.80
   5  -5  -9  210.15   13.65
  -5  -5   9  174.76   10.06
  -5  -5   9  192.57   11.26
   5  -5  -8  129.23   10.42
  -5  -5   8  107.18    7.07
  -5  -5   8  123.84    8.58
   5  -5  -7  126.81   10.57
  -5  -5   7  119.27    8.84
  -5  -5   6  156.84    7.88
  -5   5   6  113.98    7.16
   5  -5  -6  101.61    9.88
  -5   5   6  104.41    9.51
  -5  -5   6  133.10   10.09
   5   5  -6  140.57   10.17
   5  -5  -6  139.46   10.19
  -5  -5   6  111.72    9.29
  -5   5   5  128.45    7.11
  -5   5   5  124.37    9.35
  -5  -5   5   93.21    8.86
  -5  -5   5  104.02    6.74
   5   5  -5  101.88    8.88
   5  -5  -5  134.92    9.80
  -5  -5   5  129.43    7.91
  -5  -5   5   80.58    8.55
  -5  -5   4   82.77    5.80
  -5  -5   4   65.63    4.92
  -5   5   4   54.82    6.20
  -5  -5   4   70.88    6.91
   5   5  -4   81.12    7.00
   5  -5  -4   59.12    6.45
  -5   5   4   46.13    4.40
  -5  -5   4   67.81    7.05
  -5  -5   3   25.48    4.96
  -5  -5   3   19.19    2.86
  -5  -5   3   23.82    3.46
   5   5  -3   22.37    4.10
   5  -5  -3   29.24    4.47
  -5   5   3   25.85    4.39
  -5  -5   3   21.01    4.22
  -5   5   3   31.30    3.34
  -5  -5   2    1.92    3.72
  -5  -5   2    7.58    2.50
  -5   5   2    3.84    1.80
  -5  -5   2    5.22    1.97
  -5  -5   2    3.95    1.98
   5   5  -2   11.25    3.01
   5  -5  -2    4.72    2.53
  -5   5   2    1.35    2.15
  -5  -5   2   10.26    2.97
  -5  -5   1   -1.97    3.42
  -5  -5   1    0.39    2.07
  -5   5   1    0.17    1.49
  -5  -5   1   -0.17    1.54
  -5  -5   1   -0.40    1.77
   5   5  -1    0.61    1.92
   5  -5  -1    1.57    2.09
  -5   5   1   -0.34    2.14
  -5  -5   1    2.72    2.26
  -5  -5   0   -0.19    2.05
  -5   5   0   -0.17    1.57
  -5  -5   0   -1.01    1.65
  -5  -5   0    0.42    1.75
   5   5   0    1.80    2.09
   5  -5   0    0.93    2.04
  -5   5   0   -0.34    2.23
  -5  -5   0    1.69    2.28
  -5  -5  -1   11.67    2.69
   5   5   1    6.88    2.52
   5  -5   1    9.95    3.03
  -5  -5  -1    8.01    2.33
  -5   5  -1    8.42    2.86
  -5  -5  -1    8.13    2.68
  -5  -5  -2   44.06    5.90
  -5  -5  -2   49.44    4.48
  -5   5  -2   40.48    5.08
  -5  -5  -2   47.26    5.41
  -5  -5  -2   45.34    4.67
  -5  -5  -3  179.05    9.78
  -5   5  -3  184.44   11.64
  -5  -5  -3  180.12   11.65
  -5  -5  -3  179.47   10.54
  -5  -5  -3  196.68   12.22
  -5  -5  -4  353.60   16.62
  -5   5  -4  353.74   18.80
  -5  -5  -4  371.78   18.98
  -5  -5  -4  375.37   17.75
  -5  -5  -4  385.08   19.10
  -5  -5  -5  695.00   28.84
  -5  -5  -5  666.76   31.14
  -5   5  -5  693.59   31.31
  -5   5  -5  701.50   29.10
  -5  -5  -5  678.77   29.94
  -5  -5  -5  746.65   31.40
  -5  -5  -6  297.50   13.98
  -5  -5  -6  297.59   16.22
  -5   5  -6  268.46   15.77
  -5   5  -6  286.95   14.02
  -5  -5  -6  305.99   15.32
  -5  -5  -6  289.03   15.97
  -5   5  -7   89.01    7.92
  -5  -5  -7   87.58    6.13
  -5  -5  -7   80.28    7.58
  -5   5  -7  101.05    6.59
  -5  -5  -7   93.32    7.88
  -5  -5  -8   52.75    4.64
  -5   5  -8   41.15    5.87
  -5  -5  -8   57.04    6.33
  -5   5  -8   54.16    4.88
  -5  -5  -8   55.77    6.20
  -5  -5  -9  163.58   11.10
  -5  -5  -9  155.47    8.82
  -5   5  -9  163.02    9.13
  -5  -5  -9  157.59   10.55
  -5   5  -9  147.03   10.74
  -5  -5 -10  195.45   13.03
  -5  -5 -10  208.64   10.80
  -5   5 -10  215.11   11.16
  -5  -5 -10  217.31   12.60
  -5  -5 -11  223.74   14.17
  -5   5 -11  242.91   12.26
   5  -5  11  232.31   17.67
  -5  -5 -11  238.85   13.36
  -5  -5 -12  195.89   13.13
   5  -5  12  188.77   16.10
   5   5  12  222.21   11.18
   5  -5  12  204.27   11.14
  -5   5 -12  204.53   11.13
  -5  -5 -12  215.27   12.20
  -5  -5 -13  328.63   18.90
  -5   5 -13  352.91   16.60
   5  -5  13  351.72   22.49
   5   5  13  354.93   16.38
   5  -5  13  356.91   16.61
  -5  -5 -13  347.42   17.32
   5  -5  14  155.51   14.16
   5   5  14  190.55   10.06
   5  -5  14  179.29   10.10
  -5  -5 -14  184.78   10.81
   5   5  15   80.57    5.95
   5  -5  15   86.53    6.19
  -5   5 -16   63.43    5.46
   5   5  16   63.98    5.03
   5  -5  16   57.25    4.98
  -5   5 -17  115.79    7.63
   5   5  17  107.44    6.78
   5  -5  17  109.97    6.98
  -5   5 -18   52.04    4.84
   5   5  18   51.95    4.30
   5  -5  18   50.34    4.34
  -5   5 -19    4.22    2.29
   5   5  19    0.30    1.63
   5  -5  19   -0.16    1.72
  -5   5 -20    2.50    1.97
   5   5  20   -0.14    1.49
   5  -5  20   -0.57    1.65
  -5   5 -21   12.10    2.45
   5   5  21    7.30    1.79
  -5   5 -22   13.23    2.40
   5   5  22    9.93    1.78
  -5   5 -23    5.76    1.85
  -5  -5 -23    2.22    2.37
  -5  -5 -24    2.72    1.91
  -5  -5 -25    6.52    1.90
  -5  -5 -26   11.25    1.78
   5  -6 -26   47.56    2.94
  -5  -6  26   50.27    3.20
   5  -6 -25   58.71    3.73
  -5  -6  25   62.51    3.92
   5  -6 -24   65.57    4.24
  -5  -6  24   62.98    4.31
   5  -6 -23   39.57    3.46
  -5  -6  23   37.43    3.47
  -5  -6  22  112.27    6.11
  -5  -6  22  132.45    7.12
  -5  -6  21   91.71    5.55
  -5  -6  21  109.18    6.53
  -5  -6  20   49.37    3.88
  -5  -6  20   39.83    4.37
  -5  -6  19    1.45    1.85
  -5  -6  19    3.04    2.53
  -5  -6  18   15.34    2.60
  -5  -6  18   14.88    3.19
  -5  -6  17    9.16    2.45
  -5  -6  17    7.85    3.13
  -5  -6  16    6.29    2.49
  -5  -6  16    5.64    2.97
  -5  -6  15   63.53    5.25
  -5  -6  15   71.22    5.86
  -5  -6  14   62.07    5.36
  -5  -6  14   67.66    5.78
  -5  -6  13   45.97    4.65
   5  -6 -13   50.63    6.48
  -5  -6  13   48.86    4.98
   5  -6 -12  217.79   14.83
  -5  -6  12  222.57   11.75
  -5  -6  12  222.65   11.69
  -5  -6  11  352.34   16.57
   5  -6 -11  365.01   20.39
  -5  -6  11  338.94   16.38
  -5  -6  11  356.55   17.01
  -5  -6  10  347.57   16.07
   5  -6 -10  357.20   19.94
  -5  -6  10  299.50   15.56
  -5  -6  10  360.28   16.84
   5  -6  -9  108.23    9.70
  -5  -6   9  107.90    7.22
  -5  -6   9   95.06    6.80
  -5  -6   9  107.33    7.84
  -5  -6   8  139.32    8.59
   5  -6  -8  134.00   11.32
  -5  -6   8  140.53    9.50
   5  -6  -7  230.49   14.94
   5  -6  -7  198.08   15.57
  -5  -6   7  202.01   12.23
   5  -6  -6  285.50   18.10
  -5  -6   6  305.56   15.99
   5  -6  -5  145.62   11.77
  -5  -6   5  143.67   10.04
  -5  -6   4  235.32   12.25
  -5  -6   4  277.67   14.66
   5  -6  -3  214.81   11.15
  -5  -6   3  229.89   11.77
  -5  -6   2  375.78   16.38
  -5  -6   2  353.16   18.33
  -5  -6   1  233.05   12.57
  -5  -6   1  265.87   12.71
  -5  -6   1  238.04   14.74
  -5  -6   0  420.28   18.47
  -5  -6   0  384.66   18.60
  -5  -6  -1  333.47   15.31
  -5  -6  -1  302.44   15.57
  -5  -6  -2  104.34    8.06
  -5  -6  -2  118.79    9.93
  -5  -6  -3   54.02    5.02
  -5  -6  -3   40.96    5.02
  -5  -6  -3   47.35    6.81
  -5  -6  -4   27.57    5.58
  -5  -6  -4   32.38    4.00
  -5  -6  -4   17.73    3.98
  -5   6  -4   24.50    3.60
  -5   6  -5  128.32    7.87
  -5  -6  -5  120.35    7.59
  -5  -6  -5  113.40    8.42
  -5  -6  -5  115.46    9.23
  -5  -6  -6  353.69   16.07
  -5   6  -6  319.28   15.83
  -5  -6  -6  333.62   17.12
  -5  -6  -6  360.85   18.10
  -5  -6  -7  205.62   10.89
  -5   6  -7  217.27   11.06
   5  -6   7  189.43   16.50
  -5  -6  -7  203.35   12.02
  -5  -6  -7  199.29   12.58
  -5   6  -8  119.70    7.70
  -5  -6  -8  124.98    7.65
   5  -6   8  105.64   12.16
  -5  -6  -8  122.21    8.90
  -5  -6  -8  119.31    9.19
  -5   6  -9   90.25    6.25
  -5  -6  -9   76.83    7.23
   5  -6   9   58.31    9.34
  -5  -6  -9   66.66    7.15
  -5  -6  -9   77.23    5.83
  -5  -6 -10   42.43    5.66
  -5   6 -10   24.14    3.79
  -5  -6 -10   35.07    5.69
  -5  -6 -11   29.22    5.03
  -5   6 -11   51.48    4.72
   5  -6  11   47.35    8.43
  -5  -6 -11   26.57    5.21
  -5  -6 -12   21.55    4.14
  -5   6 -12   21.04    3.28
   5  -6  12   12.34    5.36
  -5  -6 -12   13.29    4.22
  -5  -6 -13   16.77    3.72
  -5   6 -13   19.94    3.23
  -5  -6 -14   11.53    3.26
  -5  -6 -15   26.43    3.64
  -5   6 -16   27.58    3.65
  -5   6 -17    5.07    2.35
  -5  -6 -17    4.60    3.17
  -5   6 -18   27.51    3.41
  -5  -6 -18   23.93    4.07
  -5   6 -19   68.13    5.03
  -5  -6 -19   57.25    5.73
  -5   6 -20  145.51    8.04
  -5  -6 -20  151.98    9.21
  -5   6 -21  114.63    6.48
  -5  -6 -21  106.16    7.30
  -5   6 -22  134.70    7.26
  -5  -6 -22  152.48    8.42
  -5   6 -23  100.33    5.47
  -5  -6 -23  100.35    6.33
  -5  -6 -24  101.83    5.96
  -5  -6 -25   46.11    3.38
   5  -7 -24   56.31    3.31
  -5  -7  24   43.60    3.14
   5  -7 -23   20.28    2.24
  -5  -7  23   17.88    2.23
  -5  -7  22  140.63    7.19
  -5  -7  21   62.06    4.49
   5  -7 -20  170.58    8.62
  -5  -7  20  149.85    8.27
  -5  -7  19   47.27    3.63
   5  -7 -19   59.72    4.65
  -5  -7  19   51.02    4.48
  -5  -7  18  145.59    8.15
  -5  -7  18  166.77    8.95
  -5  -7  17   68.54    4.90
   5  -7 -17   78.11    5.75
  -5  -7  17   68.87    5.46
  -5  -7  16  243.72   12.19
   5  -7 -16  284.98   13.36
  -5  -7  16  252.17   12.60
  -5  -7  15  122.91    7.64
   5  -7 -15  148.56    8.71
  -5  -7  15  127.10    7.98
  -5  -7  14  185.22   10.14
   5  -7 -14  201.87   10.94
  -5  -7  14  189.39   10.42
  -5  -7  13   56.83    5.10
  -5  -7  13   41.02    4.89
  -5  -7  12  122.70    7.42
   5  -7 -12  106.41    7.66
  -5  -7  11  116.95    7.30
   5  -7 -11  124.30    7.86
  -5  -7  10  124.62    7.55
   5  -7 -10  104.64    9.87
   5  -7 -10  101.37    7.35
  -5  -7  10  115.99    7.86
  -5  -7   9   74.04    5.86
   5  -7  -9   64.06    7.87
   5  -7  -9   68.57    5.75
   5  -7  -8  180.52   13.65
   5  -7  -8  186.11   10.58
  -5  -7   8  214.39   10.89
  -5  -7   8  181.40   11.38
   5  -7  -7  163.22   12.41
   5  -7  -7  151.84    8.96
  -5  -7   7  154.51   10.18
  -5  -7   7  159.03    9.11
  -5  -7   6  152.59    8.85
   5  -7  -6  161.07   12.37
   5  -7  -6  153.22    8.62
  -5  -7   6  138.52    8.48
   5  -7  -6  143.83   13.33
  -5  -7   6  159.82   10.24
  -5  -7   5    7.25    3.54
  -5  -7   5    7.68    2.78
   5  -7  -5    8.54    3.64
   5  -7  -5    4.34    1.99
   5  -7  -5   -1.90    4.64
  -5  -7   5    7.64    2.22
  -5  -7   4   24.25    5.05
   5  -7  -4   20.62    4.93
   5  -7  -4   16.51    3.08
   5  -7  -4   12.03    5.58
  -5  -7   4   22.09    3.22
  -5  -7   3   49.48    6.53
   5  -7  -3   58.95    4.66
  -5  -7   3   53.12    4.93
   5  -7  -3   47.05    8.79
  -5  -7   2    6.79    4.14
   5  -7  -2    1.46    5.22
  -5  -7   2    4.32    2.64
  -5  -7   1   33.39    5.52
  -5  -7   1   32.02    4.00
   5  -7  -1   30.17    7.90
  -5  -7   0   51.69    5.10
   5  -7   0   44.87    8.78
  -5  -7  -1   14.56    3.02
   5  -7   1    5.40    5.23
  -5  -7  -1   13.56    3.15
  -5  -7  -2  254.28   12.49
   5  -7   2  242.38   19.20
  -5  -7  -2  230.37   12.89
  -5  -7  -2  227.27   14.31
  -5  -7  -3  149.77    8.82
   5  -7   3  138.40   14.46
  -5  -7  -3  152.16    9.64
  -5  -7  -3  152.88   11.02
  -5  -7  -4   42.95    4.49
  -5   7  -4   44.32    4.51
  -5  -7  -4   43.59    5.08
   5  -7   4   31.12    7.84
  -5  -7  -4   52.46    6.48
  -5  -7  -5   16.37    4.90
  -5  -7  -5   20.47    3.61
  -5   7  -5   19.16    3.20
   5  -7   5    9.47    5.62
  -5  -7  -5   10.69    3.41
  -5  -7  -6   78.05    5.99
  -5   7  -6   60.24    5.40
  -5  -7  -6   65.18    6.40
  -5  -7  -6   75.32    7.66
  -5  -7  -7  218.14   11.50
   5  -7   7  202.46   17.15
  -5  -7  -7  227.58   12.76
  -5   7  -7  211.07   11.36
  -5  -7  -7  230.73   13.53
  -5  -7  -8  500.39   21.26
  -5   7  -8  465.00   20.98
   5  -7   8  411.13   27.41
  -5  -7  -8  495.75   22.62
  -5  -7  -8  472.87   22.89
  -5   7  -9  127.34    8.01
   5  -7   9  126.20   12.95
  -5  -7  -9  138.11    9.43
  -5  -7  -9  139.28    9.71
  -5   7 -10  447.61   19.98
   5  -7  10  404.41   26.35
  -5  -7 -10  452.04   21.66
  -5  -7 -10  469.68   21.64
  -5   7 -11  268.50   13.39
  -5  -7 -11  283.75   15.05
  -5  -7 -11  265.65   14.55
  -5   7 -12  429.31   19.55
  -5  -7 -12  450.22   20.67
  -5   7 -13   81.83    5.97
  -5  -7 -13   74.06    6.50
  -5  -7 -14  122.03    8.08
  -5  -7 -15   54.56    4.98
  -5   7 -16   49.62    4.42
  -5  -7 -16   45.06    5.57
  -5   7 -17   21.24    3.14
  -5  -7 -17   11.21    3.47
  -5   7 -18   31.26    3.44
  -5  -7 -18   40.49    4.64
  -5   7 -19   48.68    3.87
  -5  -7 -19   41.23    4.50
  -5   7 -20   98.71    5.85
  -5  -7 -20  111.32    7.00
  -5   7 -21   22.88    2.33
  -5  -7 -21   20.86    2.97
  -5   7 -22    1.23    1.07
  -5  -7 -22    1.07    1.58
  -5  -7 -23    5.59    1.65
  -5  -7 -24    3.43    1.13
   5  -8 -23    6.81    1.17
  -5  -8  22   33.12    2.58
  -5  -8  21    8.26    1.79
   5  -8 -20   77.18    4.68
  -5  -8  20   64.96    4.32
   5  -8 -19    8.19    2.00
  -5  -8  19    6.53    2.01
   5  -8 -18    7.70    2.14
  -5  -8  18    7.08    2.10
   5  -8 -17   10.81    2.51
  -5  -8  17    0.26    2.21
  -5  -8  16   43.20    3.51
   5  -8 -16   48.88    4.34
  -5  -8  16   45.07    4.07
  -5  -8  15   14.55    2.44
   5  -8 -15   15.24    2.96
  -5  -8  15   12.78    2.77
  -5  -8  14    0.74    1.75
   5  -8 -14    0.19    2.28
  -5  -8  14   -4.14    2.73
  -5  -8  13    2.25    1.97
   5  -8 -13    1.00    2.28
  -5  -8  12    9.89    2.49
   5  -8 -12   13.38    2.93
  -5  -8  11   11.65    2.62
   5  -8 -11   11.42    2.72
  -5  -8  10   46.49    4.28
   5  -8 -10   42.77    4.35
  -5  -8  10   43.07    4.58
  -5  -8   9   11.80    3.13
  -5  -8   9   14.94    3.11
   5  -8  -9   15.24    3.07
  -5  -8   8  165.43    9.25
   5  -8  -8  164.45    9.29
  -5  -8   8  174.77   10.35
   5  -8  -7   55.54    4.89
  -5  -8   7   61.74    5.16
  -5  -8   7   51.50    4.68
  -5  -8   7   67.24    6.06
  -5  -8   6  246.86   11.92
   5  -8  -6  211.52   11.34
  -5  -8   6  220.58   11.78
  -5  -8   6  257.80   13.41
  -5  -8   5   64.53    5.20
   5  -8  -5   47.47    4.43
  -5  -8   5   52.08    4.82
  -5  -8   5   60.35    6.38
  -5  -8   4  283.61   13.22
   5  -8  -4  238.33   16.50
   5  -8  -4  247.69   12.43
  -5  -8   4  279.58   13.55
   5  -8  -4  204.35   17.83
  -5  -8   4  296.54   15.22
  -5  -8   3   79.59    5.80
   5  -8  -3   66.59    7.88
   5  -8  -3   52.00    4.52
  -5  -8   3   61.34    5.46
   5  -8  -3   46.94    8.90
  -5  -8   3   67.16    6.89
  -5  -8   2  188.69   10.20
   5  -8  -2  163.99   12.95
  -5  -8   2  189.53   10.58
   5  -8  -2  173.77   15.77
  -5  -8   2  195.60   12.19
  -5  -8   1   46.32    6.40
  -5  -8   1   59.45    5.10
   5  -8  -1   46.61    6.99
  -5  -8   1   42.73    4.76
   5  -8  -1   34.41    8.18
   5  -8   0  165.38   13.04
  -5  -8   0  191.62   10.65
   5  -8   0  156.06   15.54
  -5  -8  -1   48.02    5.01
   5  -8   1   39.83    9.24
  -5  -8  -2  244.13   13.11
   5  -8   2  212.37   18.44
  -5  -8  -2  259.74   15.03
  -5   8  -3   83.85    6.20
  -5  -8  -3   67.34    6.29
   5  -8   3   57.24   10.25
  -5  -8  -3   76.17    7.93
  -5  -8  -4  144.75    8.48
  -5   8  -4  134.99    8.33
  -5  -8  -4  145.73    9.33
  -5  -8  -4  137.41   10.44
  -5  -8  -5   52.73    5.11
  -5   8  -5   54.93    4.91
  -5  -8  -5   45.47    5.30
  -5  -8  -5   44.81    6.44
  -5  -8  -6  140.19    8.65
  -5   8  -6  145.06    8.54
  -5  -8  -6  153.17    9.75
  -5  -8  -6  155.77   10.51
  -5  -8  -7   34.09    5.48
  -5   8  -7   41.67    4.26
  -5  -8  -7   40.30    5.18
  -5   8  -8   65.11    5.16
  -5  -8  -8   58.35    6.13
  -5  -8  -8   69.21    6.60
  -5  -8  -9    7.47    3.51
  -5   8  -9   12.45    2.61
  -5  -8  -9    7.77    3.29
  -5  -8 -10   21.53    4.09
  -5   8 -10   23.98    3.22
  -5  -8 -10   16.84    3.75
   5  -8  10   20.13    2.58
  -5  -8 -11    2.47    2.72
  -5   8 -11    3.28    2.15
   5  -8  11    4.37    1.52
  -5  -8 -12   26.22    3.87
  -5   8 -12   26.99    3.36
  -5  -8 -13    8.60    2.84
  -5  -8 -14   57.40    4.94
  -5  -8 -15    8.61    2.32
  -5   8 -15   10.50    2.52
  -5  -8 -15    5.52    2.91
  -5   8 -16   82.57    5.48
  -5  -8 -16   87.61    6.42
  -5   8 -17   15.60    2.32
  -5  -8 -17   17.61    3.13
  -5   8 -18   67.33    4.44
  -5  -8 -18   73.44    5.41
  -5   8 -19   16.62    2.04
  -5  -8 -19   15.73    2.71
  -5   8 -20  158.11    7.61
  -5  -8 -20  203.03    9.02
  -5  -8 -21   37.31    3.17
  -5  -8 -22  119.33    5.91
   5  -9 -20   20.38    1.96
   5  -9 -19    4.60    1.46
   5  -9 -18  222.08   10.07
   5  -9 -17   11.72    2.12
   5  -9 -16  158.18    8.13
   5  -9 -15   11.88    2.56
   5  -9 -14   38.82    3.77
  -5  -9  13    0.82    1.54
   5  -9 -13    1.46    2.09
  -5  -9  12   54.72    4.23
   5  -9 -12   58.85    4.70
  -5  -9  11    8.51    2.35
   5  -9 -11    8.91    2.40
  -5  -9  10   20.16    2.90
   5  -9 -10   22.44    3.07
  -5  -9   9   -1.69    2.14
  -5  -9   9    3.18    2.14
   5  -9  -9   -0.83    1.91
  -5  -9   8    1.66    2.25
  -5  -9   8   -0.66    2.05
   5  -9  -8    0.98    1.67
  -5  -9   7    9.24    2.93
  -5  -9   7    7.05    2.26
   5  -9  -7    5.59    1.97
  -5  -9   6   41.66    3.85
   5  -9  -6   35.08    3.54
  -5  -9   6   39.90    3.94
  -5  -9   6   34.29    4.58
  -5  -9   5    5.90    3.16
  -5  -9   5    1.90    2.18
   5  -9  -5    1.82    1.76
  -5  -9   5    1.97    2.06
  -5  -9   4    7.32    3.42
  -5  -9   4    8.41    2.46
   5  -9  -4    4.10    1.77
  -5  -9   4    4.99    2.30
  -5  -9   3   12.28    4.10
  -5  -9   3   12.13    2.80
  -5  -9   2    9.87    3.86
  -5  -9   2    7.35    2.61
  -5  -9   2    3.14    2.38
  -5  -9   1    1.87    3.68
  -5  -9   1    6.92    2.79
  -5  -9   1   10.35    2.62
  -5  -9   0   27.97    5.23
  -5  -9   0   36.65    3.94
  -5  -9   0   34.72    4.20
  -5  -9  -1    4.43    2.38
  -5   9  -1    5.11    2.26
  -5  -9  -1    6.91    2.64
  -5  -9  -2  142.16    8.22
  -5   9  -2  127.78    7.99
  -5  -9  -2  155.76    9.19
  -5  -9  -3   19.01    4.54
  -5   9  -3   14.91    2.73
  -5  -9  -3   16.16    3.31
  -5  -9  -4   31.07    5.19
  -5   9  -4   33.13    3.69
  -5  -9  -4   41.32    4.57
  -5  -9  -5   -1.18    3.41
  -5   9  -5    2.54    2.04
  -5  -9  -5    1.93    2.62
  -5  -9  -6    9.09    3.85
  -5   9  -6    7.61    2.26
  -5  -9  -6    8.68    2.98
  -5  -9  -7    6.21    3.28
  -5   9  -7    4.15    1.95
  -5  -9  -7    4.80    2.66
  -5   9  -8   43.24    3.95
  -5  -9  -8   35.73    4.50
  -5  -9  -8   38.94    5.04
  -5  -9  -9    0.72    2.87
  -5   9  -9    3.80    1.98
  -5  -9  -9    2.12    2.63
   5  -9   9    3.66    1.71
  -5   9 -10   53.07    4.31
   5  -9  10   50.86    3.85
  -5  -9 -10   56.39    5.32
  -5  -9 -11    6.88    3.01
  -5   9 -11   10.17    2.33
   5  -9  11   13.64    2.08
   5  -9  12   92.93    5.17
  -5  -9 -12   96.86    6.61
  -5  -9 -13    4.09    2.29
  -5   9 -14   85.50    5.24
  -5  -9 -14   81.39    6.02
  -5  -9 -14   79.08    5.40
  -5   9 -15   11.75    1.91
  -5  -9 -15    5.18    2.66
  -5   9 -16   28.54    2.66
  -5  -9 -16   39.88    3.73
  -5   9 -17    2.84    1.27
  -5  -9 -17    5.40    2.12
  -5  -9 -18   40.24    3.42
  -5  -9 -19    0.92    1.20
  -5  -9 -20    4.16    1.17
   5 -10 -18   14.72    1.52
   5 -10 -17   -0.81    1.12
   5 -10 -16   -0.95    1.09
   5 -10 -15    1.77    1.28
   5 -10 -14    4.03    1.59
   5 -10 -13    2.35    1.53
   5 -10 -12  156.48    7.91
   5 -10 -11   -0.26    1.50
   5 -10 -10   84.23    5.19
  -5 -10   9   10.58    2.12
   5 -10  -9    7.59    2.07
  -5 -10   8  395.38   16.93
   5 -10  -8  401.81   16.94
  -5 -10   7    0.53    2.22
  -5 -10   7    2.69    2.10
   5 -10  -7   -2.51    2.10
  -5 -10   6  218.74   10.38
   5 -10  -6  210.95   10.04
  -5 -10   6  217.01   11.27
  -5 -10   5   15.35    3.57
  -5 -10   5   15.63    2.88
  -5 -10   4  367.16   15.73
   5 -10  -4  321.52   14.90
  -5 -10   4  375.88   16.30
  -5 -10   4  378.43   17.16
  -5 -10   3   10.61    3.89
  -5 -10   3   13.45    3.21
  -5 -10   2  488.55   20.46
  -5 -10   2  479.32   21.15
  -5 -10   2  478.66   22.15
  -5 -10   1   92.95    7.38
  -5 -10   1   80.73    8.30
  -5 -10   0  982.94   38.81
  -5  10   0  982.46   39.14
  -5 -10   0  978.10   39.71
  -5 -10   0  989.63   40.99
  -5  10  -1   81.62    5.28
  -5 -10  -1   35.09    4.65
  -5  10  -2  297.68   13.50
  -5 -10  -2  273.38   14.01
  -5 -10  -3   36.58    5.62
  -5  10  -3   48.68    4.04
  -5 -10  -3   37.39    4.54
  -5  10  -4  207.78   10.24
  -5 -10  -4  211.33   11.13
  -5 -10  -4  193.58   11.82
  -5 -10  -5    9.90    3.92
  -5 -10  -5    9.87    3.16
  -5  10  -6   39.83    3.57
  -5 -10  -6   34.20    4.19
  -5 -10  -6   36.87    4.96
  -5 -10  -7   28.55    4.43
  -5  10  -7   44.90    3.81
  -5 -10  -7   39.73    4.66
   5 -10   7   36.36    3.74
  -5  10  -8   56.29    4.22
  -5 -10  -8   49.89    4.81
   5 -10   8   54.87    3.97
  -5 -10  -8   53.08    5.24
  -5 -10  -9    5.02    2.92
  -5  10  -9    7.08    2.00
  -5 -10  -9    3.08    2.68
   5 -10   9    3.93    1.63
  -5 -10 -10    4.08    2.41
   5 -10  10    2.29    1.36
  -5 -10 -11    1.60    2.30
   5 -10  11    8.58    1.74
  -5 -10 -12    6.19    2.09
  -5  10 -12    6.21    1.55
   5 -10  12    6.31    1.33
  -5  10 -13    1.63    1.15
  -5 -10 -13   -0.47    1.91
  -5 -10 -14    3.07    1.79
  -5 -10 -15   -0.37    1.35
  -5 -10 -16   66.67    4.27
  -5 -10 -17    2.59    1.15
   5 -11 -14    2.79    0.89
   5 -11 -13   -0.99    0.98
   5 -11 -12    5.56    1.29
   5 -11 -10    8.18    1.61
   5 -11  -8   37.71    2.81
   5 -11  -7   -0.58    1.05
   5 -11  -6   20.39    2.02
  -5 -11   6   21.48    2.74
  -5  11   5   -1.28    1.61
  -5 -11   5   -0.15    1.76
  -5 -11   4    2.09    2.04
  -5  11   4    1.55    1.55
  -5 -11   3    4.16    2.28
  -5  11   3    1.93    1.56
  -5 -11   3   -0.69    1.51
  -5 -11   2   10.92    2.96
  -5  11   2   12.75    2.11
  -5 -11   2    9.59    2.10
  -5 -11   1   -0.78    2.41
  -5  11   1    1.39    1.45
  -5 -11   1    1.51    1.75
  -5 -11   0    3.86    2.79
  -5  11   0    7.31    1.79
  -5 -11   0    7.92    2.16
  -5  11  -1    0.61    1.41
  -5 -11  -1    0.16    1.68
  -5  11  -2    9.26    1.91
  -5 -11  -2   11.64    2.44
  -5  11  -3   -0.80    1.25
  -5 -11  -3    0.80    1.66
  -5 -11  -4   22.32    3.45
  -5  11  -4   18.02    2.22
  -5 -11  -4   17.78    2.69
  -5 -11  -5   -0.19    2.71
  -5  11  -5    1.87    1.36
  -5 -11  -5   -0.63    1.73
   5 -11   5    0.32    1.53
  -5 -11  -6   13.10    2.83
  -5  11  -6   13.00    1.94
  -5 -11  -6   17.46    2.58
   5 -11   6   14.19    2.04
  -5 -11  -7    0.49    2.18
  -5  11  -7    3.51    1.33
  -5 -11  -7   -1.51    1.93
   5 -11   7   -0.09    1.35
  -5 -11  -8   56.55    4.40
   5 -11   8   59.18    3.62
  -5 -11  -8   55.55    4.47
   5 -11   9   -0.31    1.20
  -5 -11  -9   -0.13    1.71
   5 -11  10   51.10    3.14
  -5 -11 -12   10.41    1.90
  -5 -11 -13    2.05    1.20
  -5 -11 -14   14.52    1.65
  -5  12   7    4.26    1.21
  -5  12   6  339.87   13.63
  -5  12   5   10.59    1.55
  -5  12   4  367.59   14.72
  -5  12   3   30.25    2.41
  -5  12   2  295.79   11.90
  -5 -12   2  282.93   12.18
  -5  12   1   33.76    2.47
  -5 -12   1   15.78    2.34
  -5  12   0  314.48   13.18
  -5 -12   0  355.24   14.00
  -5  12  -1   25.86    2.20
  -5 -12  -1   15.43    2.63
  -5 -12  -2  342.60   14.59
   5 -12   2  353.42   14.24
  -5 -12  -3   18.66    2.62
   5 -12   3   37.29    2.85
  -5 -12  -4  160.97    7.78
   5 -12   4  160.79    7.23
  -5 -12  -5   18.01    2.67
   5 -12   5   24.49    2.47
  -5 -12  -6   62.24    3.90
   5 -12   6   58.27    3.34
  -5 -12  -7    0.09    1.70
  -5 -12  -8   34.76    2.72
  -6   0  26  296.38   12.60
  -6   0  25    3.85    1.92
  -6   0  24  392.53   16.92
  -6   0  23    4.20    2.65
  -6   0  22  133.57    7.99
  -6   0  21   17.57    3.97
  -6   0  20   47.19    4.90
  -6   0  19    5.00    3.28
  -6   0  18   15.41    3.53
  -6   0  17    6.77    3.53
  -6   0  16  133.62    9.07
  -6   0  15    5.67    3.55
  -6   0  14  418.94   19.90
  -6   0  13   -1.49    2.93
  -6   0  12  267.04   13.97
  -6   0  11    0.70    2.53
  -6   0  10  449.62   19.76
  -6   0  10  406.82   19.33
  -6   0  10  411.78   22.99
  -6   0   9    0.85    2.38
  -6   0   9    3.81    2.75
  -6   0   9    6.09    3.47
  -6   0   8 1013.19   39.79
  -6   0   8  950.62   39.91
  -6   0   8  974.45   43.91
  -6   0   7   70.63    5.74
  -6   0   7   65.21    7.86
  -6   0   7   54.23    5.45
  -6   0   6 1310.18   50.59
  -6   0   6 1253.48   49.86
  -6   0   6 1223.43   54.19
  -6   0   5  154.70    9.52
  -6   0   5  156.23    8.66
  -6   0   4 1084.88   42.98
  -6   0   4 1046.08   46.48
  -6   0   4 1057.37   42.12
  -6   0   3  108.63    7.35
  -6   0   3   83.95    6.04
  -6   0   3   98.14    9.24
  -6   0   2 1255.01   49.23
  -6   0   2 1315.11   54.32
  -6   0   1   83.75    8.31
  -6   0   0  373.59   20.35
  -6   0  -1  346.69   19.24
  -6   0  -2  444.84   19.10
  -6   0  -2  470.25   23.57
  -6   0  -3  307.01   16.82
  -6   0  -3  235.27   11.76
  -6   0  -4  720.14   33.48
  -6   0  -4  713.59   29.05
  -6   0  -5  394.14   19.21
  -6   0  -5  272.26   13.70
  -6   0  -6  364.02   20.37
  -6   0  -7  272.11   16.89
  -6   0  -8   17.91    4.71
  -6   0  -9  108.86    9.64
  -6   0  -9   71.82    6.15
  -6   0 -10    6.62    2.45
  -6   0 -10    1.49    3.00
  -6   0 -11   47.41    7.51
  -6   0 -11   45.05    4.52
  -6   0 -12    3.66    2.26
  -6   0 -12    3.62    3.44
  -6   0 -12    3.72    3.09
  -6   0 -13   62.89    9.22
  -6   0 -13   59.26    5.56
  -6   0 -14   72.46    8.37
  -6   0 -14   79.68    6.13
  -6   0 -15   15.82    3.59
  -6   0 -16  161.46    9.39
   6   0  16  160.45    9.84
   6   0  17   -1.43    2.68
  -6   0 -17   -1.25    2.33
  -6   0 -18  161.36    9.30
   6   0  18  160.03    9.59
   6   0  19    4.38    2.80
  -6   0 -19    3.04    2.51
  -6   0 -20  554.10   23.61
   6   0  20  558.02   23.84
   6   0  21   12.12    2.91
   6   0  22  532.91   22.35
   6   0  23   28.99    3.23
   6   0  24  573.80   23.18
   6   0  25   13.63    2.13
   6   0  26  508.34   20.00
  -6  -1  27    0.59    0.80
  -6   1  27    0.77    0.88
  -6   1  26    5.16    1.46
  -6   1  25    0.78    1.55
  -6   1  24   13.06    2.34
  -6  -1  23   -1.36    2.11
  -6   1  23    2.32    2.12
  -6  -1  22    5.46    2.46
  -6   1  22    8.00    2.50
  -6  -1  21    0.38    2.41
  -6   1  21    0.19    2.38
  -6  -1  20   67.33    5.72
  -6   1  20   59.81    5.50
  -6  -1  19    5.61    3.10
  -6   1  19    4.90    3.05
  -6  -1  18   10.47    3.39
  -6   1  18    1.64    2.68
  -6  -1  17    3.75    2.92
  -6   1  17    3.41    3.09
  -6  -1  16   28.15    4.55
  -6   1  16   31.81    4.53
  -6  -1  15    2.59    3.13
  -6   1  15    3.00    2.88
  -6  -1  15   -1.43    2.61
  -6  -1  14   46.96    5.41
  -6   1  14   58.30    5.67
  -6  -1  14   53.56    5.29
  -6  -1  13    0.47    2.51
  -6  -1  13    5.01    3.28
  -6   1  13    2.42    3.30
  -6  -1  13   -0.70    2.88
  -6  -1  12  230.44   12.25
  -6   1  12  204.19   11.96
  -6  -1  11   10.08    3.39
  -6   1  11    5.44    3.02
  -6  -1  10    6.53    2.86
  -6   1  10    1.31    2.51
  -6   1  10    3.77    2.36
  -6  -1   9    4.98    2.69
  -6   1   9    2.50    2.60
  -6   1   9    8.09    2.75
  -6   1   9    3.75    3.39
  -6  -1   8   24.35    3.52
  -6   1   8   22.99    3.40
  -6   1   8   22.04    3.48
  -6   1   8   20.27    4.57
  -6  -1   7    5.60    2.68
  -6   1   7    4.53    2.57
  -6   1   7    5.30    2.77
  -6   1   7    5.90    3.76
  -6  -1   6   25.95    3.52
  -6   1   6   34.67    4.07
  -6   1   6   36.82    5.80
  -6   1   6   38.04    3.89
  -6  -1   5    3.65    2.33
  -6   1   5    6.65    2.23
  -6   1   5    9.36    2.68
  -6   1   5    7.51    3.36
  -6  -1   4    1.58    1.86
  -6   1   4    0.22    2.13
   6   1  -4    3.48    3.27
  -6   1   4   -0.44    2.76
  -6  -1   3    5.05    1.99
  -6   1   3    5.32    2.54
  -6   1   3    4.90    1.72
   6   1  -3    3.00    3.18
  -6   1   3    1.29    2.82
  -6  -1   2    9.41    2.30
  -6   1   2   11.65    1.96
   6   1  -2   11.85    4.06
  -6   1   2   11.50    3.90
  -6   1   1   31.58    3.16
  -6  -1   1   24.28    3.09
  -6   1   1   37.30    5.81
  -6  -1   0  140.70    7.84
  -6   1   0  149.26    7.85
  -6   1   0  159.28   11.35
   6   1   0  148.29   11.09
  -6  -1  -1    4.73    1.84
  -6   1  -1    6.67    1.85
   6   1   1    5.75    3.37
  -6   1  -1    4.21    2.97
  -6   1  -2   20.45    2.68
   6   1   2   25.01    4.72
  -6   1  -2   20.94    4.38
  -6   1  -3    5.17    1.77
   6   1   3   -0.41    3.00
  -6   1  -3    6.74    3.38
  -6   1  -4   43.17    5.99
  -6   1  -4   43.98    3.88
   6   1   4   52.65    6.15
  -6   1  -5   17.63    2.64
  -6  -1  -5   15.54    2.53
   6   1   5   19.69    4.32
  -6   1  -5   15.23    4.38
  -6   1  -6   63.25    7.04
  -6   1  -6   53.68    4.59
  -6  -1  -6   50.18    4.24
  -6   1  -7    9.98    2.45
  -6  -1  -7    8.38    2.33
  -6   1  -7   11.88    3.94
  -6   1  -8   34.46    3.73
  -6  -1  -8   26.49    3.29
  -6   1  -8   33.76    5.59
  -6  -1  -9   10.48    2.55
  -6   1  -9   12.53    3.88
  -6   1 -10   74.66    8.09
  -6  -1 -10   58.59    5.04
  -6  -1 -10   78.16    7.07
  -6   1 -11   40.02    6.88
  -6  -1 -11   54.78    7.60
  -6  -1 -11   34.83    5.65
  -6  -1 -11   43.46    4.59
  -6   1 -11   37.89    4.48
  -6   1 -12   77.53    8.44
  -6  -1 -12   71.79    8.19
  -6  -1 -12   81.39    5.89
  -6   1 -12   81.27    6.15
  -6  -1 -12   66.86    6.51
  -6  -1 -13    8.20    3.15
  -6  -1 -13   11.12    2.95
  -6   1 -13   10.83    3.21
  -6   1 -13   10.41    4.32
  -6  -1 -13   10.34    4.37
  -6  -1 -14   12.65    2.76
  -6   1 -14   14.63    3.09
  -6   1 -14   12.48    3.94
  -6  -1 -14   19.16    4.56
  -6  -1 -15   17.14    3.24
  -6   1 -15   22.22    3.59
   6   1  16   21.98    3.82
  -6  -1 -16   20.36    3.27
  -6   1 -16   26.57    3.64
   6   1  17    2.80    2.53
  -6  -1 -17    2.37    2.09
  -6   1 -17    3.17    2.43
   6   1  18   11.61    3.06
  -6  -1 -18    9.31    2.63
  -6   1 -18   10.54    2.74
   6   1  19   18.65    3.38
  -6   1 -19   10.75    2.78
   6   1  20   21.90    3.24
  -6   1 -20   26.12    3.38
   6   1  21    1.01    2.04
  -6   1 -21    2.29    2.03
   6   1  22   17.28    2.64
   6   1  23    7.01    1.98
   6   1  24   18.89    2.30
   6   1  25    2.30    1.27
   6   1  26    9.09    1.33
  -6   2  27   10.78    1.46
  -6  -2  26  180.97    7.96
  -6   2  26  174.51    8.15
  -6  -2  25   10.40    1.92
  -6   2  25    3.50    1.77
  -6   2  24  108.77    6.33
  -6   2  23   20.19    3.05
  -6   2  22   85.18    5.89
  -6   2  21    2.73    2.66
  -6  -2  20   18.46    3.54
  -6  -2  19   29.21    4.40
  -6  -2  19   18.56    3.86
  -6  -2  18   -1.14    2.97
  -6  -2  18    4.50    2.63
  -6  -2  17   16.86    3.99
  -6  -2  17    8.00    3.26
  -6  -2  16    6.52    3.27
  -6  -2  16    2.73    2.63
  -6  -2  15   37.22    5.11
  -6  -2  15    6.89    3.47
  -6  -2  14   31.47    4.60
  -6  -2  14   29.57    4.16
  -6  -2  13   17.20    3.39
  -6  -2  13   24.85    4.22
  -6  -2  13   15.26    3.40
  -6  -2  12   91.35    7.01
  -6  -2  12   79.18    6.35
  -6  -2  12   76.97    6.58
  -6  -2  11    7.57    3.21
  -6  -2  11   10.40    3.22
  -6   2  11    7.40    2.63
  -6  -2  11    2.90    2.37
  -6  -2  10  164.90    9.44
  -6   2  10  149.86    8.97
  -6  -2  10  134.26    8.56
  -6  -2  10  149.79    9.95
  -6  -2   9   26.60    4.53
  -6  -2   9   24.86    3.61
  -6   2   9   21.02    3.46
  -6   2   9   20.87    3.36
  -6  -2   9   17.78    3.00
  -6  -2   9   29.88    3.99
  -6   2   9   24.00    4.97
  -6  -2   9   22.39    4.84
  -6  -2   8  302.00   14.28
  -6   2   8  283.49   13.81
  -6   2   8  285.12   14.25
  -6  -2   8  279.21   14.12
   6  -2  -8  279.97   15.95
  -6   2   8  291.28   17.55
  -6  -2   8  260.17   16.93
  -6  -2   7   50.12    4.78
  -6   2   7   44.08    4.21
  -6   2   7   50.58    4.83
  -6  -2   7   39.62    4.32
   6  -2  -7   40.70    5.41
  -6  -2   7   41.66    5.89
  -6   2   7   37.90    6.06
  -6  -2   6  726.49   29.98
  -6   2   6  732.34   30.36
  -6  -2   6  717.05   30.25
  -6   2   6  717.86   34.03
  -6  -2   6  682.63   33.71
  -6  -2   5  133.09    8.20
  -6   2   5  115.62    8.12
  -6  -2   5  147.94    8.16
  -6   2   5  109.51   10.07
  -6  -2   5  122.75   10.38
  -6   2   4  557.97   24.26
  -6  -2   4  549.85   24.23
  -6  -2   4  540.41   23.61
  -6   2   4  565.58   27.78
  -6  -2   4  528.40   27.38
   6   2  -4  590.97   27.82
   6  -2  -4  596.43   27.90
  -6   2   3  255.00   13.36
  -6  -2   3  300.91   13.85
  -6  -2   3  254.45   12.65
  -6   2   3  230.92   12.11
  -6   2   3  251.83   16.20
  -6  -2   3  263.18   16.34
   6   2  -3  312.37   17.38
   6  -2  -3  298.31   17.03
  -6   2   2  604.37   25.54
  -6  -2   2  611.00   25.57
  -6  -2   2  539.46   24.52
  -6   2   2  602.21   24.57
  -6   2   2  567.51   28.60
  -6  -2   2  583.59   28.76
   6   2  -2  630.95   29.02
   6  -2  -2  622.40   28.88
  -6  -2   1  177.70    9.61
  -6   2   1  165.40    9.34
  -6   2   1  184.05   13.21
  -6  -2   1  218.66   13.77
   6   2  -1  222.43   13.61
   6  -2  -1  213.73   13.41
  -6  -2   0  621.50   26.23
  -6   2   0  642.10   26.26
  -6   2   0  621.46   30.27
  -6  -2   0  621.03   30.41
   6   2   0  660.20   30.41
   6  -2   0  666.17   30.41
  -6  -2  -1  187.21   10.25
  -6   2  -1  196.39   10.37
  -6   2  -1  228.94   14.34
  -6  -2  -1  232.41   14.54
   6   2   1  272.07   14.93
   6  -2   1  234.75   14.27
  -6   2  -2  932.77   37.19
  -6   2  -2  994.81   41.90
  -6  -2  -2  930.96   41.60
  -6  -2  -2  874.86   36.86
   6   2   2  990.22   41.51
   6  -2   2  974.56   41.35
  -6  -2  -3  151.55    8.50
  -6   2  -3  170.97   12.35
  -6  -2  -3  184.26   12.47
  -6   2  -3  150.04    8.71
   6   2   3  192.94   12.29
   6  -2   3  173.70   11.92
  -6   2  -4  394.99   21.14
  -6  -2  -4  368.89   16.94
  -6  -2  -4  388.65   21.17
  -6   2  -4  404.43   17.57
   6   2   4  412.76   21.06
   6  -2   4  414.77   21.02
  -6   2  -5  172.35    9.39
  -6  -2  -5  153.71    8.65
  -6   2  -5  188.22   13.13
  -6  -2  -6   18.98    4.72
  -6   2  -6   25.13    3.20
  -6  -2  -6   12.72    2.36
  -6   2  -6   20.64    4.78
  -6  -2  -6   16.04    4.33
  -6   2  -7   61.09    7.44
  -6  -2  -7   80.23    8.15
  -6   2  -7   55.44    4.87
  -6  -2  -7   60.74    6.87
  -6   2  -8   23.78    3.34
  -6  -2  -8   24.65    2.99
  -6  -2  -8   25.23    4.68
  -6   2  -8   28.54    5.30
  -6  -2  -8   23.09    4.81
  -6   2  -9   45.71    6.53
  -6   2  -9   42.54    4.49
  -6  -2  -9   37.65    3.93
  -6  -2  -9   42.15    5.85
  -6  -2 -10   29.88    4.87
  -6  -2 -10   19.49    2.92
  -6   2 -10   27.97    5.10
  -6  -2 -10   23.97    5.04
  -6  -2 -11   10.23    3.85
  -6  -2 -11   11.20    2.75
  -6   2 -11   19.21    4.83
  -6  -2 -11   16.60    4.68
  -6  -2 -12   45.20    6.31
  -6  -2 -12   37.70    3.81
  -6   2 -12   45.64    6.48
  -6  -2 -12   39.42    5.05
  -6  -2 -13    5.03    3.08
  -6  -2 -13   12.24    2.74
  -6   2 -13   13.34    3.22
  -6   2 -13   12.16    4.21
  -6  -2 -13   12.56    4.17
  -6   2 -14  238.52   15.75
  -6  -2 -14  205.49   14.94
  -6  -2 -14  222.00   11.33
  -6   2 -14  225.77   12.04
   6   2  15   20.75    3.62
   6  -2  15   18.70    3.47
  -6  -2 -15   16.38    2.81
  -6   2 -15   12.91    3.08
  -6  -2 -16  104.40    6.83
  -6   2 -16  114.30    7.51
   6   2  16  111.02    7.61
   6  -2  16  109.70    7.64
   6   2  17   10.83    2.99
   6  -2  17    7.21    2.81
  -6   2 -17    5.42    2.58
   6   2  18  247.22   12.62
   6  -2  18  250.69   12.75
   6  -2  19   25.59    3.54
   6   2  19   30.07    3.72
   6   2  20  160.39    8.83
   6  -2  20  163.72    8.91
   6   2  21   16.53    2.71
   6  -2  21   12.68    2.65
   6   2  22  217.45   10.66
   6  -2  22  233.71   10.80
   6   2  23   35.89    3.22
   6  -2  23   37.88    3.32
   6   2  24  179.11    8.30
   6  -2  24  173.09    8.27
   6   2  25   26.00    2.19
   6  -2  25   20.36    2.17
  -6  -2 -26   49.98    3.36
   6  -2  26   46.30    2.78
  -6  -3  26   -0.21    0.83
  -6   3  26    1.20    0.95
   6  -3 -26    1.45    0.84
  -6  -3  25    1.30    1.11
  -6   3  25    1.48    1.22
  -6  -3  24   51.61    3.68
  -6   3  24   53.72    3.88
  -6  -3  23   17.69    2.44
  -6   3  23   15.60    2.50
  -6  -3  22    9.51    2.28
  -6   3  22   11.06    2.49
  -6  -3  21    1.47    1.94
  -6  -3  20    1.06    2.12
  -6  -3  19    7.80    2.69
  -6  -3  18   34.15    4.13
  -6  -3  17   12.53    3.12
  -6  -3  16   83.35    6.75
  -6  -3  16   78.31    6.28
  -6  -3  15   23.32    4.02
  -6  -3  15    9.53    3.23
  -6  -3  14    2.18    2.76
  -6  -3  14    2.38    2.57
  -6  -3  13   11.27    3.42
  -6  -3  13    5.76    2.88
  -6  -3  12   23.33    3.90
  -6  -3  12   30.10    4.42
  -6  -3  12   21.87    3.56
  -6  -3  11   28.62    4.52
  -6  -3  11   24.30    4.13
  -6  -3  10   43.93    4.82
  -6   3  10   30.32    3.95
   6  -3 -10   37.10    5.05
  -6  -3  10   33.05    4.00
  -6  -3  10   38.62    4.95
  -6  -3   9   27.21    4.70
   6  -3  -9   22.16    4.30
  -6  -3   9   17.37    3.40
  -6  -3   8  138.75    8.41
  -6   3   8  139.11    8.37
  -6  -3   8  125.00    8.11
   6  -3  -8  121.88    9.96
  -6   3   8  132.32   10.74
  -6  -3   8  129.06   10.83
  -6  -3   8  129.73    9.22
  -6  -3   7   88.60    6.18
  -6   3   7   67.42    5.59
  -6  -3   7   73.37    5.73
   6  -3  -7   52.64    6.57
  -6   3   7   59.60    7.21
  -6  -3   7   73.57    7.86
  -6  -3   7   50.59    6.20
  -6  -3   6   54.23    4.86
  -6   3   6   50.25    4.75
  -6  -3   6   48.52    4.80
   6   3  -6   51.80    6.29
   6  -3  -6   43.99    6.05
  -6   3   6   38.18    5.93
  -6  -3   6   42.58    6.11
  -6  -3   6   43.12    5.93
  -6  -3   5   13.04    4.40
  -6  -3   5   24.30    3.64
  -6  -3   5   25.29    3.64
  -6   3   5   24.13    3.45
   6   3  -5   29.91    4.99
   6  -3  -5   14.85    4.10
  -6   3   5   17.43    4.34
  -6  -3   5   19.90    4.59
  -6  -3   4    6.34    3.96
  -6  -3   4    6.14    2.54
  -6   3   4    5.20    2.43
  -6  -3   4    8.82    2.73
   6   3  -4    8.81    3.51
   6  -3  -4    5.68    3.40
  -6   3   4    7.07    3.80
  -6  -3   4    7.48    3.57
  -6  -3   3   28.57    3.65
  -6  -3   3   16.19    4.49
  -6  -3   3   31.12    3.69
  -6  -3   3   37.52    5.52
  -6   3   3   26.50    3.82
   6  -3  -3   41.89    5.85
   6   3  -3   34.52    5.19
  -6   3   3   30.18    5.58
  -6  -3   2   16.19    4.77
  -6  -3   2   22.31    3.16
  -6   3   2   19.48    3.21
  -6  -3   2   19.09    3.34
   6   3  -2   24.82    4.55
   6  -3  -2   18.89    3.96
  -6   3   2   21.64    4.48
  -6  -3   2   14.75    4.08
  -6  -3   1   -0.18    2.01
  -6   3   1    1.91    2.18
  -6  -3   1    3.63    2.11
  -6   3   1    1.44    1.71
   6   3  -1    1.97    2.66
   6  -3  -1    1.17    2.52
  -6   3   1    3.43    2.81
  -6  -3   1    2.16    2.65
  -6  -3   0    1.63    1.88
  -6   3   0   -0.18    1.69
   6   3   0    0.39    2.29
   6  -3   0    1.17    2.68
  -6   3   0    1.28    2.70
  -6  -3   0    1.30    3.00
  -6  -3  -1   11.86    4.36
  -6  -3  -1   13.68    2.59
  -6   3  -1   13.54    2.51
   6   3   1   16.17    3.90
   6  -3   1   10.12    3.28
  -6   3  -1   11.45    3.74
  -6  -3  -1   11.67    3.57
  -6  -3  -2  126.72    7.53
  -6   3  -2  136.38    7.75
  -6   3  -2  144.27   10.69
  -6  -3  -2  130.71   10.43
   6   3   2  118.47    9.72
   6  -3   2  135.14   10.07
  -6  -3  -2  133.92    9.80
  -6  -3  -3   35.59    3.63
  -6  -3  -3   28.82    5.20
  -6   3  -3   41.92    3.91
   6   3   3   44.94    5.73
   6  -3   3   38.93    5.27
  -6   3  -3   32.90    5.27
  -6  -3  -3   30.70    5.18
  -6  -3  -4   98.41    6.31
  -6   3  -4   96.75    8.81
  -6  -3  -4   88.41    8.51
  -6   3  -4  106.58    6.63
  -6  -3  -4  110.46    8.73
  -6  -3  -5   37.14    3.66
  -6  -3  -5   37.83    5.76
  -6   3  -5   42.70    5.90
  -6   3  -5   43.37    4.14
  -6  -3  -5   31.15    5.25
  -6  -3  -6  221.21   11.30
  -6   3  -6  245.04   15.16
  -6  -3  -6  238.52   15.07
  -6   3  -6  246.80   12.06
  -6  -3  -6  247.46   13.97
  -6  -3  -7   76.67    5.35
  -6   3  -7   76.99    8.14
  -6  -3  -7   91.36    8.67
  -6   3  -7   72.53    5.73
  -6  -3  -7   78.61    7.45
  -6  -3  -8  139.64    7.99
  -6   3  -8  157.77   11.59
  -6  -3  -8  156.04   11.56
  -6   3  -8  163.40    8.98
  -6  -3  -8  150.90   10.29
  -6  -3  -9   31.08    3.26
  -6  -3  -9   27.33    4.76
  -6   3  -9   38.71    4.11
  -6   3  -9   38.88    5.93
  -6  -3  -9   32.66    5.41
  -6   3 -10  217.90   14.40
  -6   3 -10  217.73   11.39
  -6  -3 -10  198.72   13.98
  -6  -3 -10  208.00   12.47
  -6   3 -11   48.93    4.75
  -6  -3 -11   33.79    3.54
  -6   3 -11   39.77    5.96
  -6  -3 -11   40.98    6.13
  -6  -3 -11   41.94    5.30
  -6   3 -12   78.10    8.12
  -6  -3 -12   70.10    7.74
  -6  -3 -12   70.69    6.57
  -6  -3 -13    7.01    3.07
  -6  -3 -14   74.43    6.18
   6   3  15   38.04    4.43
   6  -3  15   31.52    4.31
   6   3  16   24.14    3.55
   6  -3  16   19.28    3.32
   6   3  17    5.63    2.30
   6  -3  17    5.12    2.65
   6   3  18   70.47    5.34
   6  -3  18   68.00    5.35
   6   3  19    9.51    2.43
   6  -3  19    8.62    2.34
  -6   3 -19    4.28    2.44
   6   3  20    3.22    1.90
   6  -3  20    0.78    1.77
  -6   3 -20    0.16    1.83
  -6   3 -21    6.41    2.13
   6   3  21    7.65    1.96
   6  -3  21    7.32    1.96
  -6   3 -22    7.25    1.98
   6   3  22    5.23    1.70
   6  -3  22    6.00    1.71
   6   3  23   12.19    1.95
   6  -3  23   10.40    1.80
   6   3  24   15.15    1.72
   6  -3  24   13.07    1.62
  -6  -3 -25    1.51    1.27
  -6  -4  25   38.14    2.34
   6  -4 -25   35.44    2.81
  -6  -4  24   47.12    3.14
  -6   4  24   49.02    3.43
  -6  -4  23   42.59    3.14
  -6   4  23   31.47    3.15
  -6  -4  22   82.83    4.92
  -6   4  22   72.07    5.09
  -6   4  21    9.88    2.82
  -6  -4  21   19.32    3.16
  -6  -4  20   39.26    3.91
  -6  -4  20   35.82    3.96
  -6  -4  19   16.40    3.05
  -6  -4  19    9.90    2.94
  -6  -4  18   11.97    3.02
  -6  -4  17    6.26    2.94
  -6  -4  16   20.95    3.51
  -6  -4  15   -0.40    2.51
  -6  -4  14   11.84    3.19
  -6  -4  13   24.39    4.10
  -6  -4  13    1.20    3.07
  -6  -4  12   54.66    5.26
  -6  -4  12   49.85    4.80
  -6  -4  12   46.55    4.80
  -6  -4  11   31.54    4.30
  -6  -4  11   25.76    3.94
   6  -4 -11   26.41    4.50
  -6  -4  11   24.29    3.48
  -6  -4  10   27.84    4.17
  -6  -4  10   39.27    4.38
   6  -4 -10   30.24    4.76
  -6  -4  10   19.04    3.14
  -6  -4   9   40.58    4.52
   6  -4  -9   33.50    5.29
  -6  -4   9   44.48    5.32
  -6  -4   8  333.22   15.70
   6  -4  -8  292.33   18.02
   6   4  -8  316.08   18.02
   6  -4  -8  319.90   18.39
  -6  -4   8  347.39   17.03
  -6  -4   7  332.34   15.20
  -6   4   7  314.15   14.88
  -6  -4   7  304.36   14.74
   6  -4  -7  275.62   17.61
  -6   4   7  305.61   18.07
  -6  -4   7  284.66   17.70
   6   4  -7  298.84   17.47
   6  -4  -7  326.33   18.10
  -6  -4   7  302.77   16.30
  -6  -4   6  622.77   25.69
  -6   4   6  587.53   25.50
  -6  -4   6  584.91   25.48
   6  -4  -6  603.94   29.42
  -6   4   6  554.46   28.71
  -6  -4   6  597.64   29.16
   6   4  -6  585.16   28.30
   6  -4  -6  625.56   29.02
  -6  -4   6  598.74   27.29
  -6  -4   5  359.44   15.89
  -6   4   5  296.69   15.29
  -6  -4   5  349.51   15.76
  -6   4   5  298.63   18.21
  -6  -4   5  318.69   18.67
   6   4  -5  344.87   18.47
   6  -4  -5  340.15   18.62
  -6  -4   5  299.68   17.09
  -6  -4   4  479.41   20.31
  -6   4   4  480.15   20.44
  -6  -4   4  436.76   20.07
  -6   4   4  397.32   22.96
  -6  -4   4  418.42   23.12
   6   4  -4  466.18   23.01
   6  -4  -4  454.78   23.12
  -6  -4   4  452.02   22.30
  -6  -4   3  322.39   14.49
  -6  -4   3  287.94   14.20
  -6   4   3  291.86   14.32
  -6   4   3  263.53   16.87
  -6  -4   3  267.00   16.80
   6   4  -3  321.31   17.07
   6  -4  -3  288.33   16.71
  -6  -4   3  284.34   16.42
  -6  -4   2  424.73   19.14
  -6   4   2  452.99   19.48
  -6  -4   2  431.50   19.31
  -6   4   2  402.61   22.14
  -6  -4   2  415.97   22.44
   6   4  -2  416.53   21.63
   6  -4  -2  455.55   22.23
  -6  -4   2  400.56   21.31
  -6   4   1  243.28   12.45
  -6  -4   1  246.85   12.42
  -6  -4   1  241.42   12.27
  -6   4   1  216.20   14.69
  -6  -4   1  245.13   15.09
   6   4  -1  263.81   14.96
   6  -4  -1  236.39   14.62
  -6   4   0  414.70   17.97
  -6  -4   0  393.51   17.87
  -6   4   0  405.69   17.76
  -6   4   0  373.82   20.71
  -6  -4   0  360.24   20.50
  -6  -4   0  370.19   17.46
   6   4   0  357.79   19.82
   6  -4   0  390.11   20.27
  -6  -4  -1  268.29   13.20
  -6   4  -1  269.26   13.28
  -6   4  -1  257.64   16.05
  -6  -4  -1  290.35   16.64
   6   4   1  299.14   16.19
   6  -4   1  260.07   15.58
  -6  -4  -1  244.71   15.27
  -6  -4  -2  519.89   22.03
  -6   4  -2  553.56   22.36
  -6   4  -2  501.84   25.38
  -6  -4  -2  524.88   25.68
   6   4   2  497.03   24.73
   6  -4   2  525.40   25.11
  -6  -4  -2  455.06   21.88
  -6  -4  -2  497.10   24.32
  -6  -4  -3  318.08   15.17
  -6   4  -3  337.40   15.47
  -6   4  -3  314.05   18.22
  -6  -4  -3  352.21   18.95
  -6  -4  -3  296.26   15.43
  -6  -4  -3  362.37   18.13
  -6  -4  -4  675.66   28.64
  -6   4  -4  715.79   29.10
  -6   4  -4  711.57   32.60
  -6  -4  -4  691.13   32.47
  -6  -4  -4  657.38   29.28
  -6  -4  -4  738.49   31.51
  -6  -4  -5  412.41   18.10
  -6   4  -5  420.97   18.46
  -6   4  -5  409.65   21.83
  -6  -4  -5  405.26   21.79
  -6  -4  -5  358.90   18.64
  -6  -4  -5  432.92   20.73
  -6  -4  -6  405.90   18.26
  -6   4  -6  424.16   22.11
  -6   4  -6  438.63   18.90
  -6  -4  -6  415.92   21.98
  -6  -4  -6  382.33   19.21
  -6  -4  -6  433.40   21.04
  -6  -4  -7  100.55    6.46
  -6   4  -7   88.78    8.89
  -6  -4  -7  106.54    9.51
  -6   4  -7   96.10    6.81
  -6  -4  -7   92.06    8.28
  -6  -4  -8   26.53    3.36
  -6  -4  -8   25.93    4.93
  -6   4  -8   28.64    3.74
  -6   4  -8   29.95    5.17
  -6  -4  -8   28.63    4.76
  -6  -4  -9   15.82    4.09
  -6  -4  -9   14.83    2.60
  -6   4  -9   15.55    3.08
  -6   4  -9   13.86    3.74
  -6  -4  -9   14.82    3.90
  -6  -4 -10    4.64    3.30
  -6   4 -10    7.65    3.16
  -6  -4 -10    5.12    3.01
  -6  -4 -11   11.18    3.74
  -6   4 -11   18.46    4.48
  -6  -4 -11   16.31    4.04
  -6  -4 -12  124.62    8.73
   6   4  13   68.84    5.57
   6  -4  13   56.80    5.24
  -6  -4 -13   61.57    5.90
   6   4  14   44.01    4.39
   6  -4  14   42.31    4.39
  -6  -4 -14   43.85    4.66
   6   4  15   14.65    2.94
   6  -4  15   10.72    2.79
  -6   4 -15   12.98    3.20
  -6   4 -16   98.02    6.86
   6   4  16  100.35    6.55
   6  -4  16  103.92    6.73
  -6   4 -17   71.05    5.52
   6   4  17   70.56    5.19
   6  -4  17   60.61    4.93
  -6   4 -18  147.82    8.34
   6   4  18  142.84    7.95
   6  -4  18  146.79    8.02
  -6   4 -19   72.24    5.26
   6   4  19   67.01    4.79
   6  -4  19   64.69    4.70
  -6   4 -20  276.00   12.63
   6   4  20  266.90   12.11
   6  -4  20  268.30   12.17
  -6   4 -21  119.76    6.70
   6   4  21  115.91    6.16
   6  -4  21  117.17    6.22
  -6   4 -22  164.13    8.06
   6   4  22  166.02    7.48
   6  -4  22  151.90    7.40
   6   4  23   54.59    3.21
  -6  -4 -24  160.40    7.82
  -6  -4 -25   28.61    2.51
  -6  -5  23   18.59    1.77
  -6   5  23   10.90    1.59
  -6  -5  22   19.41    2.05
  -6   5  22   15.78    1.97
   6  -5 -22   15.71    2.26
  -6  -5  21   12.15    2.06
  -6   5  21    9.68    1.99
  -6  -5  21    9.24    2.14
  -6  -5  20   20.71    2.59
  -6   5  20   13.83    2.45
  -6  -5  20   19.06    2.61
  -6  -5  19   25.51    3.01
  -6   5  19   19.55    2.84
  -6  -5  19   26.68    3.14
  -6  -5  18   41.48    3.93
  -6  -5  18   43.18    4.02
  -6  -5  17   43.89    4.19
  -6  -5  17   41.77    4.14
  -6  -5  16   47.15    4.44
  -6  -5  16   42.51    4.32
  -6  -5  15   38.96    4.19
  -6  -5  15   28.70    3.73
  -6  -5  14   26.09    3.70
  -6  -5  13   20.04    3.93
  -6  -5  12   36.02    4.53
  -6  -5  12   58.22    5.04
  -6  -5  11   81.05    6.28
  -6  -5  11  100.69    7.24
  -6  -5  10  171.38    9.69
  -6  -5  10  150.52    9.89
   6  -5  -9   81.64    8.68
  -6  -5   9   81.58    7.42
  -6  -5   8   40.94    5.27
  -6  -5   8   44.65    4.83
   6  -5  -8   43.98    6.12
  -6  -5   7   37.52    5.06
  -6  -5   7   33.89    4.15
   6  -5  -7   31.11    5.39
   6  -5  -7   38.37    5.18
  -6  -5   6   51.60    4.93
   6  -5  -6   53.58    6.79
   6  -5  -6   43.03    5.66
  -6  -5   6   52.66    6.11
  -6  -5   5   78.19    5.86
  -6   5   5   54.49    4.71
  -6  -5   5   64.31    5.03
   6  -5  -5   44.37    7.04
  -6  -5   5   57.36    7.10
   6  -5  -5   67.99    7.08
  -6  -5   5   44.41    6.15
  -6  -5   4   40.50    6.27
  -6  -5   4   54.71    5.18
  -6   5   4   58.75    4.77
  -6  -5   4   45.82    4.45
   6  -5  -4   53.96    6.44
  -6  -5   3    7.22    4.12
  -6   5   3   10.36    2.43
  -6  -5   3   15.25    2.81
   6  -5  -3   10.36    3.27
  -6  -5   3   15.52    4.02
  -6  -5   2    5.74    4.05
  -6  -5   2    9.30    2.73
  -6   5   2    6.87    2.08
  -6  -5   2    8.96    2.39
   6  -5  -2    6.01    2.70
  -6  -5   2    5.82    2.74
  -6  -5   1   -0.21    2.06
  -6   5   1   -1.12    1.67
  -6  -5   1   -0.38    1.87
   6  -5  -1    3.16    2.34
  -6  -5   1    1.55    2.46
  -6  -5   0    1.02    2.20
  -6   5   0    2.98    1.87
  -6  -5   0    3.20    1.81
   6  -5   0    2.11    2.07
  -6  -5   0    1.16    2.00
  -6  -5  -1    3.23    2.26
  -6   5  -1    2.04    1.75
  -6  -5  -1    3.20    1.87
  -6   5  -1    3.16    2.20
  -6  -5  -1    0.98    1.76
  -6  -5  -1    1.92    2.40
  -6  -5  -2   31.45    5.63
  -6   5  -2   26.91    3.26
  -6  -5  -2   29.12    3.39
  -6  -5  -2   27.75    3.64
  -6   5  -2   28.68    3.64
  -6  -5  -2   25.85    3.51
  -6  -5  -2   28.70    4.57
  -6   5  -3  193.83   10.12
  -6  -5  -3  195.32   10.19
  -6  -5  -3  199.05   10.40
  -6   5  -3  208.18   10.70
  -6  -5  -3  171.91   12.25
  -6  -5  -3  181.23   10.54
  -6  -5  -3  194.84   12.47
  -6  -5  -4  311.48   14.42
  -6   5  -4  310.56   14.60
  -6  -5  -4  277.17   16.55
  -6  -5  -4  272.95   14.66
  -6  -5  -4  320.58   16.69
  -6  -5  -5   60.09    4.91
  -6  -5  -5   61.04    6.50
  -6  -5  -5   55.11    5.37
  -6  -5  -5   59.91    6.75
  -6  -5  -6   11.30    4.40
  -6  -5  -6   12.71    2.90
  -6  -5  -6    8.92    3.10
  -6  -5  -6   10.65    3.32
  -6  -5  -7   61.00    4.95
  -6  -5  -7   57.33    5.67
  -6  -5  -7   69.54    6.73
  -6  -5  -8  245.34   12.31
  -6  -5  -8  251.19   13.58
  -6  -5  -8  275.01   14.60
  -6  -5  -9  190.39   10.18
  -6  -5  -9  189.50   11.55
  -6  -5  -9  218.25   12.44
  -6  -5 -10  166.20   10.45
  -6  -5 -10  161.46   10.62
  -6   5 -11  133.77    8.13
  -6  -5 -11  127.76    9.00
   6   5  11  133.40    7.95
  -6  -5 -11  125.62    9.04
  -6   5 -12  188.18    9.81
  -6  -5 -12  164.06   10.47
   6   5  12  163.53    9.08
   6  -5  12  163.17    9.26
  -6  -5 -12  147.24    9.99
  -6  -5 -13   52.63    5.67
   6   5  13   53.45    4.54
   6  -5  13   49.61    4.61
  -6  -5 -13   60.35    5.56
   6   5  14   21.32    2.95
  -6  -5 -14   16.47    3.40
  -6  -5 -14   17.59    4.06
   6  -5  14   26.06    3.27
   6   5  15   16.27    2.57
   6  -5  15   13.49    2.52
  -6   5 -15   12.89    2.97
  -6  -5 -15   16.66    3.82
  -6   5 -16   28.19    3.58
  -6  -5 -16   19.55    4.03
   6   5  16   27.30    2.90
   6  -5  16   23.64    2.93
   6   5  17    8.03    1.88
  -6   5 -17    5.37    2.39
  -6  -5 -17   12.07    3.19
  -6   5 -18    8.32    2.46
  -6  -5 -18    8.60    3.05
   6   5  18    6.55    1.70
  -6   5 -19   12.62    2.40
  -6   5 -20   53.40    4.10
  -6   5 -21    8.89    1.86
  -6   5 -22    2.44    1.34
  -6  -5 -23   15.07    2.14
  -6  -5 -24   -0.08    0.91
  -6  -6  22   39.14    2.58
   6  -6 -22   51.46    3.35
  -6  -6  21   50.80    3.31
   6  -6 -21   58.50    3.96
  -6  -6  20   22.67    2.34
  -6  -6  20   15.79    2.47
  -6  -6  19    1.19    1.68
   6  -6 -19    9.45    2.22
  -6  -6  18    4.93    1.94
   6  -6 -18    8.67    2.44
  -6  -6  18    2.44    2.03
  -6  -6  17    3.86    1.89
   6  -6 -17    3.92    2.21
  -6  -6  16    1.52    1.85
  -6  -6  15    5.12    2.12
  -6  -6  14   -0.18    2.11
  -6  -6  13   15.82    2.99
  -6  -6  12   41.69    4.39
  -6  -6  11  146.88    8.87
  -6  -6  10  125.06    8.24
  -6  -6   9  207.85   11.72
  -6  -6   8  158.32   10.08
  -6  -6   7  209.44   10.74
  -6  -6   7  198.16   11.69
   6  -6  -6  112.68   10.11
   6  -6  -6   93.90    6.68
  -6  -6   6  108.95    8.56
  -6  -6   5  166.08    8.95
   6  -6  -5  151.89   11.79
   6  -6  -5  116.87    7.58
   6  -6  -5  120.16   12.67
  -6  -6   5  158.52   10.26
  -6  -6   4  167.35    9.56
   6  -6  -4  158.60   12.60
  -6  -6   4  169.49   11.22
  -6  -6   3  295.58   13.92
  -6  -6   3  276.33   15.52
  -6  -6   2  210.88   11.21
  -6  -6   2  201.67   13.04
  -6  -6   1  206.00   10.80
  -6  -6   1  177.38   12.36
  -6  -6   0  129.46    7.70
  -6  -6   0   94.31    6.80
  -6  -6  -1  175.73    9.40
  -6  -6  -1  131.02    8.53
  -6  -6  -2  118.97    7.31
  -6  -6  -2  117.18    9.27
  -6  -6  -3  112.38    7.20
  -6  -6  -3  113.76    9.12
  -6  -6  -4  105.69    6.92
  -6  -6  -4   94.58    7.09
  -6  -6  -4   97.66    8.69
  -6  -6  -5  169.46    9.13
  -6  -6  -5  146.60    9.47
  -6  -6  -5  148.21   10.58
  -6  -6  -6  123.74    7.49
  -6   6  -6  120.87    7.48
  -6  -6  -6   98.44    7.55
  -6  -6  -6  103.74    8.63
  -6  -6  -7   73.00    5.34
  -6   6  -7   59.92    5.26
  -6  -6  -7   48.52    5.52
  -6  -6  -7   59.74    6.63
  -6  -6  -8   32.78    5.50
  -6  -6  -8   42.04    4.26
  -6  -6  -8   29.90    4.76
  -6  -6  -9   21.56    4.48
  -6   6  -9   26.56    3.56
  -6  -6  -9   16.25    3.97
  -6  -6 -10   18.73    4.19
  -6  -6 -10   22.23    4.21
  -6  -6 -11    9.08    3.36
  -6   6 -11    9.32    2.68
  -6  -6 -11    7.17    3.30
  -6  -6 -12    3.76    2.68
  -6  -6 -12    5.34    2.97
  -6  -6 -13    5.33    2.60
  -6  -6 -13    5.54    2.86
  -6  -6 -14   -0.75    2.09
  -6  -6 -14    3.19    2.79
  -6   6 -15    8.36    2.42
  -6  -6 -15    6.52    2.66
  -6   6 -16   38.23    3.83
  -6  -6 -16   34.23    4.27
  -6   6 -17   70.95    4.95
  -6  -6 -17   66.32    5.63
  -6   6 -18   71.33    4.82
  -6   6 -19  104.06    5.89
  -6   6 -20   88.94    5.09
  -6   6 -21   73.96    4.21
  -6  -6 -22   45.28    3.34
   6  -7 -22   12.26    1.41
   6  -7 -21   37.72    2.72
   6  -7 -20   33.27    2.70
  -6  -7  19  164.80    7.61
   6  -7 -19  182.49    8.27
  -6  -7  18  102.07    5.45
   6  -7 -18  106.85    5.93
  -6  -7  17  184.24    8.79
   6  -7 -17  190.81    9.29
  -6  -7  16   38.33    3.44
   6  -7 -16   45.65    3.98
  -6  -7  15  112.07    6.45
   6  -7 -15  111.26    6.71
  -6  -7  14   84.78    5.69
   6  -7 -14   88.66    5.93
  -6  -7  13  183.71    9.34
   6  -7 -13  165.98    9.37
  -6  -7  12   54.77    4.68
   6  -7 -12   51.51    4.61
  -6  -7  11  181.17    9.57
   6  -7 -11  173.22    9.41
   6  -7 -10   88.58    6.24
  -6  -7  10   78.51    6.24
   6  -7  -9   33.56    3.89
  -6  -7   9   38.11    4.57
  -6  -7   8    9.55    3.17
   6  -7  -8    6.65    2.27
  -6  -7   7    1.00    2.63
   6  -7  -7   -1.57    1.61
  -6  -7   6   28.09    4.50
   6  -7  -6   28.18    3.08
  -6  -7   5   52.40    5.87
  -6  -7   4   29.51    4.80
  -6  -7   3    4.86    3.80
  -6  -7   3   11.77    3.13
  -6  -7   2   17.03    4.74
  -6  -7   2   26.28    3.62
  -6  -7   1   25.02    5.12
  -6  -7   1   23.62    3.68
  -6  -7   1   15.34    2.73
  -6  -7   0   44.91    4.39
  -6  -7   0   28.99    3.50
  -6  -7  -1  110.72    7.12
  -6  -7  -1  102.48    6.93
  -6  -7  -2   18.52    4.65
  -6  -7  -2   21.53    3.43
  -6   7  -2   22.92    3.31
  -6  -7  -2   23.78    3.32
  -6  -7  -3  151.19    8.50
  -6   7  -3  135.35    8.19
  -6  -7  -3  132.07    8.36
  -6  -7  -3  135.86   10.04
  -6  -7  -4   83.58    6.07
  -6   7  -4   82.90    6.00
  -6  -7  -4   76.61    6.11
  -6  -7  -4   90.30    7.79
  -6  -7  -5   51.81    4.72
  -6   7  -5   54.05    4.72
  -6  -7  -5   47.67    4.73
  -6  -7  -5   48.79    6.12
  -6  -7  -6    2.02    3.33
  -6  -7  -6    4.31    2.39
  -6   7  -6    1.33    2.04
  -6  -7  -6    4.74    2.34
  -6  -7  -7   24.50    4.40
  -6  -7  -7   29.04    3.63
  -6   7  -7   23.82    3.32
  -6  -7  -7   24.63    3.73
  -6   7  -8   90.09    6.02
  -6  -7  -8   71.80    6.22
  -6  -7  -8   76.63    6.93
  -6   7  -9  232.67   11.54
  -6  -7  -9  232.72   12.37
  -6  -7  -9  215.02   12.51
  -6   7 -10   78.39    5.52
  -6  -7 -10   63.58    5.95
  -6  -7 -10   58.03    5.93
  -6   7 -11   60.66    4.96
  -6  -7 -11   61.06    5.62
  -6  -7 -11   61.10    5.65
  -6  -7 -12   66.04    5.88
  -6  -7 -12   62.04    5.59
  -6  -7 -13  116.65    7.90
  -6  -7 -13  119.40    7.51
  -6   7 -14   51.63    4.23
  -6  -7 -14   54.87    5.18
  -6  -7 -14   38.80    4.03
  -6   7 -15  101.49    6.15
  -6  -7 -15  100.31    6.84
  -6   7 -16   83.88    5.28
  -6  -7 -16   79.73    5.99
  -6   7 -17   65.36    4.37
  -6   7 -18   43.61    3.32
  -6   7 -19   14.40    1.80
  -6   7 -20   17.01    1.71
  -6  -7 -21    8.71    1.52
   6  -8 -19    4.49    1.07
   6  -8 -18    1.77    1.12
   6  -8 -17    1.95    1.29
  -6  -8  16    1.41    1.17
   6  -8 -16    5.95    1.56
  -6  -8  15    1.68    1.33
   6  -8 -15    0.69    1.46
  -6  -8  14    1.39    1.39
   6  -8 -14    1.24    1.46
  -6  -8  13   14.88    2.29
   6  -8 -13   17.56    2.46
  -6  -8  12    5.69    1.91
   6  -8 -12    6.17    1.95
  -6  -8  11   60.03    4.37
   6  -8 -11   52.18    4.17
  -6  -8  10   22.10    3.02
   6  -8 -10   25.03    2.88
  -6  -8   9  227.50   10.79
   6  -8  -9  208.53   10.34
  -6  -8   8   41.95    3.97
   6  -8  -8   33.89    3.39
  -6  -8   8   35.71    4.20
  -6  -8   7   85.27    5.72
   6  -8  -7   73.27    4.97
  -6  -8   7   87.23    6.39
  -6  -8   6    7.94    2.95
  -6  -8   6   10.64    2.58
   6  -8  -6   11.87    1.97
  -6  -8   5   90.36    7.05
  -6  -8   4   23.73    4.28
  -6  -8   3   83.14    7.18
  -6  -8   2   21.48    4.31
  -6  -8   1   36.36    5.37
  -6   8   1   35.63    3.90
  -6  -8   0   14.72    3.12
  -6   8   0   12.44    2.75
  -6  -8   0    5.85    2.22
  -6  -8  -1   68.76    5.32
  -6   8  -1   74.27    5.38
  -6  -8  -1   64.69    5.11
  -6  -8  -2   40.96    4.13
  -6   8  -2   41.81    4.01
  -6  -8  -2   32.49    3.87
  -6  -8  -3   40.20    5.65
  -6  -8  -3   47.85    4.41
  -6   8  -3   43.03    4.14
  -6  -8  -3   45.63    4.37
  -6  -8  -4   17.94    4.46
  -6  -8  -4   24.81    3.41
  -6   8  -4   23.25    3.25
  -6  -8  -4   13.98    3.07
  -6  -8  -5    1.86    3.38
  -6  -8  -5    1.05    2.29
  -6   8  -5    0.68    1.94
  -6  -8  -5    0.20    2.17
  -6  -8  -6   20.38    4.32
  -6   8  -6   28.30    3.22
  -6  -8  -6   14.82    3.09
  -6   8  -7   56.32    4.53
  -6  -8  -7   56.78    5.02
  -6  -8  -7   58.11    5.79
  -6   8  -8   51.35    4.29
  -6  -8  -8   41.57    4.56
  -6  -8  -8   39.27    5.09
  -6  -8  -9   21.73    3.67
  -6   8  -9   20.06    2.87
  -6  -8  -9   23.75    3.56
  -6  -8 -10    7.27    2.84
  -6   8 -10   14.54    2.56
  -6  -8 -10   15.39    2.95
  -6  -8 -11    0.19    2.23
  -6  -8 -11   -1.14    2.33
  -6  -8 -12    4.29    2.18
  -6  -8 -12    5.91    2.43
  -6  -8 -13    3.53    1.86
  -6   8 -13    1.60    1.65
  -6  -8 -13    1.58    1.98
  -6  -8 -14    0.34    1.35
  -6   8 -14    2.45    1.66
  -6  -8 -14    0.33    1.78
  -6   8 -15   13.33    2.01
  -6  -8 -15   11.12    2.26
  -6   8 -16    9.65    1.67
  -6  -8 -16   10.32    2.05
  -6   8 -17    5.69    1.30
   6  -9 -16   25.24    2.42
   6  -9 -15   99.52    5.03
   6  -9 -14    7.59    1.99
  -6  -9  13  169.57    7.45
   6  -9 -13  156.37    7.65
  -6  -9  12   71.29    4.00
   6  -9 -12   49.95    4.03
  -6  -9  11  191.90    8.65
   6  -9 -11  176.78    8.55
  -6  -9  10   68.40    4.14
   6  -9 -10   37.86    3.65
  -6  -9   9  161.94    7.67
   6  -9  -9  132.76    7.14
  -6  -9   8  136.68    6.43
   6  -9  -8   79.52    5.39
  -6  -9   7   72.61    4.95
  -6  -9   7   66.16    5.14
  -6  -9   6   69.84    4.58
  -6  -9   6   41.45    4.49
  -6  -9   5    7.47    2.93
  -6  -9   5    9.31    2.47
  -6  -9   4   29.73    3.25
  -6   9   4   29.36    3.36
  -6  -9   3   13.07    3.34
  -6  -9   3   19.29    2.88
  -6   9   3   17.45    2.85
  -6  -9   2   48.61    4.16
  -6  -9   2   36.17    4.74
  -6  -9   1    7.38    3.32
  -6   9   1    9.87    2.33
  -6  -9   0    5.65    3.37
  -6   9   0    2.95    1.93
  -6   9  -1  136.42    7.47
  -6  -9  -1  127.87    7.39
  -6   9  -2   39.18    3.58
  -6  -9  -2   32.85    3.44
  -6   9  -3   99.01    5.91
  -6  -9  -3   88.69    5.97
  -6  -9  -3   93.68    7.25
  -6  -9  -4   -0.46    3.00
  -6   9  -4    4.95    1.95
  -6  -9  -4    2.97    1.96
  -6   9  -5  276.96   12.73
  -6  -9  -5  277.65   13.14
  -6  -9  -5  283.11   14.10
  -6   9  -6   69.78    4.73
  -6  -9  -6   61.11    4.99
  -6  -9  -6   70.08    5.98
  -6   9  -7  528.75   21.03
  -6  -9  -7  525.97   21.56
   6  -9   7  473.73   19.89
  -6  -9  -7  520.13   22.17
  -6  -9  -8   44.19    4.57
  -6  -9  -8   49.65    4.93
  -6   9  -9  429.93   18.44
  -6  -9  -9  448.03   19.10
  -6  -9  -9  453.52   19.40
  -6  -9 -10   55.36    4.70
  -6  -9 -10   59.43    4.83
  -6  -9 -11  279.88   12.83
  -6  -9 -11  272.32   12.63
  -6  -9 -12   40.78    3.90
  -6  -9 -12   28.43    3.32
  -6   9 -13  156.10    7.33
  -6  -9 -13  155.55    7.90
  -6  -9 -13  146.49    7.21
  -6   9 -14   28.52    2.43
  -6  -9 -14   24.14    2.88
  -6  -9 -15  184.89    8.64
  -6 -10  10    0.12    0.91
  -6  10  10    0.79    1.22
  -6 -10   9   61.29    3.63
  -6  10   9   75.19    4.36
  -6 -10   8    7.83    1.58
  -6  10   8    5.69    1.85
  -6 -10   7   77.44    4.51
  -6  10   7   86.45    4.97
  -6 -10   6   11.66    1.90
  -6  10   6   13.45    2.23
  -6 -10   5   65.33    4.16
  -6  10   5   70.86    4.51
  -6 -10   5   61.90    4.61
  -6 -10   4    2.17    1.93
  -6 -10   4    6.39    1.79
  -6  10   4    5.75    1.80
  -6 -10   3   52.75    3.74
  -6  10   3   58.56    4.03
  -6 -10   3   48.81    4.37
  -6 -10   2    1.33    2.28
  -6  10   2    8.01    1.87
  -6  10   1   68.53    4.40
  -6 -10   1   57.15    4.98
  -6 -10   0    9.63    2.91
  -6  10   0   17.22    2.38
  -6  10  -1   25.16    2.65
  -6  10  -2   14.64    2.25
  -6 -10  -3   13.84    3.00
  -6  10  -3   15.49    2.13
  -6 -10  -3   13.31    2.16
  -6 -10  -4    8.19    2.88
  -6 -10  -4    4.74    2.03
  -6  10  -5   63.26    4.04
  -6 -10  -5   57.18    4.12
   6 -10   5   58.63    3.46
  -6 -10  -5   62.44    4.87
  -6 -10  -6   10.07    2.71
  -6 -10  -6    5.71    2.09
   6 -10   6    9.48    1.62
  -6  10  -7   56.69    3.73
  -6 -10  -7   54.65    4.03
  -6 -10  -7   58.49    4.47
  -6 -10  -8    7.02    2.21
  -6 -10  -8    8.84    2.18
  -6 -10  -9    2.67    1.64
  -6 -10  -9    3.68    1.54
  -6 -10 -10    4.75    1.70
  -6  10 -10    9.02    1.38
  -6 -10 -10    5.05    1.63
  -6 -10 -11    2.00    1.15
  -6 -10 -12    1.00    0.91
  -6  11   8    9.01    1.45
  -6  11   7   38.96    2.62
  -6  11   6   17.71    2.05
  -6  11   5   19.32    1.94
  -6  11   4   11.04    1.74
  -6  11   3    5.46    1.29
  -6 -11   3    3.26    1.25
  -6  11   2    1.86    1.14
  -6 -11   2   -0.58    1.30
  -6  11   1    3.32    1.07
  -6 -11   1    1.89    1.41
  -6 -11   0    0.11    1.37
  -6  11   0    0.53    0.99
  -6 -11  -1   12.37    2.15
  -6  11  -1    9.52    1.42
   6 -11   1   12.55    1.44
  -6  11  -2    0.86    0.96
   6 -11   2   -0.23    0.85
  -6  11  -3   73.37    3.94
   6 -11   3   73.81    3.69
  -6 -11  -4    0.32    1.69
  -6 -11  -5  152.70    7.54
  -6 -11  -6   -1.07    1.59
  -7   0  24    0.37    0.73
  -7   0  23    0.73    0.94
  -7   0  22    0.09    1.29
  -7   0  21    1.97    1.51
  -7   0  20   -0.13    1.66
  -7   0  19   -0.57    1.92
  -7   0  18   -0.63    2.02
  -7   0  17    0.86    2.13
  -7   0  16    0.18    2.17
  -7   0  15    0.57    2.20
  -7   0  14    0.58    2.39
  -7   0  13   -1.17    2.25
  -7   0  12    0.91    2.44
  -7   0  12   -0.77    2.18
  -7   0  11    0.19    2.13
  -7   0  10    0.19    2.09
  -7   0   9    0.73    2.04
  -7   0   8    0.18    2.01
  -7   0   8   -0.44    2.42
  -7   0   8    0.93    2.81
  -7   0   7    1.20    1.82
  -7   0   7    0.67    2.23
  -7   0   7   -1.87    2.64
  -7   0   6    1.66    1.86
  -7   0   6    1.56    2.45
  -7   0   6    4.19    3.00
  -7   0   5    1.12    1.70
  -7   0   5    1.57    2.16
  -7   0   5    1.40    2.86
  -7   0   4    2.94    1.76
  -7   0   4    4.53    2.68
  -7   0   4    3.27    2.71
  -7   0   3    0.91    2.43
  -7   0   3   -2.34    3.01
  -7   0   2    1.14    2.20
  -7   0   2    1.87    2.65
  -7   0   1    1.38    2.32
  -7   0   1    2.81    2.65
  -7   0   0    4.14    2.67
  -7   0   0    5.15    3.02
  -7   0  -1   -0.47    2.67
  -7   0  -2    1.42    2.57
  -7   0  -3    1.90    2.96
  -7   0  -4    4.21    1.81
  -7   0  -4    4.31    3.09
  -7   0  -5    0.48    1.60
  -7   0  -5    1.92    2.78
  -7   0  -6    0.82    1.55
  -7   0  -6    6.26    2.90
  -7   0  -7   -1.01    1.75
  -7   0  -7    2.89    2.56
  -7   0  -8    4.42    1.97
  -7   0  -9   -0.56    3.03
  -7   0  -9    0.17    1.66
  -7   0 -10    0.27    2.74
  -7   0 -10   -0.34    1.80
  -7   0 -11   -0.99    2.76
  -7   0 -11    1.19    1.77
  -7   0 -12    2.47    2.60
  -7   0 -12    4.85    1.97
  -7   0 -13    3.31    2.25
  -7   0 -13    1.48    1.74
  -7   0 -14    0.48    1.78
   7   0  15    2.65    2.25
  -7   0 -15    1.37    1.67
   7   0  16    7.06    2.44
  -7   0 -16    2.01    1.59
   7   0  17   -1.39    2.04
  -7   0 -17   -0.40    1.57
   7   0  18    1.72    1.85
   7   0  19    0.14    1.57
   7   0  20    2.52    1.51
   7   0  21   -0.62    1.26
   7   0  22    0.34    1.04
   7   0  23   -0.38    0.80
  -7  -1  24    3.98    0.95
  -7  -1  23   57.22    3.37
  -7   1  23   50.89    3.24
  -7  -1  22    4.31    1.50
  -7   1  22    3.45    1.41
  -7  -1  21  256.17   11.17
  -7   1  21  241.34   11.09
  -7  -1  20   13.96    2.38
  -7   1  20   12.90    2.37
  -7  -1  19  336.13   14.85
  -7   1  19  329.36   14.75
  -7  -1  18   45.69    4.25
  -7   1  18   40.40    4.24
  -7  -1  17  383.54   17.56
  -7   1  17  409.20   17.66
  -7  -1  16  114.40    7.25
  -7   1  16   98.40    6.83
  -7  -1  15  660.57   26.96
  -7   1  15  616.89   26.63
  -7  -1  14  181.12    9.86
  -7   1  14  164.26    9.58
  -7  -1  13  924.37   37.52
  -7   1  13  924.29   37.34
  -7  -1  12  112.34    6.93
  -7   1  12   97.59    6.54
  -7  -1  11   91.04    6.48
  -7   1  11   98.08    6.46
  -7  -1  11   86.86    7.00
  -7  -1  10  110.05    6.87
  -7   1  10  106.77    6.67
  -7  -1   9  106.76    7.25
  -7   1   9  111.34    7.08
  -7  -1   9  124.03    8.79
  -7  -1   8   90.32    6.20
  -7   1   8   86.47    5.93
  -7   1   8   88.42    6.53
  -7  -1   7   13.39    2.84
  -7   1   7   11.24    2.50
  -7   1   7   15.90    3.18
  -7   1   7   12.51    3.94
  -7  -1   7   13.98    3.81
  -7  -1   6  168.96    8.80
  -7   1   6  143.87    9.01
  -7   1   6  120.44   11.00
  -7  -1   6  140.38   11.52
   7   1  -6  185.96   12.95
   7  -1  -6  178.24   13.01
  -7  -1   5   19.06    3.13
  -7   1   5   20.73    3.47
   7   1  -5   19.05    4.59
   7  -1  -5   18.75    4.94
  -7   1   5   21.76    4.55
  -7  -1   5   21.95    4.58
  -7  -1   4   65.11    5.02
  -7   1   4   80.07    6.06
  -7   1   4   67.36    7.67
  -7  -1   4   57.25    7.21
   7   1  -4   82.38    8.32
   7  -1  -4   71.46    8.12
  -7  -1   3    6.18    2.18
  -7   1   3    4.51    2.46
   7   1  -3    5.03    3.56
   7  -1  -3    3.68    3.25
  -7   1   3    6.95    3.84
  -7  -1   3    7.03    3.52
  -7   1   2  179.82   10.26
  -7  -1   2  166.66    9.23
  -7   1   2  173.73   12.77
  -7  -1   2  177.33   13.01
   7   1  -2  208.63   13.64
   7  -1  -2  208.70   13.72
  -7   1   1  116.99    7.87
  -7  -1   1  103.52    6.57
  -7   1   1  116.62   10.05
  -7  -1   1  111.60    9.96
   7  -1  -1  121.19   10.08
  -7   1   0   38.93    4.35
  -7   1   0   30.11    3.29
  -7  -1   0   47.89    6.33
   7   1   0   43.96    6.13
   7  -1   0   37.70    5.72
  -7   1   0   31.05    5.39
  -7   1  -1  576.93   23.64
  -7   1  -1  527.88   28.01
  -7  -1  -1  558.08   28.46
   7   1   1  596.93   28.51
   7  -1   1  574.74   28.30
  -7   1  -2   14.19    2.39
   7   1   2   14.58    3.89
   7  -1   2   12.34    3.88
  -7   1  -2    8.43    3.59
  -7  -1  -2   13.26    3.90
  -7   1  -3  218.72   10.90
  -7   1  -3  226.99   14.90
  -7  -1  -3  229.99   15.04
  -7   1  -4   11.84    3.87
  -7  -1  -4   15.25    4.27
  -7   1  -5  528.86   27.09
  -7  -1  -5  533.89   27.22
  -7  -1  -6   18.44    4.62
  -7   1  -6   16.28    4.28
  -7  -1  -6   22.99    4.82
  -7  -1  -7  327.29   17.27
  -7  -1  -8   43.15    5.75
  -7  -1  -8   47.11    3.90
  -7   1  -8   42.59    4.15
  -7  -1  -9  370.73   16.56
  -7   1  -9  388.12   17.18
  -7  -1  -9  377.11   18.95
  -7  -1 -10   34.81    4.96
  -7  -1 -10   39.68    3.71
  -7   1 -10   38.25    3.98
  -7  -1 -11  303.56   13.89
  -7   1 -11  304.98   14.35
  -7  -1 -11  317.87   15.79
  -7   1 -11  296.42   15.34
  -7  -1 -12  302.85   13.00
  -7   1 -12  337.56   13.74
  -7  -1 -12  243.20   13.72
  -7   1 -12  209.79   13.25
  -7  -1 -13  566.33   23.32
  -7   1 -13  592.87   23.95
  -7  -1 -13  527.21   24.13
  -7  -1 -14  223.70   11.10
  -7   1 -14  249.36   11.74
  -7  -1 -15  396.55   17.49
  -7   1 -15  412.64   17.96
   7   1  15  430.88   18.78
  -7   1 -16  132.52    7.58
   7   1  16  139.76    8.17
  -7   1 -17  200.90    9.94
   7   1  17  207.18   10.43
  -7   1 -18  111.07    6.37
   7   1  18  110.74    6.57
   7   1  19   29.34    3.03
   7   1  20   80.79    4.94
   7   1  21   27.80    2.50
   7   1  22   16.41    1.82
   7   1  23   11.84    1.33
   7  -1  23   11.58    1.37
  -7  -2  23    7.15    1.25
  -7  -2  22    7.59    1.44
  -7   2  22    3.55    1.26
  -7  -2  21   10.17    1.85
  -7   2  21    7.25    1.68
  -7  -2  20    8.44    1.97
  -7   2  20    6.98    1.80
  -7  -2  19   19.65    2.63
  -7   2  19   13.75    2.32
  -7  -2  18    4.32    2.12
  -7   2  18    4.10    1.92
  -7  -2  17   -0.82    2.12
  -7   2  17    3.26    2.01
  -7  -2  16    1.94    2.08
  -7   2  16    1.42    1.96
  -7  -2  15   41.54    4.33
  -7   2  15   41.21    3.99
  -7  -2  14   10.92    2.89
  -7   2  14    5.83    2.36
  -7  -2  13   19.22    3.32
  -7   2  13   19.22    2.92
  -7  -2  12   19.91    3.42
  -7  -2  12   22.85    3.43
  -7   2  12   22.96    3.11
  -7  -2  11   50.94    4.62
  -7   2  11   40.85    4.00
  -7  -2  11   46.71    5.00
  -7  -2  10    4.00    3.12
  -7  -2  10    0.58    2.17
  -7   2  10    3.45    1.91
  -7  -2   9   13.37    3.59
  -7  -2   9   10.39    2.65
  -7  -2   8   31.79    3.67
  -7   2   8   29.48    3.63
  -7  -2   7    6.77    3.56
  -7  -2   7    5.66    2.36
  -7   2   7    5.60    2.36
  -7  -2   7    2.60    2.27
  -7  -2   6   15.28    4.20
  -7  -2   6   10.95    2.55
  -7   2   6   17.43    3.14
  -7  -2   6   13.19    2.90
  -7   2   6   13.72    3.92
  -7  -2   6   13.38    3.99
  -7  -2   5   56.58    4.69
  -7   2   5   51.37    4.89
  -7  -2   5   53.96    5.06
  -7   2   5   46.12    6.31
  -7  -2   5   51.31    6.60
   7   2  -5   52.15    6.50
   7  -2  -5   62.97    7.06
  -7  -2   5   67.98    6.77
  -7  -2   4   19.88    4.94
  -7   2   4   33.01    3.85
  -7  -2   4   21.78    3.11
  -7   2   4   15.65    2.57
  -7  -2   4   25.23    3.53
   7   2  -4   21.63    4.53
   7  -2  -4   32.14    5.21
  -7   2   4   25.16    5.01
  -7  -2   4   19.97    4.51
  -7  -2   3   11.72    4.24
  -7  -2   3    3.95    2.05
  -7   2   3    6.34    1.88
  -7   2   3   10.19    2.69
  -7  -2   3   10.36    2.72
   7   2  -3   12.52    3.65
   7  -2  -3    7.88    3.45
  -7   2   3    8.24    3.19
  -7  -2   3    3.26    2.87
  -7  -2   2   18.19    2.80
  -7   2   2   13.13    2.29
  -7   2   2   19.57    3.26
  -7  -2   2   19.72    3.33
   7   2  -2   12.52    3.65
   7  -2  -2   12.65    3.51
  -7   2   2   19.61    4.39
  -7  -2   2   13.49    3.93
  -7   2   1   38.07    4.26
  -7  -2   1   35.70    4.29
  -7  -2   1   32.54    3.49
  -7   2   1   36.13    3.41
  -7   2   1   41.48    5.74
   7   2  -1   43.30    5.71
   7  -2  -1   37.10    5.48
  -7  -2   1   38.65    5.76
  -7  -2   0   12.08    2.44
  -7   2   0    9.48    2.21
  -7   2   0    9.16    2.84
  -7  -2   0   10.72    2.86
   7   2   0   10.22    3.40
   7  -2   0   13.25    3.76
  -7   2   0   14.13    3.97
  -7  -2   0   12.11    3.91
  -7   2  -1   30.81    3.91
  -7  -2  -1   31.05    3.86
  -7  -2  -1   25.65    3.10
  -7  -2  -1   24.39    5.28
  -7   2  -1   23.74    2.96
   7   2   1   28.87    4.87
   7  -2   1   35.17    5.10
  -7   2  -1   24.58    4.76
  -7  -2  -1   23.75    4.77
  -7  -2  -2   21.76    5.11
  -7  -2  -2   13.61    2.38
  -7   2  -2   15.68    2.48
   7   2   2   15.70    3.72
   7  -2   2   13.08    3.70
  -7   2  -2   11.88    3.63
  -7  -2  -2   16.31    4.11
  -7  -2  -3   86.22    5.51
  -7   2  -3   83.95    5.70
  -7   2  -3   81.27    8.18
  -7  -2  -3   91.59    8.72
  -7  -2  -3   99.62    8.40
  -7  -2  -4   18.15    4.76
  -7   2  -4   14.60    2.58
  -7   2  -4   16.62    4.28
  -7  -2  -4   20.10    4.27
  -7  -2  -5   25.26    4.80
  -7   2  -5   18.03    2.77
  -7   2  -5   19.00    4.34
  -7  -2  -5   14.47    3.88
  -7  -2  -6    9.78    3.97
  -7   2  -6    9.64    2.36
  -7  -2  -7   95.35    8.07
  -7  -2  -8    3.84    3.49
  -7  -2  -9    5.64    3.40
  -7  -2 -10    9.88    3.53
  -7   2 -10   11.31    2.60
  -7  -2 -11   10.21    3.28
  -7   2 -11   13.09    2.75
  -7  -2 -12    2.71    2.84
  -7   2 -12    7.35    2.62
  -7   2 -12    9.72    2.55
  -7   2 -13   37.34    3.80
  -7  -2 -13   32.95    4.02
   7   2  14   24.65    3.48
   7  -2  14   18.95    3.24
  -7   2 -14   20.55    3.09
   7   2  15    4.89    2.47
   7  -2  15    5.42    2.31
  -7   2 -15    2.28    1.87
   7   2  16    1.55    1.89
   7  -2  16    2.56    2.06
  -7   2 -16    4.00    1.91
   7   2  17    9.62    2.23
   7  -2  17    9.26    2.30
  -7   2 -17    7.73    2.07
   7   2  18    5.09    1.88
   7  -2  18    5.88    1.89
  -7   2 -18    7.46    1.89
   7   2  19   17.19    2.27
   7  -2  19   19.28    2.38
  -7   2 -19   12.87    2.10
   7   2  20    4.63    1.52
   7  -2  20    1.84    1.39
  -7  -2 -21   18.55    2.34
   7   2  21   20.79    2.06
   7  -2  21   24.72    2.16
  -7  -2 -22    3.06    1.17
   7   2  22    3.79    1.02
   7  -2  22    3.49    0.98
   7  -3 -23   36.00    2.57
  -7   3  21  147.14    6.71
  -7  -3  20   52.54    3.55
  -7   3  20   32.62    2.89
  -7  -3  19  333.65   13.46
  -7   3  19  275.82   12.73
  -7  -3  18   95.61    5.74
  -7   3  18   74.31    5.07
  -7  -3  17  349.53   14.33
  -7   3  17  275.66   13.43
  -7  -3  16  123.45    6.95
  -7   3  16   81.77    5.99
  -7  -3  15  378.12   15.78
  -7   3  15  303.56   14.68
  -7  -3  14  154.86    8.01
  -7   3  14   88.59    6.51
  -7  -3  13  239.46   11.39
  -7   3  13  193.85   10.22
  -7  -3  12  122.94    7.76
  -7  -3  11  312.96   14.27
  -7  -3  11  268.00   14.17
  -7  -3  10   53.60    4.82
  -7  -3  10   38.61    5.00
  -7  -3   9   66.05    5.31
  -7  -3   9   57.29    5.88
  -7   3   8  116.93    7.24
  -7  -3   8  116.18    9.09
  -7  -3   7  110.93    6.97
  -7   3   7   89.59    6.09
  -7   3   7  106.94    6.96
  -7  -3   7  104.02    8.19
  -7  -3   6   29.22    4.90
  -7  -3   6   31.33    3.78
  -7   3   6   24.93    3.17
  -7   3   6   28.45    3.67
  -7  -3   6   34.31    3.98
  -7  -3   5   14.28    4.18
  -7  -3   5   17.23    2.97
  -7   3   5   14.51    2.46
  -7   3   5   22.25    3.29
  -7  -3   5   18.89    3.15
  -7  -3   4   14.75    4.51
  -7  -3   4   21.71    3.13
  -7   3   4   17.04    2.64
  -7   3   4   22.73    3.25
  -7  -3   4   18.57    3.22
  -7  -3   3   11.99    4.32
  -7  -3   3   14.88    2.75
  -7   3   3   14.07    2.48
  -7   3   3   11.85    2.73
  -7  -3   3   12.71    2.78
  -7  -3   2    2.99    3.90
  -7  -3   2   10.68    2.46
  -7   3   2    7.06    2.03
  -7   3   2    7.24    2.51
  -7  -3   2    8.26    2.56
  -7   3   2    7.95    3.36
  -7  -3   2   12.18    3.63
  -7  -3   1   63.65    4.87
  -7   3   1   59.56    5.25
  -7  -3   1   62.89    5.32
  -7   3   1   66.18    4.76
  -7   3   1   53.15    6.59
  -7  -3   1   61.31    7.00
  -7  -3   0   24.05    3.52
  -7  -3   0   20.14    2.93
  -7   3   0   14.44    2.65
  -7   3   0   15.58    3.01
  -7   3   0   19.29    4.11
  -7  -3   0   15.28    4.15
  -7  -3  -1    6.03    4.24
  -7  -3  -1    6.31    2.19
  -7   3  -1    9.72    2.19
  -7   3  -1    8.55    2.66
  -7  -3  -1    7.66    2.61
  -7   3  -1    8.31    3.14
  -7  -3  -1    8.52    3.26
  -7  -3  -2   18.19    4.88
  -7  -3  -2   13.29    2.54
  -7   3  -2   16.59    2.61
  -7   3  -2   16.23    3.07
  -7  -3  -2   16.37    2.99
  -7  -3  -3   42.09    4.38
  -7  -3  -3   39.73    3.75
  -7  -3  -3   42.28    6.02
  -7   3  -3   49.71    4.16
  -7  -3  -4    7.36    3.77
  -7  -3  -4    6.51    1.98
  -7   3  -4    6.60    2.20
  -7  -3  -5   68.25    4.93
  -7   3  -5   77.91    5.47
  -7  -3  -5   75.71    7.22
  -7  -3  -6  110.59    6.70
  -7   3  -6  130.66    7.56
  -7  -3  -6  135.03    9.66
  -7   3  -7  578.19   22.33
  -7  -3  -7  566.82   24.44
  -7  -3  -8   38.10    4.10
  -7  -3  -8   42.73    5.71
  -7  -3  -9   82.28    6.16
  -7  -3  -9   95.26    7.64
  -7  -3 -10   83.29    6.64
  -7  -3 -10  112.36    8.08
  -7   3 -11  243.90   11.75
  -7  -3 -11  212.31   11.83
  -7  -3 -11  224.84   12.51
  -7   3 -12  100.70    6.55
  -7  -3 -12   91.63    7.05
  -7   3 -13  319.24   14.85
   7   3  13  357.54   15.36
   7  -3  13  334.12   15.12
  -7   3 -14  194.31   10.14
   7   3  14  189.36   10.18
   7  -3  14  199.46   10.23
  -7   3 -15  313.28   14.46
   7   3  15  313.32   14.51
   7  -3  15  324.72   14.56
  -7   3 -16  128.61    7.05
  -7  -3 -16  103.40    7.33
   7   3  16  117.72    6.85
   7  -3  16  116.99    6.78
  -7   3 -17  159.43    8.22
   7   3  17  159.79    8.12
   7  -3  17  170.82    8.17
  -7   3 -18  128.24    6.58
  -7  -3 -18   96.41    6.65
   7   3  18  119.20    6.20
   7  -3  18  106.73    6.07
  -7   3 -19   69.17    4.35
  -7  -3 -19   57.89    4.52
   7   3  19   72.40    4.16
   7  -3  19   59.15    3.94
  -7  -3 -20   35.33    3.40
   7  -3  20   38.38    2.87
  -7  -3 -21    4.68    1.48
   7   3  21    6.04    1.11
   7  -3  21    7.96    1.23
  -7  -4  22    9.24    1.23
   7  -4 -22   11.32    1.45
   7  -4 -21    5.56    1.33
  -7  -4  17   36.22    3.43
  -7  -4  16   11.03    2.48
  -7  -4  15   27.51    3.35
  -7  -4  14    3.40    2.29
  -7  -4  13   36.12    3.91
  -7  -4  12   62.72    5.16
  -7  -4  11  272.80   13.27
  -7  -4  10   91.34    6.33
  -7   4  10   80.01    5.29
  -7  -4  10   85.98    6.55
  -7  -4   9  212.53   10.79
  -7   4   9  192.28    9.97
  -7  -4   9  208.86   11.42
  -7  -4   8   97.12    6.60
  -7   4   8   90.65    5.91
  -7  -4   8   91.48    7.28
  -7  -4   7   90.81    6.17
  -7   4   7   82.48    5.62
  -7  -4   7   81.03    7.04
  -7  -4   6    7.99    3.47
  -7  -4   6    5.15    2.31
  -7   4   6    6.91    2.09
  -7  -4   5   47.86    4.29
  -7   4   5   41.44    3.87
  -7   4   5   40.84    4.03
  -7  -4   5   40.45    4.06
  -7  -4   5   43.09    5.54
  -7  -4   4   51.52    4.58
  -7   4   4   51.67    4.34
  -7   4   4   53.61    4.66
  -7  -4   4   49.00    4.54
  -7  -4   4   58.93    6.27
  -7  -4   3   97.84    6.33
  -7   4   3   86.68    6.18
  -7  -4   3   88.11    6.24
  -7   4   3   92.27    6.05
  -7  -4   3   93.77    7.90
  -7  -4   2   14.22    4.61
  -7  -4   2   18.34    3.00
  -7   4   2   17.47    2.84
  -7   4   2   22.04    3.11
  -7  -4   2   22.01    3.15
  -7  -4   1   70.52    5.22
  -7   4   1   64.19    5.21
  -7  -4   1   63.70    5.18
  -7   4   1   68.22    5.11
  -7  -4   0   52.86    4.60
  -7   4   0   58.53    4.90
  -7  -4   0   53.53    4.86
  -7   4   0   63.51    4.82
  -7  -4  -1   35.63    5.41
  -7  -4  -1   27.48    3.43
  -7  -4  -1   32.25    3.72
  -7   4  -1   32.65    3.53
  -7   4  -1   21.86    3.26
  -7  -4  -2   22.23    4.88
  -7   4  -2   21.81    3.31
  -7   4  -2   22.30    3.20
  -7  -4  -2   22.18    3.02
  -7  -4  -2   23.03    3.33
  -7  -4  -3   16.88    4.46
  -7  -4  -3   10.58    2.49
  -7   4  -3   12.35    2.60
  -7   4  -3   17.31    2.94
  -7  -4  -3   13.85    2.71
  -7  -4  -4   13.49    4.48
  -7  -4  -4   15.04    2.60
  -7   4  -4   17.41    2.80
  -7   4  -4   11.61    2.72
  -7  -4  -4   17.87    2.98
  -7  -4  -5    8.99    3.98
  -7  -4  -5    9.24    2.21
  -7   4  -5   10.23    2.40
  -7   4  -5    9.78    2.43
  -7  -4  -5    5.66    2.25
  -7  -4  -6   23.38    4.67
  -7  -4  -6   22.66    2.94
  -7   4  -6   21.50    3.27
  -7  -4  -7   93.76    5.83
  -7   4  -7  112.66    6.72
  -7  -4  -7   85.35    6.30
  -7  -4  -7  100.96    7.96
  -7   4  -8   80.40    5.70
  -7  -4  -8   80.49    7.03
  -7  -4  -9   21.65    4.23
  -7  -4  -9   10.61    2.92
  -7  -4 -10   74.18    5.99
  -7  -4 -10   77.40    6.72
  -7  -4 -11   33.17    4.40
  -7  -4 -11   23.31    3.60
  -7  -4 -12    4.94    2.70
   7   4  12   11.30    2.60
   7  -4  12    9.67    2.43
  -7   4 -12    7.66    2.50
  -7  -4 -12    8.70    2.69
  -7  -4 -13    1.25    2.07
   7   4  13   -0.16    1.92
   7  -4  13    1.59    1.84
  -7   4 -13    1.71    1.97
  -7  -4 -13    3.00    2.12
   7   4  14    5.02    1.99
   7  -4  14    7.54    2.04
  -7   4 -14    6.96    2.32
  -7  -4 -14    9.71    2.62
   7   4  15    2.18    1.63
   7  -4  15    1.69    1.60
  -7  -4 -15    1.46    2.10
   7   4  16   13.05    2.03
   7  -4  16   11.21    1.95
  -7  -4 -16   11.59    2.63
  -7  -4 -17   61.27    4.69
   7   4  17   61.42    3.86
   7  -4  17   64.02    3.95
  -7  -4 -18   43.01    3.73
   7   4  18   45.59    3.00
  -7  -4 -19   32.17    2.93
   7   4  19   26.43    2.05
  -7  -4 -20    7.06    1.60
   7  -5 -21   34.17    2.32
  -7  -5  20   68.35    3.64
   7  -5 -20   60.81    3.65
  -7  -5  19   76.35    4.16
   7  -5 -19   66.13    4.13
   7  -5 -18   53.48    3.72
   7  -5 -17   99.63    5.72
  -7  -5  14  110.23    6.73
  -7  -5  13  116.78    7.10
  -7  -5  12  109.68    6.95
  -7  -5  11   55.45    4.80
  -7   5  11   39.64    3.77
  -7   5  10   56.65    4.46
  -7  -5  10   40.03    4.64
  -7  -5   9   68.56    5.40
  -7   5   9   67.15    4.88
   7  -5  -8   50.62    4.63
  -7  -5   8   62.12    5.95
  -7  -5   7   77.39    5.68
  -7   5   7   71.23    5.27
  -7  -5   7   65.18    6.17
  -7  -5   6   52.78    4.78
  -7   5   6   56.02    4.57
  -7  -5   6   40.74    5.27
  -7  -5   5   33.08    5.15
  -7   5   5   39.31    4.12
  -7   5   4   70.58    5.44
  -7  -5   4   54.08    6.33
  -7  -5   3   66.51    5.11
  -7   5   3   70.76    5.35
  -7   5   3   57.98    4.72
  -7  -5   3   52.98    4.55
  -7  -5   3   52.07    6.29
  -7  -5   2   62.55    4.93
  -7   5   2   52.39    4.61
  -7   5   2   47.85    4.34
  -7  -5   2   52.83    4.55
  -7  -5   2   45.95    6.01
  -7  -5   1   26.19    3.42
  -7   5   1   31.27    3.59
  -7   5   1   22.87    3.17
  -7  -5   1   24.60    3.05
  -7  -5   0   48.98    4.38
  -7   5   0   41.53    3.87
  -7   5   0   49.83    4.31
  -7  -5   0   47.03    4.08
  -7  -5  -1  164.79    8.82
  -7   5  -1  149.80    8.50
  -7  -5  -1  155.66    8.60
  -7   5  -1  183.61    9.22
  -7  -5  -2  178.12    9.43
  -7   5  -2  169.39    9.27
  -7  -5  -2  183.55    9.44
  -7   5  -2  189.36    9.81
  -7  -5  -2  194.26   11.85
  -7  -5  -3  282.69   12.78
  -7   5  -3  245.69   12.45
  -7  -5  -3  256.80   12.53
  -7   5  -3  285.87   13.12
  -7  -5  -3  278.20   15.01
  -7  -5  -4  151.38    8.42
  -7   5  -4  156.01    8.49
  -7  -5  -4  148.08    8.34
  -7   5  -4  175.52    9.04
  -7  -5  -4  166.41   10.76
  -7  -5  -5  121.43    7.06
  -7   5  -5  116.41    7.06
  -7  -5  -5  129.13    7.23
  -7   5  -5  133.77    7.65
  -7  -5  -5  115.79    8.85
  -7  -5  -6  100.10    6.09
  -7   5  -6   95.56    6.14
  -7  -5  -6   94.71    6.10
  -7   5  -6  101.10    6.57
  -7  -5  -6  110.65    8.18
  -7   5  -7  193.21   10.31
  -7  -5  -7  196.71   10.28
  -7   5  -7  240.36   11.16
  -7  -5  -7  239.16   12.60
  -7   5  -8  214.24   10.68
  -7  -5  -8  225.80   10.74
  -7   5  -8  237.49   11.33
  -7  -5  -8  192.97   10.90
  -7  -5  -8  234.12   12.59
  -7  -5  -9  284.30   12.95
  -7  -5  -9  262.40   13.44
  -7  -5  -9  308.85   14.94
  -7  -5 -10  212.22    9.98
  -7  -5 -10  199.18   10.65
   7   5  10  189.03    9.75
   7  -5  10  199.67   10.00
  -7  -5 -10  214.29   11.52
  -7  -5 -11  308.67   14.99
   7   5  11  309.08   13.94
  -7  -5 -11  349.60   15.68
  -7  -5 -12  236.81   12.33
   7   5  12  244.54   11.17
  -7  -5 -12  264.89   12.58
  -7  -5 -13  194.03   10.40
   7   5  13  197.43    9.05
  -7  -5 -13  194.66    9.98
  -7  -5 -14  104.79    6.84
  -7  -5 -15   93.69    6.18
  -7   5 -16   67.80    4.54
  -7  -5 -16   64.69    4.82
  -7   5 -17   35.68    2.98
  -7  -5 -17   28.07    3.06
  -7   5 -18   27.25    2.47
  -7  -5 -18   21.99    2.63
  -7   5 -19   31.81    2.49
  -7  -5 -19   26.01    2.50
  -7  -6  19   45.66    2.62
   7  -6 -19   41.41    2.66
  -7  -6  18   42.86    2.78
   7  -6 -18   38.48    2.74
  -7  -6  17   13.97    1.77
   7  -6 -17   11.43    1.74
  -7  -6  16    0.10    1.36
   7  -6 -16    1.96    1.15
   7  -6 -15   13.73    1.99
   7  -6 -14   14.19    2.16
   7  -6 -13    0.95    1.42
  -7   6  12    4.51    1.45
   7  -6 -12    2.34    1.65
  -7  -6  11   37.08    3.73
  -7   6  11   37.86    3.25
   7  -6 -11   27.31    3.01
  -7   6  10   66.95    4.73
   7  -6 -10   62.91    4.58
  -7  -6   9   54.12    4.40
  -7   6   9   53.98    4.11
  -7  -6   9   55.84    4.60
  -7  -6   8  114.67    6.87
  -7   6   8  109.79    6.55
  -7  -6   8  106.36    7.24
  -7  -6   7  111.74    6.91
  -7   6   7  121.75    6.85
  -7  -6   7  101.65    7.36
  -7  -6   6   76.94    5.41
  -7   6   6   72.87    5.14
  -7  -6   6   65.62    5.91
  -7  -6   5    6.94    2.96
  -7  -6   5   12.75    2.70
  -7   6   5    8.67    2.23
  -7  -6   4   42.73    4.03
  -7   6   4   38.61    3.77
  -7  -6   4   36.93    4.93
  -7  -6   3  149.40    8.01
  -7   6   3  142.52    7.91
  -7  -6   2  181.53    9.75
  -7   6   2  198.80    9.96
  -7  -6   2  177.70   11.32
  -7  -6   1   60.20    4.70
  -7   6   1   57.86    4.78
  -7  -6   1   46.07    5.94
  -7  -6   0   50.51    4.35
  -7   6   0   54.59    4.54
  -7  -6  -1  109.84    6.82
  -7   6  -1  124.61    7.26
  -7  -6  -2  125.76    7.24
  -7   6  -2  118.55    7.28
  -7  -6  -2  121.74    8.97
  -7  -6  -3   22.51    4.67
  -7  -6  -3   28.63    3.33
  -7   6  -3   31.75    3.61
  -7  -6  -4    5.30    3.35
  -7  -6  -4    2.14    1.88
  -7   6  -4    3.08    1.94
  -7  -6  -5   15.65    4.10
  -7  -6  -5   21.27    2.86
  -7   6  -5   18.02    3.04
  -7  -6  -6   28.97    4.56
  -7  -6  -6   24.87    2.99
  -7   6  -6   27.44    3.35
  -7  -6  -7   26.98    4.45
  -7  -6  -8   19.14    3.80
  -7  -6  -9   72.60    5.35
  -7  -6  -9   85.94    6.34
  -7  -6 -10   60.23    4.73
  -7  -6 -10   60.36    5.32
  -7  -6 -11    4.20    2.31
  -7  -6 -11    6.79    2.20
  -7  -6 -12   -0.76    2.03
  -7   6 -12    0.43    1.77
  -7  -6 -12   -0.31    1.64
  -7  -6 -13    8.71    2.09
  -7   6 -13   16.29    2.43
  -7  -6 -13   12.01    2.35
  -7   6 -14   11.48    2.05
  -7  -6 -14    6.84    1.98
  -7   6 -15    5.60    1.61
  -7  -6 -15    3.44    1.67
  -7   6 -16   38.12    2.95
  -7  -6 -16   37.22    3.09
  -7   6 -17   21.16    2.04
  -7  -6 -17   14.98    2.03
  -7   6 -18   20.69    1.95
  -7  -7  16   57.10    3.01
   7  -7 -16   36.46    2.70
  -7  -7  15   31.61    2.43
   7  -7 -15   24.28    2.27
  -7  -7  14  144.99    6.53
   7  -7 -14  114.89    6.03
  -7  -7  13   75.49    4.34
  -7   7  13   63.49    3.73
  -7   7  12   38.21    2.87
   7  -7 -12   27.59    2.60
  -7   7  11   27.22    2.58
   7  -7 -11   15.71    2.24
  -7   7  10  193.82    9.23
  -7   7   9  109.20    6.18
  -7  -7   8   38.52    3.87
  -7   7   8   47.15    3.71
  -7  -7   8   42.63    3.96
  -7  -7   7   25.06    3.56
  -7  -7   7   35.63    3.59
  -7   7   7   30.58    3.22
  -7  -7   6   84.37    5.56
  -7   7   6   79.79    5.28
  -7  -7   6   73.77    5.94
  -7  -7   5   99.38    6.05
  -7   7   5  102.20    6.01
  -7  -7   4    6.79    3.10
  -7  -7   4   14.49    2.83
  -7   7   4    8.15    2.29
  -7  -7   3   -0.22    2.69
  -7  -7   3    3.00    2.03
  -7   7   3    2.25    1.72
  -7  -7   2   24.96    4.08
  -7  -7   2   22.99    3.01
  -7   7   2   27.79    3.07
  -7  -7   1   10.60    3.56
  -7  -7   1   13.05    2.52
  -7   7   1   11.91    2.33
  -7  -7   0    9.58    2.34
  -7   7   0    6.57    2.01
  -7   7  -1   22.39    2.90
  -7  -7  -1   19.28    2.85
  -7  -7  -2    3.87    3.26
  -7  -7  -2    6.26    2.04
  -7  -7  -3    6.13    3.38
  -7  -7  -3   10.24    2.28
  -7  -7  -4  212.41   10.23
  -7  -7  -4  210.19   11.72
  -7  -7  -5  142.51    8.98
  -7  -7  -6  125.97    8.14
  -7  -7  -7   15.78    3.37
  -7   7  -8   46.63    3.82
  -7  -7  -8   39.19    4.45
  -7  -7  -9   64.27    5.34
  -7  -7 -10   63.16    4.56
  -7  -7 -10   70.70    5.14
  -7  -7 -11   23.37    2.80
  -7  -7 -11   24.52    2.99
  -7  -7 -12   66.83    4.67
  -7  -7 -12   71.78    4.71
  -7   7 -13   75.90    4.28
  -7  -7 -13   50.63    4.08
  -7   7 -14   73.80    4.29
  -7  -7 -14   71.84    4.41
  -7   7 -15   22.93    2.06
  -7  -7 -15   15.42    1.97
  -7   7 -16   12.62    1.55
  -7  -8  13   20.27    1.85
  -7  -8  12   64.17    3.59
  -7   8  12   52.34    3.27
  -7  -8  11   16.44    1.94
  -7   8  11   12.75    1.70
  -7  -8  10  160.33    7.57
  -7   8  10  154.07    7.41
  -7  -8   9   49.97    3.71
  -7   8   9   54.16    3.64
  -7   8   8  224.30   10.18
  -7   8   7   36.96    3.09
  -7   8   6  238.48   10.62
  -7  -8   6  222.39   11.03
  -7   8   5   65.34    4.36
  -7  -8   5   62.99    4.84
  -7  -8   4  253.94   11.69
  -7   8   4  263.50   11.72
  -7  -8   4  258.47   12.52
  -7  -8   3   91.19    5.45
  -7   8   3   88.94    5.34
  -7  -8   3   75.17    5.97
  -7  -8   2  175.79    8.48
  -7   8   2  162.91    8.38
  -7  -8   2  160.99    9.32
  -7  -8   1  138.24    6.94
  -7  -8   1  100.35    7.50
  -7  -8   0  340.17   14.72
  -7  -8  -1  108.06    6.20
  -7  -8  -2  213.53   10.00
  -7  -8  -3   75.24    6.13
  -7  -8  -4   31.37    4.09
  -7   8  -4   43.08    3.50
  -7   8  -5   89.20    5.10
  -7  -8  -5   68.45    5.79
  -7  -8  -6   16.99    2.98
  -7   8  -6   20.57    2.43
  -7   8  -7   67.08    4.26
  -7  -8  -7   53.76    4.83
  -7  -8  -8   35.63    3.60
  -7  -8  -9   32.04    3.51
  -7  -8 -10   14.28    2.18
  -7   8 -10   14.46    2.00
  -7  -8 -11   17.55    2.19
  -7   8 -11   27.18    2.37
  -7   8 -12   46.08    3.06
  -7   8 -13    7.45    1.27
  -7   9  10   -0.23    0.73
  -7  -9   9    3.79    1.05
  -7   9   9    3.27    0.97
  -7  -9   8    0.79    0.99
  -7   9   8    1.61    1.01
  -7  -9   7    2.03    1.09
  -7   9   7    1.41    1.02
  -7  -9   6    1.17    1.17
  -7   9   6    2.36    1.11
  -7  -9   5   15.15    2.13
  -7  -9   4    7.79    1.87
  -7  -9   3   31.95    3.22
  -7  -9   2    2.07    1.80
  -7  -9   1   21.05    2.91
  -7   9   0   64.63    4.05
  -7  -9   0   64.53    4.80
  -7   9  -1    9.94    1.66
  -7   9  -2  158.31    7.49
  -7  -9  -3   12.56    2.63
  -7   9  -3   18.54    2.06
  -7   9  -4   91.25    4.96
  -7  -9  -4   94.46    5.79
  -7  -9  -5    1.37    1.80
  -7   9  -5    4.26    1.35
  -7  -9  -6    1.38    1.54
  -7  -9  -7    0.52    1.37
  -7  -9  -8   12.49    1.86
  -7   9  -8   10.64    1.48
  -7   9  -9    2.27    0.99
  -7  10   3   37.81    2.52
  -7  10   2  151.85    6.69
  -7  10   1   31.34    2.31
  -7  10   0  104.71    4.98
  -7  10  -1   46.11    2.61
  -7 -10  -1   28.74    2.86
  -8   0  18   23.67    1.99
  -8   0  17   11.23    1.58
  -8   0  16    2.08    1.17
  -8   0  15    6.56    1.56
  -8   0  14   -0.39    1.28
  -8   0  13    1.75    1.41
  -8   0  12   87.47    5.15
  -8   0  11    1.20    1.51
  -8   0  10  477.34   20.34
  -8   0  10  545.25   22.05
  -8   0   9    5.37    2.71
  -8   0   9    3.43    1.69
  -8   0   8  173.78    8.79
  -8   0   8  229.20   11.50
  -8   0   7   18.97    3.99
  -8   0   6  697.77   30.26
  -8   0   5   83.54    5.95
  -8   0   5   82.89    7.42
  -8   0   4  260.36   13.39
  -8   0   4  325.12   15.85
  -8   0   3  137.74    8.18
  -8   0   2  395.22   17.90
  -8   0   1  106.34    6.96
  -8   0   0  291.84   14.14
  -8   0  -1  131.88    8.03
  -8   0  -1  124.42    9.68
  -8   0  -2  449.53   20.29
  -8   0  -2  473.08   22.18
  -8   0  -3  100.45    6.77
  -8   0  -3   96.62    8.05
  -8   0  -4  294.36   14.29
  -8   0  -4  298.64   15.59
  -8   0  -5  241.51   11.77
  -8   0  -5  201.27   12.40
  -8   0  -6   80.80    5.87
  -8   0  -6   78.14    6.72
  -8   0  -7   66.65    6.03
  -8   0  -8   22.04    3.78
  -8   0  -9  154.86    9.12
  -8   0 -10    1.03    2.14
  -8   0 -11   22.41    3.19
   8   0  12    6.99    2.24
   8   0  13    3.84    1.89
   8   0  14   23.25    2.75
   8   0  15    0.94    1.44
   8   0  16   50.07    3.46
   8   0  17   10.57    1.62
   8   0  18   92.52    4.62
  -8  -1  18    0.75    0.85
  -8  -1  17    3.70    1.24
  -8  -1  16   23.29    2.19
  -8   1  16   14.65    1.69
  -8  -1  15    3.03    1.45
  -8   1  15    2.48    1.15
  -8  -1  14   21.29    2.36
  -8   1  14   15.34    1.94
  -8  -1  13    1.13    1.52
  -8   1  13   -0.76    1.11
  -8  -1  12   16.04    2.27
  -8  -1  11   -0.12    1.69
  -8  -1  10   -1.05    2.01
  -8   1  10    0.56    2.31
  -8  -1  10    0.98    1.57
  -8  -1   9   22.24    3.68
  -8  -1   9   26.33    2.94
  -8   1   9   25.46    3.94
  -8  -1   8   -1.30    2.77
  -8  -1   8    0.74    1.65
  -8  -1   7   -0.23    2.92
  -8  -1   7   -1.47    1.80
  -8  -1   6    4.79    3.17
  -8  -1   6    2.05    1.55
  -8  -1   5    0.53    3.18
  -8  -1   5   -0.59    1.46
  -8   1   5   -0.89    1.81
  -8  -1   4    1.12    3.09
  -8   1   4    1.84    1.65
  -8  -1   3    6.41    3.89
  -8   1   3    6.17    2.14
  -8   1   2    1.70    1.79
  -8   1   1    1.73    1.94
  -8  -1   0    3.02    3.71
  -8   1   0    5.84    2.14
  -8  -1  -1   -1.19    3.65
  -8   1  -1    0.20    1.98
  -8  -1  -2   21.54    4.56
  -8   1  -2   20.51    3.05
  -8  -1  -3   -1.69    3.66
  -8   1  -3    2.17    2.02
  -8  -1  -4   -0.54    3.45
  -8   1  -4    0.39    1.89
  -8  -1  -5    1.29    3.14
  -8   1  -5    0.98    1.80
  -8  -1  -6    2.43    2.99
  -8   1  -6    0.24    2.76
  -8   1  -6    2.71    1.98
  -8  -1  -7   -0.45    2.73
  -8   1  -7    4.94    2.80
  -8   1  -7    4.01    1.97
  -8  -1  -8   89.21    6.76
  -8   1  -8   97.77    6.97
  -8  -1  -9   -0.39    2.58
  -8   1  -9    0.19    2.28
  -8  -1 -10    0.87    2.13
  -8   1 -10    0.84    2.07
  -8  -1 -11    3.75    2.06
  -8   1 -11    5.43    2.21
  -8  -1 -12   -0.37    1.57
   8   1  12    0.15    1.79
   8   1  13    6.27    2.03
   8   1  14   13.26    2.22
   8   1  15    5.27    1.73
   8   1  16   10.94    1.71
   8   1  17    0.72    0.98
   8   1  18    2.80    0.92
  -8  -2  18    3.54    0.97
  -8  -2  17   38.27    2.79
  -8  -2  16    6.79    1.50
  -8  -2  15   40.74    3.26
  -8  -2  14   29.54    2.81
  -8  -2  13   28.30    2.94
  -8  -2  12  127.95    6.85
  -8   2  11   10.48    2.65
  -8  -2  11   13.55    2.29
  -8  -2  10   19.57    2.56
  -8  -2   9   15.89    3.10
  -8  -2   9   13.13    2.34
  -8  -2   8  201.16    9.64
  -8  -2   8  195.98   10.79
  -8  -2   7   46.01    3.85
  -8  -2   7   40.19    4.83
  -8  -2   6  500.05   21.56
  -8  -2   6  584.89   24.02
  -8  -2   5  117.89    6.59
  -8   2   5  114.19    7.00
  -8  -2   5  118.85    8.64
  -8  -2   4  543.47   23.18
  -8   2   4  567.11   24.08
  -8  -2   4  566.73   24.17
  -8  -2   3   43.99    3.88
  -8   2   3   55.97    4.61
  -8  -2   3   54.11    4.54
  -8  -2   3   54.98    6.27
  -8  -2   2  328.79   14.74
  -8   2   2  360.06   15.97
  -8  -2   2  360.27   16.02
  -8   2   1  184.55    9.25
  -8  -2   1  168.15    9.00
  -8   2   0  383.57   17.09
  -8  -2   0  368.51   17.03
  -8   2  -1  133.67    8.02
  -8  -2  -1  138.52    8.03
  -8  -2  -1  129.31    9.70
  -8   2  -2  132.09    7.72
  -8  -2  -2  120.34    7.55
  -8  -2  -2  131.22    9.39
  -8   2  -3  239.70   11.70
  -8  -2  -3  226.82   11.48
  -8  -2  -3  210.88   12.84
  -8   2  -4  173.75    9.46
  -8  -2  -4  172.73    9.43
  -8  -2  -4  174.37   10.81
  -8   2  -5  182.55    9.96
  -8  -2  -5  196.46   10.09
  -8  -2  -5  179.65   11.07
  -8   2  -6  129.75    7.71
  -8  -2  -6  126.94    7.63
  -8  -2  -6  133.67    8.86
  -8   2  -7   80.83    5.64
  -8  -2  -7   78.29    5.54
  -8  -2  -7   66.77    6.14
  -8  -2  -8    4.32    2.74
  -8   2  -8    4.97    2.76
  -8   2  -8    2.10    2.01
  -8  -2  -8    5.71    1.98
  -8   2  -8    3.22    1.65
  -8  -2  -9   11.09    3.05
  -8   2  -9   11.72    2.85
  -8   2  -9   16.14    2.57
  -8  -2  -9   13.80    2.37
  -8   2  -9    9.94    1.93
  -8   2 -10   40.42    3.21
  -8  -2 -10   40.41    4.13
  -8   2 -10   34.40    3.74
  -8  -2 -11   24.53    3.26
  -8   2 -11   40.98    3.10
   8   2  11   47.05    3.82
  -8   2 -12   64.86    4.06
   8   2  12   78.59    4.84
   8  -2  12   71.32    4.68
   8  -2  13   17.02    2.39
  -8   2 -13   17.45    2.06
   8   2  13   21.82    2.59
  -8   2 -14  142.51    7.06
   8   2  14  163.80    7.67
   8  -2  14  161.90    7.65
   8   2  15   11.25    1.80
   8  -2  15   12.81    1.85
  -8   2 -15    9.68    1.46
   8   2  16  157.55    7.31
   8  -2  16  165.75    7.40
   8   2  17   10.68    1.31
   8  -2  17    9.70    1.29
  -8  -3  18   21.60    1.75
  -8  -3  17    3.76    1.13
  -8  -3  16   35.59    2.52
   8  -3 -16   15.55    1.90
  -8  -3  15    6.72    1.67
  -8  -3  14    5.55    1.65
  -8  -3  13   25.52    2.82
  -8  -3  12    6.93    1.94
  -8  -3  11   50.27    3.97
  -8  -3  10   19.95    2.62
  -8  -3   9    1.63    2.24
  -8  -3   9    4.09    1.83
  -8  -3   8   23.40    3.42
  -8  -3   8   22.69    2.76
  -8  -3   7    4.00    2.59
  -8  -3   7    7.23    2.02
  -8  -3   6    4.11    2.78
  -8  -3   6    7.34    2.07
  -8  -3   5   10.36    3.46
  -8  -3   5   16.00    2.42
  -8  -3   4   15.77    3.79
  -8  -3   4   11.41    2.19
  -8  -3   3    5.08    3.33
  -8  -3   3    4.61    1.74
  -8   3   3    3.66    1.97
  -8  -3   3    7.62    2.06
  -8  -3   2   16.57    4.15
  -8  -3   2   14.48    2.33
  -8   3   2   18.22    2.57
  -8  -3   2   11.09    2.35
  -8  -3   1    2.84    1.65
  -8   3   1    1.48    1.64
  -8  -3   1    5.51    1.95
  -8  -3   0    8.64    1.88
  -8   3   0    7.44    2.05
  -8  -3   0    8.70    2.21
  -8  -3  -1    4.01    3.59
  -8  -3  -1    5.57    1.64
  -8   3  -1    4.66    1.92
  -8  -3  -1    4.70    1.97
  -8  -3  -2   17.08    4.10
  -8   3  -2   13.37    2.41
  -8  -3  -2   12.42    2.38
  -8  -3  -3   28.10    4.56
  -8   3  -3   23.91    2.94
  -8  -3  -3   18.06    2.67
  -8   3  -4   61.98    4.67
  -8  -3  -4   56.44    4.49
  -8  -3  -4   67.24    6.07
  -8  -3  -5    9.89    3.17
  -8   3  -5    9.24    2.24
  -8  -3  -5    8.37    2.17
  -8   3  -5    6.10    1.77
  -8  -3  -6    1.79    2.75
  -8  -3  -6    2.42    1.77
  -8   3  -6    3.88    1.68
  -8  -3  -7    8.37    3.05
  -8   3  -7   12.41    2.24
  -8  -3  -7    9.93    2.16
  -8   3  -7    7.13    1.93
  -8  -3  -8    8.14    2.81
  -8   3  -8    6.19    1.91
  -8  -3  -8    8.74    2.06
  -8   3  -8    5.95    1.79
  -8  -3  -9   15.56    3.03
  -8   3  -9   22.51    2.69
  -8   3  -9   10.83    2.93
  -8  -3  -9   18.51    2.50
  -8   3  -9   18.07    2.39
  -8   3 -10  186.24    8.72
  -8  -3 -10  178.39    8.61
  -8   3 -10  168.06    8.13
   8   3  10  172.35    8.47
   8  -3  10  163.58    8.39
  -8  -3 -10  154.83    8.86
  -8   3 -10  140.65    8.43
  -8   3 -11   37.21    3.21
  -8  -3 -11   34.21    3.12
  -8   3 -11   31.38    2.85
   8   3  11   33.21    3.10
   8  -3  11   33.28    3.10
  -8  -3 -11   32.24    3.29
  -8   3 -12  104.16    5.28
   8   3  12   93.33    5.28
   8  -3  12  104.37    5.46
   8   3  13    8.70    1.60
   8  -3  13    8.10    1.67
  -8   3 -13    5.57    1.46
  -8   3 -14   16.36    1.90
   8   3  14   19.47    1.95
   8  -3  14   17.55    1.91
   8   3  15    7.79    1.27
   8  -3  15    8.38    1.33
  -8   3 -15   11.58    1.48
  -8   3 -16    1.07    0.79
  -8  -4  17   10.88    1.31
  -8  -4  16   11.30    1.54
  -8  -4  15   17.43    1.96
  -8  -4  14   21.12    2.23
  -8  -4  13   17.29    2.21
  -8  -4  12   27.73    2.79
  -8  -4  11   17.01    2.40
  -8  -4  10   68.69    4.58
  -8  -4   9   69.80    4.67
  -8  -4   8  158.84    7.90
  -8  -4   8  142.38    8.21
  -8  -4   7   63.01    4.44
  -8  -4   7   56.69    4.99
  -8  -4   6  125.49    6.93
  -8  -4   6  133.43    8.05
  -8  -4   5  122.28    6.76
  -8  -4   5  125.33    8.13
  -8  -4   4  293.48   13.21
  -8  -4   4  310.41   15.00
  -8  -4   3  136.82    7.17
  -8  -4   3  132.75    8.87
  -8  -4   2  163.66    8.26
  -8  -4   2  179.96   10.49
  -8  -4   1   83.95    5.28
  -8   4   1   95.06    5.64
  -8  -4   1   90.77    5.58
  -8  -4   0  145.13    7.32
  -8   4   0  155.05    7.53
  -8   4   0  139.12    7.56
  -8  -4   0  135.56    7.58
  -8  -4  -1   95.66    5.59
  -8   4  -1  107.27    5.91
  -8   4  -1  103.02    6.08
  -8  -4  -1   97.20    5.95
  -8  -4  -1  104.62    7.97
  -8  -4  -2  141.29    7.35
  -8   4  -2  151.99    7.76
  -8   4  -2  152.29    7.95
  -8  -4  -2  151.89    7.91
  -8  -4  -2  171.74   10.03
  -8   4  -3  146.10    7.47
  -8  -4  -3  147.31    7.42
  -8  -4  -3  137.55    9.12
  -8   4  -4  165.28    8.34
  -8  -4  -4  154.94    8.22
  -8  -4  -4  170.65    9.98
  -8   4  -5   73.79    4.93
  -8  -4  -5   76.72    4.95
  -8  -4  -5   76.26    6.57
  -8   4  -6   68.08    4.72
  -8  -4  -6   70.59    4.73
  -8   4  -6   84.81    5.01
  -8  -4  -6   73.75    6.08
  -8   4  -7   64.96    4.56
  -8  -4  -7   71.93    4.63
  -8   4  -7   71.64    4.64
  -8  -4  -7   63.45    5.57
  -8   4  -8   48.29    3.66
  -8  -4  -8   44.48    3.50
  -8   4  -8   50.33    3.74
  -8  -4  -8   44.04    4.43
  -8  -4  -9   10.46    2.83
   8  -4   9   17.20    2.34
  -8   4  -9   12.11    2.49
  -8   4  -9   18.27    2.41
   8   4   9   16.61    2.16
  -8  -4 -10   22.00    2.99
  -8   4 -10   19.63    2.59
  -8   4 -10   27.74    2.72
   8   4  10   26.30    2.40
   8  -4  10   26.31    2.48
   8   4  11   14.83    1.77
  -8  -4 -11   12.00    2.16
  -8   4 -11   18.05    2.22
   8  -4  11   15.80    1.92
  -8   4 -12   21.87    2.15
   8   4  12   17.77    1.78
  -8   4 -13   14.59    1.82
  -8   4 -14   61.50    3.63
  -8   4 -15   18.64    1.79
  -8  -5  15    8.29    1.25
  -8  -5  14   23.52    2.07
  -8  -5  13   47.23    3.19
  -8  -5  12   51.78    3.54
  -8  -5  11   34.61    2.98
  -8  -5  10   64.07    4.20
  -8  -5   9  100.47    5.70
  -8  -5   8   66.66    4.44
  -8  -5   7   24.12    3.20
  -8  -5   7   32.61    3.11
  -8  -5   6   34.99    3.16
  -8  -5   6   24.50    3.51
  -8  -5   5   38.38    3.33
  -8  -5   5   29.45    3.91
  -8  -5   4   15.21    3.38
  -8  -5   4   20.99    2.54
  -8  -5   3   11.73    3.27
  -8  -5   3   15.23    2.22
  -8  -5   2    3.12    2.87
  -8  -5   2    4.78    1.70
  -8   5   2    3.70    1.49
  -8  -5   1    1.09    1.49
  -8   5   1    2.81    1.45
  -8  -5   0    3.10    1.49
  -8   5   0    1.96    1.45
  -8  -5  -1   23.28    2.45
  -8   5  -1   24.40    2.57
  -8  -5  -2   50.13    3.58
  -8   5  -2   53.30    3.82
  -8  -5  -2   56.49    5.38
  -8  -5  -3   59.24    3.81
  -8  -5  -3   61.09    5.47
  -8  -5  -4  142.41    8.65
  -8  -5  -5  139.77    8.48
  -8  -5  -6  123.45    7.66
  -8   5  -7   54.28    4.02
  -8  -5  -7   60.15    4.93
  -8   5  -8   58.25    3.82
  -8  -5  -8   38.94    4.11
  -8   5  -9   44.43    3.21
  -8  -5  -9   39.80    3.69
  -8   5 -10   63.23    3.84
  -8  -5 -10   47.50    3.90
  -8   5 -11   57.35    3.55
  -8  -5 -11   47.04    3.41
  -8   5 -12   47.80    3.13
  -8   5 -13    5.91    1.24
  -8   5 -14    1.63    0.83
  -8  -6  13   10.22    1.27
  -8  -6  12   11.09    1.54
  -8  -6  11   64.52    3.75
  -8  -6  10   61.70    3.78
  -8  -6   9   66.38    4.04
  -8  -6   8   48.33    3.47
  -8  -6   7   91.57    5.14
  -8  -6   6   75.88    4.43
  -8  -6   6   60.05    4.48
  -8  -6   5   72.30    4.53
  -8  -6   5   76.12    5.11
  -8  -6   4   70.13    4.23
  -8   6   4   61.05    3.87
  -8  -6   4   64.12    4.91
  -8  -6   3  112.76    5.85
  -8   6   3  103.94    5.60
  -8  -6   3  113.31    6.87
  -8  -6   2   73.74    4.36
  -8   6   2   66.71    4.13
  -8  -6   2   59.07    5.18
  -8  -6   1   59.97    3.82
  -8   6   1   52.65    3.73
  -8  -6   1   62.75    5.10
  -8  -6   0   36.60    2.91
  -8   6   0   31.21    2.79
  -8  -6  -1   35.81    2.88
  -8   6  -1   37.29    3.03
  -8  -6  -2   30.69    4.10
  -8   6  -2   33.70    2.95
  -8  -6  -3   38.83    4.16
  -8  -6  -4   44.21    4.44
  -8  -6  -5   79.28    5.67
  -8  -6  -6   56.50    4.62
  -8   6  -7   48.44    3.39
  -8  -6  -7   48.17    3.99
  -8   6  -8   25.42    2.47
  -8  -6  -8   21.58    2.77
  -8  -6  -9   10.23    1.97
  -8   6  -9   15.33    1.85
  -8   6 -10   13.71    1.70
  -8   6 -11    2.96    1.04
  -8  -7  10   33.86    2.29
  -8  -7   9   35.80    2.52
  -8  -7   8   25.37    2.18
  -8  -7   7   17.69    1.95
  -8  -7   6   33.02    2.60
  -8  -7   5    4.80    1.48
  -8  -7   5    6.16    1.61
  -8   7   5    7.95    1.26
  -8  -7   4   13.99    2.18
  -8  -7   4   20.00    2.09
  -8   7   4   17.69    1.80
  -8  -7   3    6.88    1.49
  -8   7   3    4.97    1.22
  -8  -7   2   16.67    1.89
  -8   7   2   14.27    1.72
  -8  -7   1   27.70    2.33
  -8   7   1   25.63    2.24
  -8  -7   1   23.70    3.06
  -8   7   0   19.13    1.99
  -8   7  -1   44.31    2.99
  -8  -7  -2   10.63    2.47
  -8  -7  -3   70.21    4.85
  -8  -7  -4   27.83    3.03
  -8  -7  -5   99.39    5.84
  -8   7  -6   42.00    2.80
  -8  -7  -6   38.46    3.31
  -8   7  -7   77.47    4.05
  -8  -7  -7   73.51    4.47
  -8   7  -8   25.77    2.09
  -8  -8   0   15.07    2.03
  -9   0   8   -1.27    1.36
  -9   0   7   -0.22    1.61
  -9   0   6   -0.77    1.88
  -9   0   5   -1.00    1.85
  -9   0   4   -1.86    2.21
  -9   0   3    0.66    2.21
  -9   0   0    0.87    2.24
  -9   0   0    1.05    1.15
  -9   0  -1    0.17    2.19
  -9   0  -1   -0.95    1.22
  -9   0  -2    1.65    2.24
  -9   0  -2    0.72    1.06
  -9   0  -3    1.72    2.08
  -9   0  -4    1.90    1.99
  -9   0  -5   -0.27    1.90
  -9   0  -6   -0.60    1.73
  -9   0  -7   -0.10    1.46
  -9   0  -8   -0.50    1.16
   9   0   8    1.37    1.29
   9   0   9   -0.62    1.25
   9   0  10    0.23    0.97
   9   0  11   -0.25    0.78
  -9   1   8   56.49    3.91
  -9  -1   7   16.86    2.21
  -9   1   7   16.27    2.29
  -9   1   6   20.29    3.09
  -9  -1   6   26.90    3.12
  -9  -1   5    0.82    1.89
  -9   1   5   -1.00    2.01
  -9  -1   4   46.04    4.42
  -9   1   4   48.01    4.58
  -9  -1   3   13.68    2.80
  -9   1   3   10.20    2.78
  -9  -1   0    5.14    2.73
  -9   1   0    5.20    2.64
  -9  -1  -1  182.25    9.57
  -9   1  -1  171.99    9.50
  -9  -1  -2    4.05    2.47
  -9   1  -2    2.28    2.38
  -9  -1  -3  230.42   11.15
  -9   1  -3  220.85   11.08
  -9  -1  -4    3.58    2.11
  -9   1  -4    2.72    2.00
  -9  -1  -5  145.44    7.83
  -9   1  -5  152.09    7.88
  -9  -1  -6    5.53    2.02
  -9   1  -6    5.92    1.99
  -9  -1  -7  294.15   12.85
  -9   1  -7  298.30   12.81
  -9  -1  -8    5.78    1.63
   9   1   8   14.39    1.90
   9   1   9  154.07    7.11
   9   1  10   27.99    2.22
  -9   2   8    2.69    1.31
  -9  -2   7    6.40    1.61
  -9   2   7    9.12    1.84
  -9  -2   6    2.58    1.69
  -9   2   6    3.41    1.97
  -9  -2   5   -0.74    1.82
  -9   2   5   -0.54    1.84
  -9  -2   4    5.02    2.01
  -9   2   4    3.98    2.14
  -9  -2   3    7.02    2.28
  -9  -2   2   -1.85    2.45
  -9   2   1   10.43    2.93
  -9   2   0    4.10    2.40
  -9  -2  -1   -0.16    2.12
  -9   2  -1    2.08    2.19
  -9  -2  -2    5.17    2.30
  -9   2  -2    8.60    2.54
  -9  -2  -3    5.34    2.05
  -9   2  -3    5.07    2.12
  -9  -2  -4   -0.40    1.83
  -9   2  -4    2.14    1.93
  -9  -2  -5   12.16    2.23
  -9   2  -5   10.46    2.20
  -9  -2  -6    5.03    1.64
  -9   2  -6    6.48    1.84
  -9  -2  -7    2.52    1.45
   9   2   7    0.64    1.08
   9  -2   7    3.50    1.23
  -9   2  -7    1.71    1.32
   9   2   8    3.30    1.11
   9  -2   8    3.38    1.11
   9  -2   9   18.97    1.75
  -9   3   7    3.67    1.49
  -9  -3   6    7.93    1.73
  -9   3   6   10.81    2.17
  -9  -3   5    1.43    1.61
  -9   3   5    0.85    1.72
  -9  -3   4   13.13    2.46
  -9   3   4   15.17    2.66
  -9  -3   3    4.71    1.99
  -9  -3   2   19.55    2.95
  -9   3   1   34.53    3.73
  -9   3   0   16.12    3.06
  -9  -3  -1   80.65    5.58
  -9   3  -1   82.59    5.48
  -9  -3  -2   13.92    2.68
  -9   3  -2   12.27    2.59
  -9  -3  -3   71.37    4.92
  -9   3  -3   69.70    4.90
  -9  -3  -4   11.34    2.37
  -9   3  -4   13.80    2.25
   9   3   5   44.79    2.81
   9  -3   5   47.32    2.97
  -9  -3  -5   53.88    3.89
  -9   3  -5   43.32    3.65
  -9  -3  -6   11.61    1.92
  -9   4   5    9.28    1.93
  -9  -4   4    9.10    1.70
  -9   4   4    4.74    2.04
  -9  -4   3   25.40    2.69
  -9  -4   2   20.75    2.57
  -9   4   1   24.89    3.18
  -9  -4   1   36.15    3.25
  -9   4   0   10.87    2.37
  -9  -4  -1   11.83    2.34
  -9   4  -1   13.62    2.49
  -9  -4  -2   12.50    2.39
  -9   4  -2    8.11    2.20
  -9  -4  -3   39.60    3.30
  -9   4  -3   29.36    3.00
  -9  -4  -4   17.36    2.24
  -9   4  -4   11.42    1.94
  -9  -4  -5   29.63    2.68
   0   0   0    0.00    0.00


TITL tf-1a in P2(1)/n
REM P2(1)/n (#14 in standard setting)
CELL 1.54184   7.548585  11.719463  27.620680  90.0000  90.9976  90.0000
ZERR   11.00   0.000149   0.000239   0.000515   0.0000   0.0018   0.0000
LATT  1
SYMM -x+1/2, y+1/2,-z+1/2
SFAC C H N O
UNIT 121.00 110.00 11.00 11.00
TREF
HKLF 4
END
_computing_structure_solution     'SHELXT 2018/2 (Sheldrick, 2018)'
;
_shelx_hkl_checksum                82353
_olex2_submission_special_instructions  'No special instructions were received'
