data_tf-7-132-insol
_audit_creation_date               2021-03-17
_audit_creation_method
;
Olex2 1.3
(compiled 2020.11.12 svn.r5f609507 for OlexSys, GUI svn.r6272)
;
_shelx_SHELXL_version_number       '2018/3'
_audit_contact_author_address      ?
_audit_contact_author_email        ?
_audit_contact_author_name         ''
_audit_contact_author_phone        ?
_publ_contact_author_id_orcid      ?
_publ_section_references
;
Dolomanov, O.V., Bourhis, L.J., Gildea, R.J, Howard, J.A.K. & Puschmann, H.
 (2009), J. Appl. Cryst. 42, 339-341.

Sheldrick, G.M. (2015). Acta Cryst. A71, 3-8.

Sheldrick, G.M. (2015). Acta Cryst. C71, 3-8.
;
_chemical_name_common              ?
_chemical_name_systematic          ?
_chemical_formula_moiety           'C13 H8 N2 O3 Se, C3 H7 N O'
_chemical_formula_sum              'C16 H15 N3 O4 Se'
_chemical_formula_weight           392.27
_chemical_melting_point            ?
_chemical_oxdiff_formula           C16H15N3O4Se
_chemical_oxdiff_usercomment       'ex dmf'
loop_
  _atom_type_symbol
  _atom_type_description
  _atom_type_scat_dispersion_real
  _atom_type_scat_dispersion_imag
  _atom_type_scat_source
 'C' 'C' 0.0181 0.0091 'International Tables Vol C Tables 4.2.6.8 and 6.1.1.4'
 'H' 'H' 0.0000 0.0000 'International Tables Vol C Tables 4.2.6.8 and 6.1.1.4'
 'N' 'N' 0.0311 0.0180 'International Tables Vol C Tables 4.2.6.8 and 6.1.1.4'
 'O' 'O' 0.0492 0.0322 'International Tables Vol C Tables 4.2.6.8 and 6.1.1.4'
 'Se' 'Se' -0.7943 1.1372
 'International Tables Vol C Tables 4.2.6.8 and 6.1.1.4'

_shelx_space_group_comment
;
The symmetry employed for this shelxl refinement is uniquely defined
by the following loop, which should always be used as a source of
symmetry information in preference to the above space-group names.
They are only intended as comments.
;
_space_group_crystal_system        'triclinic'
_space_group_IT_number             2
_space_group_name_H-M_alt          'P -1'
_space_group_name_Hall             '-P 1'
loop_
  _space_group_symop_operation_xyz
 'x, y, z'
 '-x, -y, -z'

_cell_length_a                     7.2085(2)
_cell_length_b                     8.1572(2)
_cell_length_c                     13.6748(3)
_cell_angle_alpha                  74.985(2)
_cell_angle_beta                   82.896(2)
_cell_angle_gamma                  84.509(2)
_cell_volume                       768.98(3)
_cell_formula_units_Z              2
_cell_measurement_reflns_used      7469
_cell_measurement_temperature      100.00(10)
_cell_measurement_theta_max        76.9420
_cell_measurement_theta_min        3.3630
_shelx_estimated_absorpt_T_max     ?
_shelx_estimated_absorpt_T_min     ?
_exptl_absorpt_coefficient_mu      3.559
_exptl_absorpt_correction_T_max    1.000
_exptl_absorpt_correction_T_min    0.125
_exptl_absorpt_correction_type     gaussian
_exptl_absorpt_process_details
;
CrysAlisPro 1.171.40.67a (Rigaku Oxford Diffraction, 2019)
Numerical absorption correction based on gaussian integration over
			a multifaceted crystal model
Empirical absorption correction using spherical harmonics,
 implemented in SCALE3 ABSPACK scaling algorithm.
;
_exptl_absorpt_special_details     ?
_exptl_crystal_colour              'light yellow'
_exptl_crystal_colour_modifier     light
_exptl_crystal_colour_primary      yellow
_exptl_crystal_density_diffrn      1.694
_exptl_crystal_density_meas        ?
_exptl_crystal_density_method      ?
_exptl_crystal_description         needle
_exptl_crystal_F_000               396
loop_
  _exptl_crystal_face_index_h
  _exptl_crystal_face_index_k
  _exptl_crystal_face_index_l
  _exptl_crystal_face_perp_dist
 0 0 1 0.0625
 0 0 -1 0.0855
 0 2 1 0.0690
 0 -2 -1 0.1143
 0 1 0 0.0689
 0 -1 0 0.1127
 1 0 0 0.3031
 -2 -1 1 0.2882
 -5 -1 -3 0.3356
 0 -3 6 0.0891
 3 0 -6 0.2271
 0 3 -6 0.0790
 -4 2 0 0.3156

_exptl_crystal_size_max            0.662
_exptl_crystal_size_mid            0.183
_exptl_crystal_size_min            0.148
loop_
  _exptl_oxdiff_crystal_face_indexfrac_h
  _exptl_oxdiff_crystal_face_indexfrac_k
  _exptl_oxdiff_crystal_face_indexfrac_l
  _exptl_oxdiff_crystal_face_x
  _exptl_oxdiff_crystal_face_y
  _exptl_oxdiff_crystal_face_z
 0.0000 -0.0000 1.0000 -0.0127 0.0745 0.0896
 -0.0000 0.0000 -1.0000 0.0127 -0.0745 -0.0896
 -0.0000 2.0000 1.0000 -0.3765 0.0219 -0.0464
 0.0000 -2.0000 -1.0000 0.3765 -0.0219 0.0464
 -0.0000 1.0000 -0.0000 -0.1819 -0.0263 -0.0680
 0.0000 -1.0000 0.0000 0.1819 0.0263 0.0680
 1.0000 0.0000 0.0000 0.0487 0.1503 -0.1471
 -2.0000 -1.0000 1.0000 0.0718 -0.1997 0.4519
 -4.6085 -0.9343 -2.5601 -0.0221 -0.8587 0.5120
 -0.0178 -3.0262 5.7151 0.4772 0.5029 0.7207
 2.8750 0.0378 -6.1536 0.2111 -0.0277 -0.9771
 -0.0263 2.6918 -6.2081 -0.4123 -0.5375 -0.7356
 -4.1954 1.8708 -0.3374 -0.5404 -0.7047 0.4597

_exptl_transmission_factor_max     ?
_exptl_transmission_factor_min     ?
_diffrn_reflns_av_R_equivalents    0.0304
_diffrn_reflns_av_unetI/netI       0.0266
_diffrn_reflns_Laue_measured_fraction_full  0.996
_diffrn_reflns_Laue_measured_fraction_max  0.966
_diffrn_reflns_limit_h_max         8
_diffrn_reflns_limit_h_min         -8
_diffrn_reflns_limit_k_max         10
_diffrn_reflns_limit_k_min         -10
_diffrn_reflns_limit_l_max         17
_diffrn_reflns_limit_l_min         -16
_diffrn_reflns_number              8506
_diffrn_reflns_point_group_measured_fraction_full  0.996
_diffrn_reflns_point_group_measured_fraction_max  0.966
_diffrn_reflns_theta_full          67.684
_diffrn_reflns_theta_max           77.161
_diffrn_reflns_theta_min           3.364
_diffrn_ambient_environment        N~2~
_diffrn_ambient_temperature        100.00(10)
_diffrn_detector                   'Hybrid Pixel Array Detector'
_diffrn_detector_area_resol_mean   10.0000
_diffrn_detector_type              HyPix
_diffrn_measured_fraction_theta_full  0.996
_diffrn_measured_fraction_theta_max  0.966
_diffrn_measurement_details
;
List of Runs (angles in degrees, time in seconds):

  # Type    Start    End  Width  t~exp~   \w     \q     \k     \f   Frames
--------------------------------------------------------------------------
  1  \w     50.00 118.00   0.50    0.05    --   48.20  53.00  -8.00  136
  2  \w     97.00 170.00   0.50    0.05    --  107.75  53.00  -8.00  146
  3  \w    147.00 177.00   0.50    0.05    --  107.75  45.00 -90.00   60
  4  \w    145.00 171.00   0.50    0.05    --  107.75 125.00-180.00   52
  5  \w    101.00 170.00   0.50    0.05    --  107.75 125.00 -90.00  138
  6  \w     97.00 144.00   0.50    0.05    --  107.75  45.00 -90.00   94
  7  \w     99.00 177.00   0.50    0.05    --  107.75  61.00-120.00  156
  8  \w     97.00 142.00   0.50    0.05    --  107.75 125.00-180.00   90
  9  \w     96.00 166.00   0.50    0.05    --  107.75  61.00 -60.00  140
 10  \w     97.00 176.00   0.50    0.05    --  107.75 125.00  60.00  158
 11  \w    137.00 172.00   0.50    0.05    --  107.75 125.00 120.00   70
 12  \w     96.00 130.00   0.50    0.05    --  107.75 125.00 120.00   68
 13  \w     40.00  65.00   0.50    0.05    --  107.75 -61.00   0.00   50
 14  \w     50.00 103.00   0.50    0.05    --  107.75 -94.00 -30.00  106
 15  \w     78.00 104.00   0.50    0.05    --  107.75 -94.00-120.00   52
 16  \w     73.00 103.00   0.50    0.05    --  107.75 -94.00-150.00   60
 17  \w     38.00  98.00   0.50    0.05    --  107.75 -94.00-180.00  120
 18  \w     39.00  69.00   0.50    0.05    --  107.75 -94.00-120.00   60
 19  \w     37.00  62.00   0.50    0.05    --  107.75 -61.00 -60.00   50
 20  \w     37.00  63.00   0.50    0.05    --  107.75 -94.00-150.00   52
 21  \w    -15.00  33.00   0.50    0.05    --   48.20 -53.00-152.00   96
 22  \w    -12.00  22.00   0.50    0.05    --  -48.20  53.00  -8.00   68
 23  \w    -45.00 -18.00   0.50    0.05    --  -86.25 125.00  30.00   54
 24  \w    -66.00 -40.00   0.50    0.05    --  -86.25  53.00  -8.00   52
 25  \w    -86.00 -13.00   0.50    0.05    --  -48.20 125.00 -60.00  146
 26  \w    -75.00 -50.00   0.50    0.05    --  -86.25 125.00  30.00   50
 27  \w    -77.00 -35.00   0.50    0.05    --  -48.20 -53.00-152.00   84
 28  \w     35.00  69.00   0.50    0.05    --  107.75 -61.00  90.00   68
 29  \w     40.00 103.00   0.50    0.05    --  107.75 -94.00  90.00  126
 30  \w     84.00 112.00   0.50    0.05    --  107.75-125.00  90.00   56
 31  \w     51.00 104.00   0.50    0.05    --  107.75 -94.00 150.00  106
 32  \w     37.00  81.00   0.50    0.05    --  107.75-125.00  90.00   88
 33  \w    -25.00   6.00   0.50    0.05    --   48.20 -19.00  60.00   62
 34  \w   -105.00 -79.00   0.50    0.05    --  -48.20 -53.00-152.00   52
 35  \w   -131.00 -74.00   0.50    0.05    --  -86.25 -53.00-152.00  114
 36  \w   -118.00 -91.00   0.50    0.05    --  -48.20-125.00  30.00   54
;
_diffrn_measurement_device         'four-circle diffractometer'
_diffrn_measurement_device_type    'XtaLAB Synergy, Dualflex, HyPix'
_diffrn_measurement_method         '\w scans'
_diffrn_orient_matrix_type        
 'CrysAlisPro convention (1999,Acta A55,543-557)'
_diffrn_orient_matrix_UB_11        0.0487166000
_diffrn_orient_matrix_UB_12        -0.1818981000
_diffrn_orient_matrix_UB_13        -0.0126686000
_diffrn_orient_matrix_UB_21        0.1502516000
_diffrn_orient_matrix_UB_22        -0.0263010000
_diffrn_orient_matrix_UB_23        0.0745375000
_diffrn_orient_matrix_UB_31        -0.1471051000
_diffrn_orient_matrix_UB_32        -0.0680081000
_diffrn_orient_matrix_UB_33        0.0896319000
_diffrn_radiation_monochromator    mirror
_diffrn_radiation_probe            x-ray
_diffrn_radiation_type             'Cu K\a'
_diffrn_radiation_wavelength       1.54184
_diffrn_source                     'micro-focus sealed X-ray tube'
_diffrn_source_type                'PhotonJet (Cu) X-ray Source'
_reflns_Friedel_coverage           0.000
_reflns_Friedel_fraction_full      .
_reflns_Friedel_fraction_max       .
_reflns_number_gt                  3127
_reflns_number_total               3155
_reflns_odcompleteness_completeness  98.45
_reflns_odcompleteness_iscentric   1
_reflns_odcompleteness_theta       75.12
_reflns_special_details
;
 Reflections were merged by SHELXL according to the crystal
 class for the calculation of statistics and refinement.
 
 _reflns_Friedel_fraction is defined as the number of unique
 Friedel pairs measured divided by the number that would be
 possible theoretically, ignoring centric projections and
 systematic absences.
;
_reflns_threshold_expression       'I > 2\s(I)'
_computing_cell_refinement         'CrysAlisPro 1.171.40.67a (Rigaku OD, 2019)'
_computing_data_collection         'CrysAlisPro 1.171.40.67a (Rigaku OD, 2019)'
_computing_data_reduction          'CrysAlisPro 1.171.40.67a (Rigaku OD, 2019)'
_computing_molecular_graphics      'Olex2 1.3 (Dolomanov et al., 2009)'
_computing_publication_material    'Olex2 1.3 (Dolomanov et al., 2009)'
_computing_structure_refinement    'SHELXL 2018/3 (Sheldrick, 2015)'
_computing_structure_solution      'SHELXT 2018/2 (Sheldrick, 2018)'
_refine_diff_density_max           0.585
_refine_diff_density_min           -0.509
_refine_diff_density_rms           0.077
_refine_ls_extinction_coef         0.0095(5)
_refine_ls_extinction_expression  
 'Fc^*^=kFc[1+0.001xFc^2^\l^3^/sin(2\q)]^-1/4^'
_refine_ls_extinction_method       'SHELXL-2018/3 (Sheldrick 2018)'
_refine_ls_goodness_of_fit_ref     1.088
_refine_ls_hydrogen_treatment      constr
_refine_ls_matrix_type             full
_refine_ls_number_parameters       220
_refine_ls_number_reflns           3155
_refine_ls_number_restraints       0
_refine_ls_R_factor_all            0.0272
_refine_ls_R_factor_gt             0.0269
_refine_ls_restrained_S_all        1.088
_refine_ls_shift/su_max            0.001
_refine_ls_shift/su_mean           0.000
_refine_ls_structure_factor_coef   Fsqd
_refine_ls_weighting_details      
 'w=1/[\s^2^(Fo^2^)+(0.0405P)^2^+0.5650P] where P=(Fo^2^+2Fc^2^)/3'
_refine_ls_weighting_scheme        calc
_refine_ls_wR_factor_gt            0.0719
_refine_ls_wR_factor_ref           0.0721
_refine_special_details            ?
_olex2_refinement_description
;
1.a Aromatic/amide H refined with riding coordinates:
 C3(H3), C4(H4), C5(H5), C6(H6), C9(H9), C10(H10), C12(H12), C13(H13), C14(H14)
1.b Idealised Me refined as rotating group:
 C15(H15A,H15B,H15C), C16(H16A,H16B,H16C)
;
_atom_sites_solution_hydrogens     geom
_atom_sites_solution_primary       dual
_atom_sites_solution_secondary     ?
loop_
  _atom_site_label
  _atom_site_type_symbol
  _atom_site_fract_x
  _atom_site_fract_y
  _atom_site_fract_z
  _atom_site_U_iso_or_equiv
  _atom_site_adp_type
  _atom_site_occupancy
  _atom_site_site_symmetry_order
  _atom_site_calc_flag
  _atom_site_refinement_flags_posn
  _atom_site_refinement_flags_adp
  _atom_site_refinement_flags_occupancy
  _atom_site_disorder_assembly
  _atom_site_disorder_group
 Se01 Se 0.72013(3) 0.53075(2) 0.29038(2) 0.01338(10) Uani 1 1 d . . . . .
 O1 O 0.6680(2) 0.76150(17) 0.51707(10) 0.0188(3) Uani 1 1 d . . . . .
 O2 O 0.9502(2) -0.01096(19) 0.81107(11) 0.0274(3) Uani 1 1 d . . . . .
 O3 O 0.9485(2) -0.16451(18) 0.70415(11) 0.0244(3) Uani 1 1 d . . . . .
 O4 O 0.7265(2) 0.54267(18) 0.10025(10) 0.0199(3) Uani 1 1 d . . . . .
 N1 N 0.7174(2) 0.5550(2) 0.42626(12) 0.0140(3) Uani 1 1 d . . . . .
 N2 N 0.9267(2) -0.0271(2) 0.72662(12) 0.0175(3) Uani 1 1 d . . . . .
 N3 N 0.8097(2) 0.3851(2) -0.01527(12) 0.0161(3) Uani 1 1 d . . . . .
 C1 C 0.6421(3) 0.7646(2) 0.25614(14) 0.0139(3) Uani 1 1 d . . . . .
 C2 C 0.6287(3) 0.8347(2) 0.33973(14) 0.0148(4) Uani 1 1 d . . . . .
 C3 C 0.5688(3) 1.0048(2) 0.33086(15) 0.0160(4) Uani 1 1 d . . . . .
 H3 H 0.558741 1.050814 0.386958 0.019 Uiso 1 1 calc R U . . .
 C4 C 0.5245(3) 1.1047(2) 0.23676(15) 0.0189(4) Uani 1 1 d . . . . .
 H4 H 0.485289 1.218874 0.229340 0.023 Uiso 1 1 calc R U . . .
 C5 C 0.5387(3) 1.0336(3) 0.15330(15) 0.0197(4) Uani 1 1 d . . . . .
 H5 H 0.507998 1.101721 0.090814 0.024 Uiso 1 1 calc R U . . .
 C6 C 0.5975(3) 0.8638(2) 0.16120(14) 0.0171(4) Uani 1 1 d . . . . .
 H6 H 0.606821 0.817671 0.105163 0.020 Uiso 1 1 calc R U . . .
 C7 C 0.6731(3) 0.7183(2) 0.43754(14) 0.0143(4) Uani 1 1 d . . . . .
 C8 C 0.7683(3) 0.4125(2) 0.50359(14) 0.0134(3) Uani 1 1 d . . . . .
 C9 C 0.7808(3) 0.2515(2) 0.48400(14) 0.0153(4) Uani 1 1 d . . . . .
 H9 H 0.754690 0.241685 0.420918 0.018 Uiso 1 1 calc R U . . .
 C10 C 0.8313(3) 0.1066(2) 0.55669(14) 0.0159(4) Uani 1 1 d . . . . .
 H10 H 0.837905 -0.000095 0.543376 0.019 Uiso 1 1 calc R U . . .
 C11 C 0.8716(3) 0.1243(2) 0.64961(14) 0.0149(4) Uani 1 1 d . . . . .
 C12 C 0.8596(3) 0.2818(2) 0.67187(14) 0.0165(4) Uani 1 1 d . . . . .
 H12 H 0.886420 0.290296 0.735121 0.020 Uiso 1 1 calc R U . . .
 C13 C 0.8075(3) 0.4265(2) 0.59916(14) 0.0163(4) Uani 1 1 d . . . . .
 H13 H 0.798550 0.532502 0.613580 0.020 Uiso 1 1 calc R U . . .
 C14 C 0.7967(3) 0.4110(2) 0.07761(14) 0.0166(4) Uani 1 1 d . . . . .
 H14 H 0.843504 0.324303 0.129074 0.020 Uiso 1 1 calc R U . . .
 C15 C 0.8910(3) 0.2259(3) -0.03618(15) 0.0203(4) Uani 1 1 d . . . . .
 H15A H 0.996315 0.248209 -0.086933 0.030 Uiso 1 1 calc R U . . .
 H15B H 0.798770 0.173203 -0.060545 0.030 Uiso 1 1 calc R U . . .
 H15C H 0.931607 0.151223 0.025134 0.030 Uiso 1 1 calc R U . . .
 C16 C 0.7437(3) 0.5155(3) -0.10094(15) 0.0227(4) Uani 1 1 d . . . . .
 H16A H 0.637459 0.477865 -0.123011 0.034 Uiso 1 1 calc R U . . .
 H16B H 0.842048 0.535515 -0.155928 0.034 Uiso 1 1 calc R U . . .
 H16C H 0.708041 0.618886 -0.080273 0.034 Uiso 1 1 calc R U . . .

loop_
  _atom_site_aniso_label
  _atom_site_aniso_U_11
  _atom_site_aniso_U_22
  _atom_site_aniso_U_33
  _atom_site_aniso_U_23
  _atom_site_aniso_U_13
  _atom_site_aniso_U_12
 Se01 0.01745(14) 0.01095(13) 0.01214(13) -0.00378(8) -0.00306(7) 0.00157(8)
 O1 0.0261(7) 0.0155(6) 0.0168(6) -0.0070(5) -0.0062(5) 0.0024(5)
 O2 0.0419(9) 0.0232(8) 0.0171(7) -0.0037(6) -0.0127(6) 0.0061(7)
 O3 0.0339(8) 0.0152(7) 0.0219(7) -0.0027(5) -0.0042(6) 0.0051(6)
 O4 0.0252(7) 0.0170(7) 0.0182(7) -0.0066(5) -0.0026(5) 0.0020(5)
 N1 0.0189(8) 0.0125(7) 0.0116(7) -0.0047(6) -0.0027(6) 0.0002(6)
 N2 0.0171(8) 0.0165(8) 0.0170(8) -0.0018(6) -0.0026(6) 0.0021(6)
 N3 0.0193(8) 0.0138(8) 0.0147(7) -0.0035(6) -0.0030(6) 0.0032(6)
 C1 0.0124(8) 0.0110(8) 0.0178(9) -0.0030(7) -0.0016(7) 0.0005(6)
 C2 0.0135(9) 0.0135(9) 0.0165(9) -0.0023(7) -0.0018(7) -0.0010(7)
 C3 0.0154(9) 0.0130(8) 0.0206(9) -0.0060(7) -0.0019(7) 0.0001(7)
 C4 0.0196(10) 0.0117(8) 0.0237(10) -0.0025(7) -0.0027(7) 0.0025(7)
 C5 0.0203(10) 0.0175(9) 0.0187(9) 0.0000(7) -0.0037(7) 0.0015(7)
 C6 0.0197(9) 0.0156(9) 0.0157(9) -0.0040(7) -0.0032(7) 0.0015(7)
 C7 0.0134(9) 0.0127(8) 0.0176(9) -0.0051(7) -0.0023(7) -0.0005(7)
 C8 0.0129(9) 0.0133(9) 0.0135(8) -0.0023(7) -0.0012(6) -0.0003(7)
 C9 0.0168(9) 0.0158(9) 0.0139(8) -0.0044(7) -0.0030(7) -0.0003(7)
 C10 0.0170(9) 0.0129(8) 0.0180(9) -0.0046(7) -0.0018(7) 0.0001(7)
 C11 0.0131(9) 0.0146(9) 0.0150(8) -0.0005(7) -0.0016(6) 0.0012(7)
 C12 0.0178(9) 0.0186(9) 0.0141(8) -0.0047(7) -0.0047(7) 0.0001(7)
 C13 0.0181(9) 0.0143(9) 0.0177(9) -0.0055(7) -0.0035(7) -0.0002(7)
 C14 0.0177(9) 0.0161(9) 0.0159(9) -0.0030(7) -0.0029(7) -0.0016(7)
 C15 0.0264(11) 0.0156(9) 0.0189(9) -0.0057(7) -0.0030(8) 0.0037(8)
 C16 0.0301(11) 0.0208(10) 0.0161(9) -0.0026(8) -0.0079(8) 0.0050(8)

_geom_special_details
;
 All esds (except the esd in the dihedral angle between two l.s. planes)
 are estimated using the full covariance matrix.  The cell esds are taken
 into account individually in the estimation of esds in distances, angles
 and torsion angles; correlations between esds in cell parameters are only
 used when they are defined by crystal symmetry.  An approximate (isotropic)
 treatment of cell esds is used for estimating esds involving l.s. planes.
;
loop_
  _geom_bond_atom_site_label_1
  _geom_bond_atom_site_label_2
  _geom_bond_distance
  _geom_bond_site_symmetry_2
  _geom_bond_publ_flag
 Se01 N1 1.9163(15) . ?
 Se01 C1 1.8898(18) . ?
 O1 C7 1.223(2) . ?
 O2 N2 1.229(2) . ?
 O3 N2 1.228(2) . ?
 O4 C14 1.239(2) . ?
 N1 C7 1.383(2) . ?
 N1 C8 1.407(2) . ?
 N2 C11 1.459(2) . ?
 N3 C14 1.332(2) . ?
 N3 C15 1.455(2) . ?
 N3 C16 1.458(2) . ?
 C1 C2 1.394(3) . ?
 C1 C6 1.397(3) . ?
 C2 C3 1.392(3) . ?
 C2 C7 1.478(3) . ?
 C3 H3 0.9300 . ?
 C3 C4 1.390(3) . ?
 C4 H4 0.9300 . ?
 C4 C5 1.397(3) . ?
 C5 H5 0.9300 . ?
 C5 C6 1.390(3) . ?
 C6 H6 0.9300 . ?
 C8 C9 1.400(3) . ?
 C8 C13 1.406(3) . ?
 C9 H9 0.9300 . ?
 C9 C10 1.384(3) . ?
 C10 H10 0.9300 . ?
 C10 C11 1.383(3) . ?
 C11 C12 1.388(3) . ?
 C12 H12 0.9300 . ?
 C12 C13 1.386(3) . ?
 C13 H13 0.9300 . ?
 C14 H14 0.9300 . ?
 C15 H15A 0.9600 . ?
 C15 H15B 0.9600 . ?
 C15 H15C 0.9600 . ?
 C16 H16A 0.9600 . ?
 C16 H16B 0.9600 . ?
 C16 H16C 0.9600 . ?

loop_
  _geom_angle_atom_site_label_1
  _geom_angle_atom_site_label_2
  _geom_angle_atom_site_label_3
  _geom_angle
  _geom_angle_site_symmetry_1
  _geom_angle_site_symmetry_3
  _geom_angle_publ_flag
 C1 Se01 N1 85.72(7) . . ?
 C7 N1 Se01 115.07(12) . . ?
 C7 N1 C8 125.69(15) . . ?
 C8 N1 Se01 119.15(12) . . ?
 O2 N2 C11 118.33(16) . . ?
 O3 N2 O2 123.00(16) . . ?
 O3 N2 C11 118.67(16) . . ?
 C14 N3 C15 121.69(16) . . ?
 C14 N3 C16 121.42(16) . . ?
 C15 N3 C16 116.89(16) . . ?
 C2 C1 Se01 111.91(13) . . ?
 C2 C1 C6 120.82(17) . . ?
 C6 C1 Se01 127.26(14) . . ?
 C1 C2 C7 116.76(16) . . ?
 C3 C2 C1 120.79(17) . . ?
 C3 C2 C7 122.40(17) . . ?
 C2 C3 H3 120.6 . . ?
 C4 C3 C2 118.88(17) . . ?
 C4 C3 H3 120.6 . . ?
 C3 C4 H4 120.0 . . ?
 C3 C4 C5 119.97(18) . . ?
 C5 C4 H4 120.0 . . ?
 C4 C5 H5 119.1 . . ?
 C6 C5 C4 121.73(18) . . ?
 C6 C5 H5 119.1 . . ?
 C1 C6 H6 121.1 . . ?
 C5 C6 C1 117.79(18) . . ?
 C5 C6 H6 121.1 . . ?
 O1 C7 N1 125.40(17) . . ?
 O1 C7 C2 124.14(17) . . ?
 N1 C7 C2 110.45(16) . . ?
 C9 C8 N1 118.50(16) . . ?
 C9 C8 C13 119.09(17) . . ?
 C13 C8 N1 122.41(16) . . ?
 C8 C9 H9 119.4 . . ?
 C10 C9 C8 121.29(17) . . ?
 C10 C9 H9 119.4 . . ?
 C9 C10 H10 120.8 . . ?
 C11 C10 C9 118.42(17) . . ?
 C11 C10 H10 120.8 . . ?
 C10 C11 N2 119.05(17) . . ?
 C10 C11 C12 121.85(17) . . ?
 C12 C11 N2 119.09(17) . . ?
 C11 C12 H12 120.2 . . ?
 C13 C12 C11 119.54(17) . . ?
 C13 C12 H12 120.2 . . ?
 C8 C13 H13 120.1 . . ?
 C12 C13 C8 119.80(17) . . ?
 C12 C13 H13 120.1 . . ?
 O4 C14 N3 124.57(18) . . ?
 O4 C14 H14 117.7 . . ?
 N3 C14 H14 117.7 . . ?
 N3 C15 H15A 109.5 . . ?
 N3 C15 H15B 109.5 . . ?
 N3 C15 H15C 109.5 . . ?
 H15A C15 H15B 109.5 . . ?
 H15A C15 H15C 109.5 . . ?
 H15B C15 H15C 109.5 . . ?
 N3 C16 H16A 109.5 . . ?
 N3 C16 H16B 109.5 . . ?
 N3 C16 H16C 109.5 . . ?
 H16A C16 H16B 109.5 . . ?
 H16A C16 H16C 109.5 . . ?
 H16B C16 H16C 109.5 . . ?

loop_
  _geom_torsion_atom_site_label_1
  _geom_torsion_atom_site_label_2
  _geom_torsion_atom_site_label_3
  _geom_torsion_atom_site_label_4
  _geom_torsion
  _geom_torsion_site_symmetry_1
  _geom_torsion_site_symmetry_2
  _geom_torsion_site_symmetry_3
  _geom_torsion_site_symmetry_4
  _geom_torsion_publ_flag
 Se01 N1 C7 O1 -178.17(16) . . . . ?
 Se01 N1 C7 C2 2.85(19) . . . . ?
 Se01 N1 C8 C9 -13.3(2) . . . . ?
 Se01 N1 C8 C13 166.44(14) . . . . ?
 Se01 C1 C2 C3 -178.41(14) . . . . ?
 Se01 C1 C2 C7 -0.9(2) . . . . ?
 Se01 C1 C6 C5 178.52(14) . . . . ?
 O2 N2 C11 C10 -175.34(18) . . . . ?
 O2 N2 C11 C12 4.2(3) . . . . ?
 O3 N2 C11 C10 5.1(3) . . . . ?
 O3 N2 C11 C12 -175.42(18) . . . . ?
 N1 Se01 C1 C2 1.96(14) . . . . ?
 N1 Se01 C1 C6 -176.95(18) . . . . ?
 N1 C8 C9 C10 179.63(17) . . . . ?
 N1 C8 C13 C12 -179.08(18) . . . . ?
 N2 C11 C12 C13 179.94(17) . . . . ?
 C1 C2 C3 C4 -0.7(3) . . . . ?
 C1 C2 C7 O1 179.75(18) . . . . ?
 C1 C2 C7 N1 -1.3(2) . . . . ?
 C2 C1 C6 C5 -0.3(3) . . . . ?
 C2 C3 C4 C5 0.6(3) . . . . ?
 C3 C2 C7 O1 -2.8(3) . . . . ?
 C3 C2 C7 N1 176.20(17) . . . . ?
 C3 C4 C5 C6 -0.3(3) . . . . ?
 C4 C5 C6 C1 0.2(3) . . . . ?
 C6 C1 C2 C3 0.6(3) . . . . ?
 C6 C1 C2 C7 178.09(17) . . . . ?
 C7 N1 C8 C9 170.28(17) . . . . ?
 C7 N1 C8 C13 -9.9(3) . . . . ?
 C7 C2 C3 C4 -178.07(17) . . . . ?
 C8 N1 C7 O1 -1.7(3) . . . . ?
 C8 N1 C7 C2 179.37(16) . . . . ?
 C8 C9 C10 C11 -0.7(3) . . . . ?
 C9 C8 C13 C12 0.7(3) . . . . ?
 C9 C10 C11 N2 -179.41(17) . . . . ?
 C9 C10 C11 C12 1.1(3) . . . . ?
 C10 C11 C12 C13 -0.6(3) . . . . ?
 C11 C12 C13 C8 -0.3(3) . . . . ?
 C13 C8 C9 C10 -0.1(3) . . . . ?
 C15 N3 C14 O4 -178.89(19) . . . . ?
 C16 N3 C14 O4 1.3(3) . . . . ?

_shelx_res_file
;
TITL tf-7-132-insol_a.res in P-1
    tf-7-132-insol.res
    created by SHELXL-2018/3 at 16:57:07 on 28-Jan-2021
REM Old TITL tf-7-132-insol in P-1
REM SHELXT solution in P-1: R1 0.061, Rweak 0.012, Alpha 0.055
REM <I/s> 0.000 for 0 systematic absences, Orientation as input
REM Formula found by SHELXT: C17 N2 O4 Se
CELL 1.54184 7.2085 8.1572 13.6748 74.985 82.896 84.509
ZERR 2 0.0002 0.0002 0.0003 0.002 0.002 0.002
LATT 1
SFAC C H N O Se
UNIT 32 30 6 8 2

L.S. 4 0 0
PLAN  16
CONF
BOND
list 4
fmap 2 53
MORE -1
BOND $H
ACTA
REM <olex2.extras>
REM <HklSrc "%.\\tf-7-132-insol.hkl">
REM </olex2.extras>

WGHT    0.040500    0.565000
EXTI    0.009497
FVAR       0.66082
SE01  5    0.720134    0.530754    0.290377    11.00000    0.01745    0.01095 =
         0.01214   -0.00378   -0.00306    0.00157
O1    4    0.668043    0.761497    0.517071    11.00000    0.02614    0.01547 =
         0.01682   -0.00702   -0.00619    0.00243
O2    4    0.950224   -0.010965    0.811068    11.00000    0.04192    0.02325 =
         0.01710   -0.00369   -0.01266    0.00608
O3    4    0.948485   -0.164511    0.704147    11.00000    0.03394    0.01518 =
         0.02189   -0.00271   -0.00422    0.00514
O4    4    0.726514    0.542668    0.100253    11.00000    0.02525    0.01699 =
         0.01824   -0.00665   -0.00259    0.00196
N1    3    0.717353    0.554978    0.426257    11.00000    0.01893    0.01251 =
         0.01159   -0.00470   -0.00269    0.00015
N2    3    0.926692   -0.027139    0.726624    11.00000    0.01708    0.01654 =
         0.01697   -0.00177   -0.00255    0.00208
N3    3    0.809746    0.385058   -0.015275    11.00000    0.01932    0.01379 =
         0.01474   -0.00353   -0.00302    0.00318
C1    1    0.642135    0.764613    0.256138    11.00000    0.01241    0.01101 =
         0.01780   -0.00303   -0.00156    0.00055
C2    1    0.628697    0.834699    0.339727    11.00000    0.01350    0.01354 =
         0.01652   -0.00234   -0.00179   -0.00101
C3    1    0.568848    1.004804    0.330855    11.00000    0.01538    0.01297 =
         0.02055   -0.00605   -0.00192    0.00013
AFIX  43
H3    2    0.558741    1.050814    0.386958    11.00000   -1.20000
AFIX   0
C4    1    0.524455    1.104721    0.236758    11.00000    0.01955    0.01169 =
         0.02373   -0.00250   -0.00271    0.00254
AFIX  43
H4    2    0.485289    1.218874    0.229340    11.00000   -1.20000
AFIX   0
C5    1    0.538682    1.033622    0.153298    11.00000    0.02027    0.01749 =
         0.01868    0.00002   -0.00374    0.00152
AFIX  43
H5    2    0.507998    1.101721    0.090814    11.00000   -1.20000
AFIX   0
C6    1    0.597494    0.863777    0.161200    11.00000    0.01973    0.01562 =
         0.01574   -0.00401   -0.00318    0.00154
AFIX  43
H6    2    0.606821    0.817671    0.105163    11.00000   -1.20000
AFIX   0
C7    1    0.673079    0.718258    0.437543    11.00000    0.01338    0.01268 =
         0.01765   -0.00508   -0.00233   -0.00055
C8    1    0.768318    0.412549    0.503590    11.00000    0.01286    0.01326 =
         0.01347   -0.00235   -0.00119   -0.00028
C9    1    0.780803    0.251511    0.484001    11.00000    0.01684    0.01580 =
         0.01389   -0.00437   -0.00299   -0.00033
AFIX  43
H9    2    0.754690    0.241685    0.420918    11.00000   -1.20000
AFIX   0
C10   1    0.831255    0.106603    0.556687    11.00000    0.01695    0.01291 =
         0.01799   -0.00456   -0.00177    0.00014
AFIX  43
H10   2    0.837905   -0.000095    0.543376    11.00000   -1.20000
AFIX   0
C11   1    0.871553    0.124259    0.649605    11.00000    0.01309    0.01455 =
         0.01496   -0.00051   -0.00158    0.00117
C12   1    0.859635    0.281849    0.671870    11.00000    0.01782    0.01857 =
         0.01408   -0.00466   -0.00468    0.00010
AFIX  43
H12   2    0.886420    0.290296    0.735121    11.00000   -1.20000
AFIX   0
C13   1    0.807532    0.426519    0.599163    11.00000    0.01806    0.01428 =
         0.01771   -0.00555   -0.00349   -0.00017
AFIX  43
H13   2    0.798550    0.532502    0.613580    11.00000   -1.20000
AFIX   0
C14   1    0.796677    0.411045    0.077611    11.00000    0.01775    0.01609 =
         0.01587   -0.00303   -0.00293   -0.00165
AFIX  43
H14   2    0.843504    0.324303    0.129074    11.00000   -1.20000
AFIX   0
C15   1    0.891019    0.225892   -0.036182    11.00000    0.02645    0.01561 =
         0.01889   -0.00573   -0.00299    0.00366
AFIX 137
H15A  2    0.996315    0.248209   -0.086933    11.00000   -1.50000
H15B  2    0.798770    0.173203   -0.060545    11.00000   -1.50000
H15C  2    0.931607    0.151223    0.025134    11.00000   -1.50000
AFIX   0
C16   1    0.743682    0.515468   -0.100937    11.00000    0.03009    0.02080 =
         0.01613   -0.00260   -0.00786    0.00496
AFIX 137
H16A  2    0.637459    0.477865   -0.123011    11.00000   -1.50000
H16B  2    0.842048    0.535515   -0.155928    11.00000   -1.50000
H16C  2    0.708041    0.618886   -0.080273    11.00000   -1.50000
AFIX   0
HKLF 4




REM  tf-7-132-insol_a.res in P-1
REM wR2 = 0.0721, GooF = S = 1.088, Restrained GooF = 1.088 for all data
REM R1 = 0.0269 for 3127 Fo > 4sig(Fo) and 0.0272 for all 3155 data
REM 220 parameters refined using 0 restraints

END

WGHT      0.0405      0.5650

REM Highest difference peak  0.585,  deepest hole -0.509,  1-sigma level  0.077
Q1    1   0.6891  0.6564  0.2675  11.00000  0.05    0.58
Q2    1   0.7704  0.5182  0.3571  11.00000  0.05    0.50
Q3    1   0.6507  0.5353  0.2345  11.00000  0.05    0.43
Q4    1   0.8429  0.5071  0.3163  11.00000  0.05    0.43
Q5    1   0.6001  0.5523  0.2605  11.00000  0.05    0.42
Q6    1   0.8587  0.1216  0.6050  11.00000  0.05    0.38
Q7    1   0.6477  0.7802  0.3912  11.00000  0.05    0.38
Q8    1   0.9044  0.0599  0.6811  11.00000  0.05    0.37
Q9    1   0.5873  0.9163  0.3352  11.00000  0.05    0.37
Q10   1   0.7544  0.4869  0.4650  11.00000  0.05    0.36
Q11   1   0.5894  0.9540  0.1589  11.00000  0.05    0.36
Q12   1   0.8687  0.2038  0.6618  11.00000  0.05    0.35
Q13   1   0.6227  0.5590  0.3792  11.00000  0.05    0.35
Q14   1   0.7521  0.4215  0.3014  11.00000  0.05    0.34
Q15   1   0.8097  0.3367  0.6380  11.00000  0.05    0.33
Q16   1   0.6185  0.8211  0.2044  11.00000  0.05    0.33
;
_shelx_res_checksum                67505
_shelx_hkl_file
;
   0   0   1  696.47   11.15
   0   0   2  536.25    9.48
   0   0   2  530.56    9.19
   0   0   3  419.50    7.61
   0   0   3  431.72    7.83
   0   0   4  570.03   11.09
   0   0   4  586.88   10.70
   0   0   5 2434.66   39.34
   0   0   6   21.55    1.48
   0   0   6   28.39    1.88
   0   0   7  821.18   16.06
   0   0   7  889.37   17.23
   0   0   8  203.11    6.87
   0   0   9  263.76    7.63
   0   0   9  270.93    8.31
   0   0   9  285.36    9.00
   0   0   9  261.89    7.99
   0   0  10  461.67   12.69
   0   0  10  485.75   12.43
   0   0  10  471.15   11.58
   0   0  11  105.85    5.28
   0   0  11  100.91    4.85
   0   0  11  102.33    5.87
   0   0  11  100.90    5.46
   0   0  11   97.48    4.70
   0   0  11  113.05    5.35
   0   0  12   25.78    2.38
   0   0  12   29.76    3.21
   0   0  12   22.38    2.21
   0   0  12   23.45    2.46
   0   0  12   27.21    2.82
   0   0  13   27.44    2.40
   0   0  13   26.81    2.57
   0   0  13   29.22    3.13
   0   0  13   29.39    2.87
   0   0  13   31.10    2.69
   0   0  13   24.90    2.19
   0   0  14  211.31    6.95
   0   0  14  211.39    8.33
   0   0  14  222.86    7.96
   0   0  14  231.34    7.51
   0   0  15  187.14    5.85
   0   0  15  196.63    6.62
   0   0  16  132.00    4.33
   0  -1  16    8.42    0.86
   0  -1  15  198.29    6.25
   0  -1  14  273.19    8.54
   0  -1  14  269.54    7.98
   0  -1  13    2.08    0.70
   0  -1  13    2.05    0.86
   0  -1  13    0.87    0.63
   0  -1  13    0.51    0.42
   0  -1  13    1.30    0.67
   0  -1  12    6.65    1.14
   0  -1  12    6.18    1.32
   0  -1  12    6.89    1.37
   0  -1  12    6.35    1.59
   0  -1  12    7.80    1.51
   0  -1  11   12.91    1.95
   0  -1  11   13.61    2.22
   0  -1  11   12.76    1.87
   0  -1  10 1644.78   30.17
   0  -1  10 1601.28   31.41
   0  -1  10 1631.56   29.68
   0  -1  10 1635.11   31.72
   0  -1  10 1607.78   31.81
   0  -1   9  161.01    6.53
   0  -1   9  160.02    5.47
   0  -1   9  166.19    5.91
   0  -1   9  161.13    6.29
   0  -1   9  161.87    6.74
   0  -1   8   35.26    2.58
   0  -1   8   36.59    2.82
   0  -1   8   34.97    2.11
   0  -1   7  751.88   14.45
   0  -1   6  355.87    8.96
   0  -1   6  354.73    7.88
   0  -1   6  362.59    8.97
   0  -1   5 1349.56   23.61
   0  -1   5 1405.83   24.87
   0  -1   4  253.22    6.14
   0  -1   4  253.43    4.44
   0  -1   3 1026.80   16.46
   0   1  -3  898.83   15.30
   0   1  -2    6.34    0.51
   0  -1   2    8.20    0.51
   0  -1   1  779.99   11.19
   0   1  -1  543.30   10.93
   0   1   0  682.79   11.72
   0  -1  -1  641.55   11.34
   0  -1  -2 1116.94   20.91
   0   1   2 1477.81   20.95
   0   1   3  131.84    2.82
   0   1   4    6.92    0.73
   0   1   4    5.41    0.39
   0  -1  -5 1073.28   17.17
   0   1   5 1104.06   19.28
   0   1   6  897.33   16.99
   0   1   7  459.33   10.29
   0   1   7  428.10   10.20
   0   1   8  141.53    5.32
   0   1   9  159.73    5.74
   0   1   9  155.89    5.87
   0   1   9  159.43    6.23
   0   1  10  541.18   12.18
   0   1  10  548.08   13.38
   0   1  10  585.93   13.85
   0   1  10  548.29   14.22
   0   1  11  190.81    7.13
   0   1  11  200.37    6.32
   0   1  11  202.97    7.94
   0   1  11  182.49    7.13
   0   1  11  208.96    8.32
   0   1  12  770.57   17.76
   0   1  12  778.26   18.76
   0   1  12  728.52   17.42
   0   1  12  804.83   19.68
   0   1  13   24.03    2.56
   0   1  13   23.18    2.55
   0   1  13   17.99    2.04
   0   1  13   20.39    2.23
   0   1  13   18.23    2.44
   0   1  14  162.86    6.60
   0   1  14  151.43    6.49
   0   1  14  155.32    6.83
   0   1  14  153.71    5.74
   0   1  15  133.97    5.43
   0   1  15  122.05    4.48
   0   1  15  133.25    5.29
   0   1  16  113.50    4.10
   0   1  16  114.64    4.02
   0  -2  14  253.96    6.69
   0  -2  14  275.50    7.64
   0  -2  13    2.56    0.82
   0  -2  12  210.74    7.88
   0  -2  12  194.51    6.43
   0  -2  12  208.38    7.69
   0  -2  12  204.04    8.87
   0  -2  11  807.92   19.06
   0  -2  11  805.73   20.90
   0  -2  10  520.47   14.12
   0  -2  10  505.87   13.70
   0  -2  10  509.70   15.19
   0  -2   9  502.69   13.50
   0  -2   9  498.36   13.69
   0  -2   9  481.52   12.91
   0  -2   8   15.00    1.91
   0  -2   8   13.96    1.83
   0  -2   8   11.51    1.60
   0  -2   7  574.95   13.83
   0  -2   7  578.68   13.23
   0  -2   7  523.06   11.14
   0  -2   7  519.16   12.53
   0  -2   7  551.14   13.09
   0  -2   6  637.06   14.23
   0  -2   6  650.03   12.72
   0  -2   5    7.87    0.65
   0  -2   5    8.02    1.11
   0  -2   4    8.16    0.98
   0   2  -4    7.26    0.75
   0   2  -3   30.09    1.56
   0  -2   3   33.66    1.84
   0  -2   2 2481.01   38.04
   0   2  -2 2223.98   37.72
   0   2  -1 1080.38   20.37
   0  -2   1 1374.75   20.68
   0   2   0 1861.90   30.38
   0  -2  -1  141.43    4.12
   0  -2  -2  978.98   17.53
   0  -2  -3  912.10   17.44
   0   2   3 1084.09   17.26
   0   2   4  488.76    9.20
   0   2   5 1452.39   23.75
   0   2   6    9.22    0.71
   0  -2  -6   10.87    0.93
   0   2   7 1178.39   22.24
   0   2   8 1276.54   24.38
   0   2   9   25.21    2.01
   0   2   9   23.72    2.20
   0   2  10  668.04   16.18
   0   2  10  618.67   15.52
   0   2  10  732.92   16.47
   0   2  10  682.14   14.85
   0   2  11    9.98    1.67
   0   2  11    9.76    1.61
   0   2  11    8.60    1.49
   0   2  11    8.70    1.33
   0   2  12  219.20    7.23
   0   2  12  213.99    8.22
   0   2  12  208.59    7.91
   0   2  12  224.01    8.44
   0   2  12  206.03    7.96
   0   2  13   27.86    2.30
   0   2  13   29.33    2.81
   0   2  13   24.47    2.52
   0   2  13   28.53    2.80
   0   2  13   30.17    2.87
   0   2  14  117.32    5.25
   0   2  14  117.62    5.77
   0   2  14  119.84    5.57
   0   2  15  200.65    6.39
   0   2  15  209.64    7.26
   0   2  15  194.75    6.63
   0   2  16   13.31    1.26
   0   2  16   13.33    1.26
   0   2  16   16.70    1.58
   0  -3  14  107.09    3.79
   0  -3  14  110.65    3.83
   0  -3  13    7.28    1.18
   0  -3  13    6.90    1.12
   0  -3  13    7.42    1.39
   0  -3  12  178.58    6.73
   0  -3  12  170.58    6.73
   0  -3  12  161.27    7.43
   0  -3  12  178.06    6.72
   0  -3  11  434.83   12.25
   0  -3  11  423.26   13.78
   0  -3  11  452.89   12.68
   0  -3  10   55.16    3.91
   0  -3  10   54.41    4.00
   0  -3  10   56.93    3.88
   0  -3  10   50.00    4.33
   0  -3   9  234.80    8.83
   0  -3   9  226.75    8.30
   0  -3   9  249.73    9.08
   0  -3   9  235.79    9.69
   0  -3   8    5.55    1.41
   0  -3   8    6.06    1.25
   0  -3   8    9.01    1.59
   0  -3   8    6.08    1.30
   0  -3   7  531.16   13.77
   0  -3   7  546.08   13.53
   0  -3   7  528.86   13.34
   0  -3   6  745.30   16.01
   0  -3   6  692.23   16.25
   0  -3   6  723.73   16.19
   0  -3   5  825.83   16.93
   0  -3   5  805.42   17.72
   0  -3   5  801.60   14.80
   0  -3   4    7.55    1.21
   0  -3   4    5.36    0.91
   0   3  -4    8.53    1.03
   0  -3   4    4.51    0.67
   0   3  -3  755.38   14.83
   0  -3   3  770.39   15.22
   0  -3   2 1481.12   25.59
   0   3  -2 1424.10   25.27
   0   3  -1    0.89    0.34
   0   3   0 1664.93   28.27
   0   3   1  248.60    6.32
   0  -3  -1  281.88    6.72
   0  -3  -2   23.93    1.69
   0   3   3  199.50    5.26
   0   3   4   77.33    2.93
   0   3   5 1629.66   27.52
   0   3   6  123.60    3.82
   0   3   7  127.47    3.87
   0   3   7  132.48    5.15
   0  -3  -7  139.18    4.63
   0   3   8  234.92    7.60
   0   3   9   25.48    2.56
   0   3   9   30.50    2.25
   0   3   9   30.69    2.62
   0   3   9   30.54    2.65
   0   3   9   31.17    2.47
   0   3  10  612.15   15.31
   0   3  10  595.46   14.89
   0   3  10  652.81   14.18
   0   3  10  606.99   15.27
   0   3  10  643.62   15.59
   0   3  10  650.96   14.88
   0   3  10  599.39   15.77
   0   3  11  229.34    8.42
   0   3  11  230.66    8.52
   0   3  11  235.22    8.99
   0   3  11  230.89    8.21
   0   3  11  231.37    7.35
   0   3  11  233.50    7.98
   0   3  12  324.17    9.62
   0   3  12  310.65   10.29
   0   3  12  308.96   10.63
   0   3  12  294.78    9.96
   0   3  12  290.07    9.58
   0   3  12  288.56    8.40
   0   3  13   76.52    4.87
   0   3  13   83.30    4.35
   0   3  13   71.15    4.23
   0   3  13   71.75    4.45
   0   3  14  151.66    6.70
   0   3  14  138.71    5.64
   0   3  14  138.39    6.00
   0   3  15  957.89   19.47
   0   3  15  904.24   18.30
   0   3  16    0.39    0.32
   0   3  16    1.94    0.54
   0  -4  13   84.27    3.12
   0  -4  13   79.12    2.97
   0  -4  13   87.28    3.45
   0  -4  12   56.06    3.01
   0  -4  12   53.74    3.18
   0  -4  12   56.69    3.21
   0  -4  11  173.65    6.72
   0  -4  11  174.21    6.69
   0  -4  11  169.03    6.26
   0  -4  11  160.93    7.23
   0  -4  10   62.94    4.17
   0  -4  10   63.42    3.87
   0  -4  10   58.90    4.50
   0  -4  10   68.05    4.20
   0  -4   9  268.49   10.55
   0  -4   9  287.84    9.94
   0  -4   9  283.51    9.12
   0  -4   8   95.32    5.39
   0  -4   8  101.69    5.37
   0  -4   8   91.26    5.87
   0  -4   7  116.96    5.48
   0  -4   7  139.71    6.08
   0  -4   7  129.80    5.87
   0  -4   7  125.92    6.51
   0  -4   7  121.20    6.02
   0  -4   7  117.57    6.51
   0  -4   6  184.56    6.73
   0  -4   6  183.67    7.04
   0  -4   6  171.24    6.87
   0  -4   6  162.90    6.30
   0  -4   6  161.00    7.37
   0  -4   5  399.55   12.26
   0  -4   5  433.31   11.40
   0  -4   5  417.31   10.70
   0  -4   4  469.10   10.69
   0  -4   4  478.61   10.67
   0  -4   4  473.16   12.11
   0   4  -3   53.79    3.11
   0  -4   3   52.96    3.13
   0  -4   3   55.02    2.74
   0  -4   2  591.69   13.07
   0   4  -2  593.48   13.11
   0  -4   2  578.59   12.34
   0  -4   1  407.16    9.32
   0   4  -1  398.30    9.87
   0   4   0 1324.51   24.73
   0  -4   0 1375.25   24.31
   0   4   1 1690.53   29.90
   0  -4  -2  243.68    6.92
   0   4   2  251.08    6.94
   0  -4  -3   61.07    3.14
   0  -4  -4   21.68    1.87
   0   4   4   14.96    1.44
   0   4   5 1279.86   22.76
   0  -4  -5 1177.20   23.28
   0  -4  -6  134.10    5.23
   0   4   6  138.58    4.75
   0  -4  -7  370.98   10.01
   0   4   7  370.50    8.91
   0   4   8  835.35   17.13
   0   4   8  819.16   18.15
   0   4   8  792.03   17.98
   0   4   8  825.31   18.44
   0   4   8  757.51   15.62
   0   4   8  823.45   17.82
   0   4   9   72.47    4.30
   0   4   9   76.87    4.00
   0   4   9   72.34    4.35
   0   4   9   77.44    4.68
   0   4   9   66.62    4.22
   0   4  10  534.30   13.97
   0   4  10  554.84   14.93
   0   4  10  536.24   14.32
   0   4  10  539.33   14.46
   0   4  10  525.23   14.30
   0   4  10  539.65   13.29
   0   4  11   58.79    4.13
   0   4  11   61.72    4.41
   0   4  11   59.48    3.99
   0   4  11   61.63    3.74
   0   4  12  325.29    9.59
   0   4  12  326.12   11.12
   0   4  12  335.74   10.42
   0   4  13    1.45    0.76
   0   4  13    2.81    0.79
   0   4  13    1.50    0.71
   0   4  14    3.02    0.92
   0   4  14    5.17    1.25
   0   4  14    4.73    0.95
   0   4  15  216.15    7.30
   0   4  15  198.98    6.79
   0   4  16   10.96    1.18
   0   4  16   10.67    1.29
   0  -5  12   43.01    2.14
   0  -5  11  267.37    7.67
   0  -5  10    3.08    0.75
   0  -5  10    2.63    0.82
   0  -5   9  183.91    7.95
   0  -5   9  207.86    7.84
   0  -5   9  211.83    7.62
   0  -5   9  200.75    6.81
   0  -5   8  146.11    6.66
   0  -5   8  139.92    5.73
   0  -5   8  145.70    6.28
   0  -5   8  142.71    6.98
   0  -5   8  131.41    6.84
   0  -5   7   49.19    4.11
   0  -5   7   53.03    4.21
   0  -5   7   53.55    3.69
   0  -5   7   55.59    3.73
   0  -5   7   54.10    3.71
   0  -5   6  611.49   14.90
   0  -5   6  655.00   15.89
   0  -5   6  620.98   15.08
   0  -5   5    3.38    0.97
   0  -5   5    3.47    1.04
   0  -5   5    5.17    1.09
   0  -5   5    2.37    0.95
   0  -5   4  338.98    9.46
   0  -5   4  338.16   10.32
   0  -5   4  332.53    9.11
   0  -5   3   38.61    2.63
   0   5  -3   46.39    3.32
   0  -5   3   40.45    3.34
   0  -5   3   37.36    2.97
   0  -5   3   39.80    2.71
   0  -5   3   40.58    2.68
   0  -5   2  769.00   16.41
   0   5  -2  819.27   17.86
   0  -5   2  776.44   18.30
   0  -5   2  754.99   17.26
   0  -5   1  161.09    6.22
   0  -5   1  165.66    6.83
   0   5  -1  178.50    6.73
   0  -5   1  172.04    5.95
   0  -5   0    6.51    1.10
   0   5   0    8.79    1.39
   0   5   1  789.76   17.30
   0  -5  -2    1.08    0.55
   0   5   2    0.86    0.48
   0  -5  -3  370.04   10.18
   0  -5  -4  740.34   16.70
   0   5   4  736.46   16.30
   0   5   5  854.11   18.48
   0  -5  -5  908.49   19.75
   0   5   6  151.64    5.88
   0  -5  -6  153.93    6.42
   0   5   6  165.36    6.01
   0   5   6  160.79    6.25
   0   5   7  494.71   13.04
   0   5   7  489.10   12.52
   0  -5  -7  509.67   13.33
   0   5   7  498.68   12.22
   0   5   7  516.03   13.01
   0   5   7  508.30   12.21
   0  -5  -7  485.74   13.31
   0   5   8  792.56   18.77
   0   5   8  820.17   18.85
   0   5   8  869.14   19.56
   0  -5  -8  815.63   18.88
   0   5   8  824.99   17.38
   0   5   9  671.36   16.87
   0   5   9  703.01   17.18
   0   5   9  694.61   17.33
   0   5   9  712.55   16.52
   0   5   9  671.20   16.93
   0   5  10    3.65    1.11
   0   5  10    3.80    1.09
   0   5  10    1.93    0.87
   0   5  10    3.42    0.97
   0   5  10    2.37    0.91
   0   5  11  101.69    5.56
   0   5  11   93.49    5.48
   0   5  11  110.86    5.39
   0   5  11  105.37    5.76
   0   5  12  328.52   10.91
   0   5  12  346.44   11.03
   0   5  12  342.29   10.22
   0   5  13  449.55   12.78
   0   5  13  466.06   12.99
   0   5  13  460.78   11.77
   0   5  13  459.47   12.68
   0   5  14    5.06    1.13
   0   5  15  150.93    4.81
   0   5  16   33.91    1.97
   0   5  16   34.17    1.96
   0  -6  10   17.89    1.51
   0  -6  10   18.68    1.63
   0  -6   9  207.07    6.64
   0  -6   9  201.60    6.98
   0  -6   8   10.35    1.66
   0  -6   7  267.58    9.62
   0  -6   7  270.47    9.16
   0  -6   7  267.95    8.65
   0  -6   6  323.46    9.84
   0  -6   6  345.86   10.27
   0  -6   6  316.76   11.10
   0  -6   6  322.29   10.50
   0  -6   5   67.00    4.38
   0  -6   5   66.06    3.95
   0  -6   4   14.94    2.04
   0  -6   4   18.67    2.41
   0  -6   4   15.83    2.10
   0  -6   4   17.81    1.99
   0  -6   3   41.40    3.38
   0   6  -3   48.11    3.81
   0  -6   3   48.47    3.18
   0  -6   3   47.34    3.83
   0  -6   3   44.61    3.19
   0   6  -3   46.25    3.76
   0   6  -2 1524.01   30.73
   0  -6   2 1514.20   27.70
   0   6  -2 1448.91   30.53
   0  -6   2 1454.20   28.53
   0  -6   2 1439.27   28.63
   0  -6   2 1484.09   29.68
   0  -6   2 1475.02   30.67
   0   6  -1 1448.32   29.03
   0   6  -1 1409.52   28.97
   0  -6   1 1386.09   27.20
   0  -6   1 1397.34   28.01
   0  -6   1 1378.41   29.01
   0  -6   0    7.99    1.47
   0  -6   0    7.12    1.55
   0  -6   0    7.10    1.34
   0   6   0    8.40    1.62
   0  -6   0   10.15    1.65
   0  -6  -1  714.54   16.88
   0  -6  -1  686.43   15.63
   0   6   2  163.93    7.01
   0  -6  -2  147.74    6.45
   0   6   3  425.49   11.25
   0  -6  -3  455.95   12.66
   0  -6  -4  311.53   10.22
   0   6   4  310.56   10.06
   0   6   4  299.14    9.13
   0   6   5  135.46    5.90
   0   6   5  148.46    6.49
   0  -6  -5  150.07    6.83
   0  -6  -5  135.67    6.65
   0   6   6 1377.88   27.68
   0   6   6 1419.37   27.73
   0   6   6 1407.12   27.61
   0   6   6 1305.32   26.98
   0  -6  -6 1362.70   28.47
   0   6   7   46.81    3.45
   0  -6  -7   48.59    3.88
   0   6   7   47.62    3.51
   0   6   7   45.31    3.43
   0  -6  -7   45.84    3.84
   0   6   7   48.56    3.68
   0   6   8  693.50   16.61
   0   6   8  740.31   17.56
   0  -6  -8  707.85   18.15
   0   6   8  745.97   17.96
   0   6   8  704.07   16.62
   0   6   8  700.44   17.93
   0   6   9  258.91    9.55
   0   6   9  256.45    9.65
   0   6   9  281.36    9.50
   0   6   9  263.14    9.45
   0   6  10  360.25   11.73
   0   6  10  357.41   11.42
   0   6  10  351.86   11.46
   0   6  11    5.05    1.24
   0   6  11    7.54    1.54
   0   6  11    6.91    1.41
   0   6  12  315.76    9.80
   0   6  12  315.72   10.20
   0   6  13  290.24    8.70
   0   6  13  294.62    9.25
   0   6  14    0.19    0.36
   0   6  14    0.05    0.35
   0   6  15  192.37    5.72
   0   6  15  183.93    5.29
   0  -7   9  144.34    4.16
   0  -7   8   76.19    3.53
   0  -7   8   78.18    3.45
   0  -7   8   66.99    2.86
   0  -7   7    6.16    0.99
   0  -7   7    6.31    1.18
   0  -7   7    7.86    1.24
   0  -7   6  330.14    9.66
   0  -7   6  330.28   10.26
   0  -7   5   11.83    1.87
   0  -7   5   10.76    1.49
   0  -7   5   12.51    1.78
   0  -7   5   11.97    1.62
   0  -7   4  461.78   12.82
   0  -7   4  494.20   12.12
   0  -7   3   53.12    3.28
   0  -7   3   51.70    3.67
   0  -7   3   52.79    4.00
   0   7  -3   54.59    4.06
   0  -7   2   59.73    4.20
   0   7  -2   68.12    4.74
   0  -7   2   54.10    3.80
   0  -7   2   71.01    4.76
   0  -7   2   64.62    4.09
   0   7  -1  422.16   13.28
   0  -7   1  379.36   12.00
   0  -7   1  394.06   11.30
   0  -7   1  416.95   13.02
   0   7  -1  427.70   13.39
   0  -7   1  362.93   11.57
   0  -7   0  109.40    5.82
   0  -7   0  123.35    6.64
   0   7   0  129.90    6.90
   0  -7   0  117.79    6.12
   0   7   0  130.07    6.90
   0  -7  -1   37.08    3.40
   0  -7  -1   45.63    3.66
   0   7   1   38.97    3.72
   0   7   1   37.22    3.65
   0  -7  -1   41.14    3.50
   0  -7  -1   36.05    3.60
   0   7   2   73.76    5.18
   0   7   2   77.08    5.23
   0  -7  -2   77.40    4.95
   0   7   3  130.77    6.92
   0   7   3  133.69    6.94
   0  -7  -3  124.51    6.63
   0  -7  -3  128.21    6.58
   0  -7  -4   35.92    3.48
   0  -7  -4   35.01    3.50
   0   7   5  149.50    7.22
   0   7   5  154.13    7.29
   0  -7  -5  136.54    7.19
   0   7   5  139.56    6.33
   0  -7  -5  144.44    7.24
   0   7   6  229.39    8.56
   0   7   6  234.76    9.09
   0  -7  -6  203.29    9.09
   0   7   6  230.66    9.05
   0   7   7   10.52    1.83
   0   7   7   10.21    1.79
   0   7   7   12.31    1.95
   0  -7  -7   16.03    2.43
   0   7   8   15.78    2.28
   0   7   8   16.22    2.13
   0   7   8   15.43    2.05
   0   7   8   16.21    2.14
   0   7   8   16.75    2.23
   0   7   9   98.45    5.40
   0   7   9   90.59    4.68
   0   7   9   93.85    5.17
   0   7  10  181.03    7.43
   0   7  10  173.42    7.14
   0   7  11  221.37    7.98
   0   7  12   31.48    2.63
   0   7  12   31.92    2.64
   0   7  13  160.73    5.71
   0   7  13  164.57    5.67
   0   7  14    5.25    0.85
   0   7  14    6.23    0.94
   0   7  14    6.68    0.94
   0   7  15  238.59    5.53
   0  -8   6   90.10    3.29
   0  -8   6   91.65    3.73
   0  -8   5   46.41    2.59
   0  -8   5   45.03    2.89
   0  -8   4  492.40   11.32
   0  -8   4  474.27   12.31
   0  -8   3  203.47    6.73
   0   8  -2   19.20    2.26
   0  -8   2   18.74    1.92
   0   8  -1  444.70   13.27
   0  -8   1  449.92   12.96
   0   8   0   99.58    5.84
   0  -8   0   93.41    5.42
   0   8   1  442.88   13.85
   0  -8  -1  427.25   13.40
   0   8   2   14.22    2.28
   0  -8  -2   11.87    2.11
   0  -8  -3  147.13    7.44
   0   8   3  143.04    7.38
   0  -8  -4  160.88    7.92
   0   8   5  115.01    6.38
   0   8   5  118.48    5.46
   0   8   6  855.13   19.41
   0   8   6  869.76   20.89
   0   8   7   36.39    3.06
   0   8   7   32.02    2.64
   0   8   7   33.84    3.16
   0   8   8  330.58    9.71
   0   8   8  339.42   10.39
   0   8   8  352.55   10.66
   0   8   9  224.13    7.39
   0   8   9  225.67    7.97
   0   8  10  112.28    5.22
   0   8  10  111.19    4.83
   0   8  11  147.74    5.72
   0   8  11  143.86    5.27
   0   8  12   14.07    1.53
   0   8  12   14.04    1.40
   0   8  13  269.71    6.39
   0  -9   4  136.54    4.02
   0  -9   3   60.94    2.92
   0  -9   2    2.86    0.59
   0   9  -1  229.40    7.08
   0  -9   0   48.43    3.16
   0   9   0   55.79    3.56
   0  -9  -1  110.65    5.19
   0   9   1  112.28    5.52
   0  -9  -2   35.76    2.99
   0   9   2   40.18    3.34
   0   9   3  225.79    8.53
   0  -9  -3  219.29    8.17
   0  -9  -4  412.70   12.12
   0   9   4  403.01   12.17
   0  -9  -5   27.52    2.78
   0  -9  -6  302.26   10.00
   0   9   6  284.13    9.42
   0  -9  -7    0.78    0.60
   0   9   7    0.76    0.47
   0   9   7    0.07    0.44
   0   9   8  162.21    5.47
   0   9   8  153.60    5.70
   0   9   9  160.32    5.37
   0   9  10   41.29    2.39
   0  -9 -10   50.47    3.10
   0  -9 -11   50.85    2.70
   0  10   2   73.49    3.13
   0  10   3   85.99    3.70
   0 -10  -3   93.02    3.53
   0  10   4  158.19    5.39
   0 -10  -4  171.89    5.29
   0 -10  -5   22.28    1.76
   0 -10  -6  227.01    6.32
   0  10   6  212.57    6.07
   0 -10  -7  188.58    5.48
  -1  10   4    4.66    0.79
  -1  10   3  107.72    3.86
   1  -9 -10  195.61    6.25
   1  -9  -9   53.90    3.30
  -1   9   8  215.65    6.58
   1  -9  -8  243.80    7.94
  -1   9   7  282.80    8.71
   1  -9  -7  315.23    9.57
  -1   9   6   15.20    1.96
   1  -9  -6   15.81    1.98
  -1   9   5  266.65    9.34
   1  -9  -5  295.28    9.42
  -1   9   4   14.76    2.07
   1  -9  -4   12.78    1.81
  -1   9   3  208.34    8.17
   1  -9  -3  207.62    7.42
  -1   9   2   70.71    4.48
   1  -9  -2   73.84    3.99
  -1   9   1  147.36    6.43
   1  -9  -1  152.76    5.65
  -1   9   0  421.82   11.39
  -1   9  -1   45.49    2.78
   1  -9   2   48.83    2.65
   1  -9   3   23.49    1.58
  -1   8  13   39.98    1.89
  -1   8  12  100.85    3.86
  -1   8  11    2.25    0.52
  -1   8  11    2.87    0.79
  -1   8  10  292.47    8.96
  -1   8   9  157.66    6.48
  -1   8   8    2.80    0.90
  -1   8   8    2.28    0.88
  -1   8   7  147.89    6.49
  -1   8   7  156.21    7.00
  -1   8   6    1.00    0.63
  -1   8   6    1.62    0.81
  -1   8   5  525.37   15.63
  -1   8   5  519.30   13.44
   1  -8  -4   56.58    4.14
   1  -8  -3   21.67    2.57
  -1   8   3   24.27    3.10
   1  -8  -3   23.92    2.85
  -1   8   2  229.43    9.97
   1  -8  -2  239.01    9.29
  -1   8   1   11.48    2.14
   1  -8  -1   12.11    1.94
   1  -8   0  517.38   13.90
  -1   8   0  526.42   15.44
   1  -8   0  483.49   12.13
  -1   8  -1   15.32    2.27
   1  -8   1   17.47    2.12
   1  -8   1   14.52    1.71
   1  -8   2  151.43    5.78
  -1   8  -2  150.79    6.69
   1  -8   3  201.96    6.68
   1  -8   4  117.56    5.11
   1  -8   4  115.67    4.61
   1  -8   5  569.81   12.87
   1  -8   5  576.94   12.34
   1  -8   6   16.16    1.40
   1  -8   6   15.91    1.30
  -1   7  14  137.63    4.09
  -1   7  13    2.45    0.63
  -1   7  13    3.72    0.80
  -1   7  12  439.90   11.11
  -1   7  12  442.75   11.47
  -1   7  11  111.68    5.15
  -1   7  10  386.88   11.20
  -1   7  10  392.43   11.99
  -1   7   9  125.93    5.88
  -1   7   9  121.26    6.26
  -1   7   8   17.47    2.22
  -1   7   8   17.48    2.41
  -1   7   8   16.70    2.12
  -1   7   7  151.51    7.19
   1  -7  -7  144.79    7.04
   1  -7  -7  164.32    7.29
  -1   7   7  153.63    7.35
  -1   7   7  162.40    7.41
  -1   7   6    3.56    1.24
  -1   7   6    4.88    1.37
   1  -7  -6   11.07    1.89
  -1   7   6    4.11    1.20
  -1   7   6    5.45    1.32
   1  -7  -6    9.56    1.79
   1  -7  -5  996.64   22.58
  -1   7   5 1032.37   24.70
  -1   7   5 1004.38   24.21
  -1   7   5  935.75   22.24
  -1   7   4  101.39    6.48
  -1   7   4  102.44    5.48
   1  -7  -4  100.40    5.55
   1  -7  -3   99.79    5.43
  -1   7   3   94.40    6.32
  -1   7   3   98.60    6.51
  -1   7   2  315.21   12.25
  -1   7   2  317.44   12.28
   1  -7  -1  165.97    7.73
  -1   7   1  154.48    8.26
  -1   7   1  178.67    8.90
   1  -7  -1  151.20    6.64
   1  -7  -1  154.59    7.09
  -1   7   0 1351.28   30.79
   1  -7   0 1280.56   28.38
   1  -7   0 1325.43   27.39
   1  -7   0 1334.93   27.06
  -1   7   0 1356.56   30.56
  -1   7  -1    0.26    0.65
   1  -7   1    0.56    0.50
   1  -7   1    0.50    0.45
  -1   7  -1    0.93    0.81
   1  -7   1    0.79    0.51
   1  -7   2  206.65    7.70
   1  -7   2  259.39    9.09
   1  -7   2  217.30    7.71
   1  -7   2  225.50    6.98
  -1   7  -2  247.33    9.94
  -1   7  -3  399.35   12.69
   1  -7   3  397.94   11.60
   1  -7   3  405.93   10.34
   1  -7   4  152.14    5.66
   1  -7   4  150.98    6.40
   1  -7   5  177.25    6.90
   1  -7   5  179.22    7.44
   1  -7   5  182.53    6.22
   1  -7   6   24.18    2.43
   1  -7   6   22.49    1.94
   1  -7   6   22.96    2.20
   1  -7   7  223.81    7.31
   1  -7   7  225.01    6.51
   1  -7   7  228.46    7.10
   1  -7   8   83.61    3.20
  -1   6  15  143.49    4.08
  -1   6  15  151.92    4.48
  -1   6  14   72.79    3.29
  -1   6  14   76.00    3.54
  -1   6  14   77.88    3.68
  -1   6  13    1.25    0.60
  -1   6  13    0.47    0.41
  -1   6  13    1.64    0.75
  -1   6  12  129.51    5.94
  -1   6  12  138.68    6.00
  -1   6  11   75.40    4.67
  -1   6  11   69.82    4.51
  -1   6  10  248.96    9.19
  -1   6   9   42.96    3.59
  -1   6   9   31.06    3.17
  -1   6   9   40.98    3.65
  -1   6   8  140.25    7.03
   1  -6  -8  140.49    6.35
  -1   6   8  137.70    6.24
  -1   6   8  136.60    6.78
  -1   6   8  155.50    6.94
  -1   6   7  640.01   16.88
  -1   6   7  670.75   16.90
  -1   6   7  654.23   16.67
  -1   6   7  664.52   16.64
   1  -6  -7  663.42   16.37
  -1   6   7  615.74   17.14
  -1   6   6    2.58    1.00
  -1   6   6    1.51    0.78
  -1   6   6    1.48    0.82
  -1   6   6    2.05    0.78
   1  -6  -6    2.05    0.80
   1  -6  -5  392.19   11.44
  -1   6   5  382.90   12.18
  -1   6   5  426.53   13.19
  -1   6   5  416.09   13.01
   1  -6  -4   33.63    2.83
  -1   6   4   30.88    2.95
  -1   6   4   35.06    3.49
  -1   6   4   32.53    3.36
  -1   6   3   77.99    4.55
   1  -6  -3   81.98    4.43
  -1   6   2  308.21   11.58
  -1   6   2  313.03   11.54
   1  -6  -2  318.09    9.48
  -1   6   1  106.65    6.37
  -1   6   1  100.34    6.21
   1  -6   0  584.41   14.07
  -1   6   0  604.60   17.28
  -1   6   0  599.72   17.18
   1  -6   1    5.10    0.97
   1  -6   1    5.10    1.16
   1  -6   1    8.33    1.36
  -1   6  -1    5.78    1.56
   1  -6   1    5.44    1.33
  -1   6  -1    4.79    1.39
  -1   6  -2   81.11    5.50
  -1   6  -2   87.06    5.75
   1  -6   2  101.09    5.48
   1  -6   2   79.75    3.83
   1  -6   2   84.38    4.28
   1  -6   2   92.00    4.85
   1  -6   3  554.03   13.28
   1  -6   3  529.37   13.24
   1  -6   3  542.65   12.87
  -1   6  -3  579.42   16.16
   1  -6   3  588.09   15.05
   1  -6   4   29.37    2.42
   1  -6   5  208.80    8.04
   1  -6   5  206.38    7.14
   1  -6   6    1.76    0.91
   1  -6   6    1.67    0.69
   1  -6   7  273.78    8.49
   1  -6   7  280.51    9.81
   1  -6   8   70.39    4.06
   1  -6   8   71.63    3.81
   1  -6   8   73.26    4.35
   1  -6   9   37.79    2.53
   1  -6   9   35.03    2.56
   1  -6  10  100.72    3.76
   1  -6  10   96.73    3.82
  -1   5  16  114.97    3.45
  -1   5  15   46.98    2.62
  -1   5  15   42.84    2.58
  -1   5  15   38.67    2.15
  -1   5  14  320.78    9.26
  -1   5  14  313.95    9.00
  -1   5  14  310.72    8.71
  -1   5  13   32.55    2.57
  -1   5  13   32.27    2.88
  -1   5  12  667.82   16.02
  -1   5  12  663.96   16.80
  -1   5  12  640.03   17.01
  -1   5  11 1105.76   23.58
  -1   5  11 1023.48   24.13
  -1   5  11 1063.88   23.79
  -1   5  10  267.54    9.76
  -1   5  10  265.17    9.85
  -1   5  10  295.73   10.06
  -1   5  10  279.15   10.28
  -1   5   9  267.29    9.94
  -1   5   9  265.99    9.54
  -1   5   9  250.71    9.78
  -1   5   9  273.79    9.78
  -1   5   8  151.75    6.80
  -1   5   8  145.67    7.08
  -1   5   7 1521.76   28.83
  -1   5   7 1352.97   29.56
  -1   5   7 1503.39   30.11
   1  -5  -7 1473.62   28.09
  -1   5   7 1520.11   29.50
  -1   5   7 1438.63   28.40
  -1   5   7 1389.01   29.28
   1  -5  -6  736.60   16.22
  -1   5   6  759.40   17.33
  -1   5   6  721.93   17.10
  -1   5   5  243.23    8.60
   1  -5  -5  245.68    7.59
  -1   5   5  246.85    8.62
  -1   5   4  766.60   18.11
   1  -5  -4  730.59   15.86
   1  -5  -3    5.05    0.99
   1  -5  -3    3.53    0.86
  -1   5   3    2.69    0.95
  -1   5   2  472.44   13.57
   1  -5  -2  464.10   11.20
  -1   5   2  452.48   13.49
   1  -5  -2  454.56   11.04
  -1   5   1  190.43    8.07
  -1   5   1  203.45    8.20
   1  -5   0 1333.64   24.19
  -1   5   0 1293.92   27.57
   1  -5   1   76.85    3.58
  -1   5  -1   79.79    5.02
  -1   5  -1   79.35    4.95
  -1   5  -2  228.42    8.94
   1  -5   2  221.99    6.69
   1  -5   2  228.69    7.40
   1  -5   2  250.81    8.43
  -1   5  -2  242.14    9.09
   1  -5   2  212.05    6.45
   1  -5   3  210.37    6.67
  -1   5  -3  259.43    9.38
  -1   5  -3  236.51    8.97
   1  -5   3  226.19    7.50
   1  -5   3  214.83    6.64
   1  -5   3  241.56    8.32
   1  -5   4  176.61    5.76
   1  -5   4  168.13    5.97
   1  -5   4  170.92    6.41
   1  -5   5  246.50    7.77
   1  -5   6   22.27    2.57
   1  -5   6   28.52    2.48
   1  -5   7  158.32    7.50
   1  -5   7  146.80    6.89
   1  -5   7  141.51    5.99
   1  -5   7  150.66    6.80
   1  -5   8  475.55   12.52
   1  -5   8  482.27   13.41
   1  -5   8  499.92   14.26
   1  -5   9   71.13    4.53
   1  -5   9   65.93    4.14
   1  -5   9   59.41    4.08
   1  -5  10  375.16   10.15
   1  -5  10  354.64    9.15
   1  -5  11    1.13    0.52
   1  -5  11    1.05    0.41
   1  -5  11    0.20    0.32
   1  -5  12   68.83    2.81
  -1   4  16  148.59    4.54
  -1   4  16  145.78    4.46
  -1   4  15   16.16    1.67
  -1   4  14  254.86    8.79
  -1   4  14  252.09    7.66
  -1   4  13   84.95    4.90
  -1   4  13   83.87    4.52
  -1   4  13   84.78    4.23
  -1   4  13   83.70    5.10
  -1   4  13   88.68    4.19
  -1   4  12   25.51    2.43
  -1   4  12   26.60    2.80
  -1   4  12   26.55    2.48
  -1   4  12   26.99    3.02
  -1   4  11  406.94   12.51
  -1   4  11  417.79   11.79
  -1   4  11  403.63   12.97
  -1   4  11  423.18   12.68
  -1   4  11  381.41   11.26
  -1   4  10   79.03    4.61
  -1   4  10   84.40    5.13
  -1   4  10   79.87    4.90
  -1   4  10   69.94    4.24
  -1   4  10   82.07    4.94
  -1   4  10   81.74    5.25
  -1   4   9   34.51    3.09
  -1   4   9   26.12    2.85
  -1   4   9   29.95    3.07
  -1   4   9   32.99    3.03
  -1   4   9   38.85    3.17
  -1   4   8   62.17    4.24
  -1   4   8   59.40    3.94
  -1   4   8   63.00    4.02
  -1   4   8   64.88    4.09
  -1   4   7  690.62   14.72
  -1   4   7  664.93   15.86
   1  -4  -6  171.88    5.61
  -1   4   6  178.02    6.19
   1  -4  -5  414.16    9.93
   1  -4  -5  404.52    9.81
   1  -4  -4   38.67    2.39
  -1   4   4   46.20    3.12
   1  -4  -4   42.39    2.55
  -1   4   3  285.28    8.94
   1  -4  -3  282.03    7.41
   1  -4  -3  271.59    7.35
   1  -4  -2 1296.93   23.41
   1  -4  -2 1272.56   23.34
  -1   4   1  120.26    5.61
   1  -4  -1  103.98    3.95
   1  -4   0 1121.21   20.44
  -1   4   0 1077.72   23.32
   1  -4   0 1137.87   20.56
   1  -4   1  522.29   10.88
   1  -4   1  504.92   10.73
   1  -4   2    4.85    0.89
   1  -4   2    5.14    0.78
   1  -4   2    5.01    0.77
  -1   4  -2    3.67    0.97
  -1   4  -3  682.68   16.10
   1  -4   3  659.70   13.16
   1  -4   3  675.65   14.30
   1  -4   4    8.30    1.23
  -1   4  -4   11.30    1.66
   1  -4   4    8.02    0.96
   1  -4   4    8.06    1.18
   1  -4   4   10.06    1.23
   1  -4   5 1574.70   28.07
   1  -4   5 1491.36   28.74
   1  -4   5 1503.12   27.92
   1  -4   6  101.50    4.58
   1  -4   6  105.63    5.18
   1  -4   6  103.43    5.10
   1  -4   7  426.83   13.22
   1  -4   7  417.46   12.12
   1  -4   8  377.84   11.68
   1  -4   8  395.54   12.70
   1  -4   9    5.23    1.37
   1  -4   9    5.11    1.33
   1  -4   9    6.28    1.27
   1  -4   9    5.93    1.32
   1  -4  10  184.51    7.91
   1  -4  10  198.98    7.61
   1  -4  10  176.39    7.83
   1  -4  10  193.19    7.20
   1  -4  11   28.96    2.42
   1  -4  11   31.08    2.64
   1  -4  11   29.58    2.53
   1  -4  11   27.56    2.79
   1  -4  12  268.07    7.76
   1  -4  12  275.89    7.68
   1  -4  12  263.20    7.48
   1  -4  13  117.45    3.98
   1  -4  13  105.62    3.40
   1  -4  13  114.78    3.77
  -1   3  16  200.43    5.60
  -1   3  16  199.64    5.48
  -1   3  15    5.62    1.05
  -1   3  15    6.26    1.01
  -1   3  15    5.86    1.06
  -1   3  14  107.83    4.94
  -1   3  14  105.22    4.41
  -1   3  14  120.63    5.47
  -1   3  13  224.12    8.31
  -1   3  13  208.89    7.87
  -1   3  13  218.66    7.49
  -1   3  12   64.80    4.70
  -1   3  12   61.92    3.53
  -1   3  12   72.57    4.55
  -1   3  11  331.41   10.80
  -1   3  11  336.16    9.68
  -1   3  11  320.59   11.40
  -1   3  11  343.85   10.68
  -1   3  10   97.60    5.26
  -1   3  10   92.60    5.14
  -1   3  10  101.40    5.77
  -1   3  10   98.83    4.80
  -1   3  10   94.42    5.16
  -1   3   9  342.75   10.52
  -1   3   9  357.91   10.69
  -1   3   9  343.83   11.20
  -1   3   9  369.84   10.19
  -1   3   9  328.00   10.34
  -1   3   9  350.29   10.74
  -1   3   8   32.65    2.86
  -1   3   8   35.53    2.83
  -1   3   8   36.86    2.78
  -1   3   8   30.67    2.91
  -1   3   8   33.86    2.78
  -1   3   7  182.32    6.52
   1  -3  -6  506.52   10.54
  -1   3   6  504.58   10.95
  -1   3   5  104.02    3.96
   1  -3  -5  103.34    3.60
   1  -3  -4  241.56    6.30
  -1   3   4  260.05    7.10
  -1   3   3  402.65    9.72
   1  -3  -3  348.81    8.26
   1  -3  -2 2306.81   38.30
   1  -3  -1 1637.40   27.21
  -1   3   1 1472.43   30.08
  -1   3   0  239.98    8.04
   1  -3   1  334.21    7.23
  -1   3  -1  275.47    8.71
  -1   3  -2  381.16   10.45
   1  -3   2  445.53    8.83
   1  -3   3  627.16   12.64
   1  -3   3  606.37   12.40
  -1   3  -3  651.24   14.18
   1  -3   3  640.74   11.87
   1  -3   4   55.31    2.73
   1  -3   4   57.33    2.25
   1  -3   4   53.48    2.17
   1  -3   4   57.82    2.74
  -1   3  -4   57.37    3.20
   1  -3   5  461.08   10.28
   1  -3   5  446.51   10.59
   1  -3   6  123.21    4.94
   1  -3   6  111.56    4.49
   1  -3   7  265.01    8.89
   1  -3   7  255.21    8.26
   1  -3   7  273.54    9.51
   1  -3   7  250.43    7.70
   1  -3   8  565.72   15.25
   1  -3   8  537.03   14.00
   1  -3   8  536.05   14.00
   1  -3   8  553.56   13.20
   1  -3   9    3.42    1.16
   1  -3   9    5.22    1.14
   1  -3   9    4.72    1.20
   1  -3  10  312.82   11.05
   1  -3  10  301.45    9.66
   1  -3  10  316.61   10.24
   1  -3  11    0.83    0.62
   1  -3  11    1.81    0.75
   1  -3  11    0.84    0.67
   1  -3  12  176.74    6.67
   1  -3  12  188.84    6.78
   1  -3  12  179.75    7.64
   1  -3  13   20.70    2.23
   1  -3  13   18.27    1.66
   1  -3  13   16.97    1.73
   1  -3  14    6.44    0.86
  -1   2  16  210.31    5.48
  -1   2  16  226.64    5.69
  -1   2  16  227.34    5.84
  -1   2  15    1.22    0.52
  -1   2  15    1.23    0.50
  -1   2  15    2.55    0.71
  -1   2  15    1.24    0.57
  -1   2  14  151.93    6.39
  -1   2  14  156.66    6.58
  -1   2  14  151.53    6.12
  -1   2  14  145.25    5.99
  -1   2  13   85.56    5.12
  -1   2  13   80.08    3.98
  -1   2  13   81.88    4.69
  -1   2  13   87.52    5.04
  -1   2  12  273.57    9.46
  -1   2  12  276.34    9.89
  -1   2  12  258.49    8.41
  -1   2  12  287.88   10.30
  -1   2  11  424.66   12.66
  -1   2  11  386.32   12.15
  -1   2  11  399.93   11.10
  -1   2  11  402.60   11.92
  -1   2  11  382.32   12.36
  -1   2  10   83.63    4.97
  -1   2  10   80.18    4.85
  -1   2  10   87.54    4.57
  -1   2  10   93.00    5.21
  -1   2  10   80.61    4.66
  -1   2   9  229.16    8.45
  -1   2   9  233.99    8.61
  -1   2   9  272.98    9.06
  -1   2   9  262.33    8.35
  -1   2   8   88.11    4.41
  -1   2   8  107.06    5.08
  -1   2   7 1246.40   25.47
  -1   2   7 1527.77   26.82
   1  -2  -6 1330.56   22.25
  -1   2   6 1345.93   24.56
   1  -2  -5  454.98    8.99
  -1   2   5  468.83   10.40
   1  -2  -4  931.34   16.95
  -1   2   4 1025.57   17.54
  -1   2   3    0.52    0.29
   1  -2  -3    6.03    0.70
  -1   2   2  780.25   14.55
   1  -2  -2  716.94   13.53
  -1   2   1  731.25   15.05
   1  -2  -1  774.31   13.81
  -1   2   0   69.18    3.24
   1  -2   1  986.44   16.42
  -1   2  -1  868.86   17.86
  -1   2  -2    4.06    0.74
  -1   2  -3 1626.50   30.08
   1  -2   3 1751.58   28.49
   1  -2   4 2442.85   38.47
   1  -2   4 2317.75   37.49
   1  -2   5  297.22    7.56
   1  -2   5  302.79    5.99
  -1   2  -5  297.77    7.27
   1  -2   6  355.63    8.86
   1  -2   6  367.19    8.38
   1  -2   7   13.68    1.83
   1  -2   7   10.85    1.36
   1  -2   7   10.46    1.29
   1  -2   8 1102.43   22.59
   1  -2   8 1076.52   21.13
   1  -2   8 1103.59   21.62
   1  -2   8 1054.61   19.96
   1  -2   8 1173.17   24.27
   1  -2   8 1148.93   22.38
   1  -2   9  427.70   12.77
   1  -2   9  408.10   11.51
   1  -2   9  386.02    9.97
   1  -2   9  393.87    9.35
   1  -2   9  416.86   11.70
   1  -2   9  406.20   10.90
   1  -2  10   92.80    4.79
   1  -2  10   94.90    5.06
   1  -2  10   93.33    5.27
   1  -2  10   87.36    3.76
   1  -2  11  372.03   11.05
   1  -2  11  349.20    8.96
   1  -2  11  374.76   10.89
   1  -2  12  141.82    6.17
   1  -2  12  157.16    6.31
   1  -2  12  150.39    7.19
   1  -2  12  153.81    6.58
   1  -2  13  173.97    6.69
   1  -2  13  173.06    7.45
   1  -2  13  177.48    6.47
   1  -2  13  169.24    5.97
   1  -2  14    3.19    0.80
   1  -2  14    3.04    0.70
   1  -2  15  532.21   11.07
  -1   1  16  133.72    4.30
  -1   1  15   27.35    1.92
  -1   1  15   31.96    2.45
  -1   1  15   28.55    2.01
  -1   1  15   30.54    2.23
  -1   1  14  152.03    6.15
  -1   1  14  153.74    6.50
  -1   1  14  149.59    5.72
  -1   1  14  150.43    5.81
  -1   1  13  731.82   17.65
  -1   1  13  732.00   18.10
  -1   1  13  711.86   16.83
  -1   1  12   65.73    4.45
  -1   1  12   67.47    4.62
  -1   1  12   65.49    4.17
  -1   1  12   68.51    4.26
  -1   1  12   62.34    4.70
  -1   1  11  927.94   21.40
  -1   1  11  990.47   22.94
  -1   1  11  888.27   19.93
  -1   1  11  917.98   21.50
  -1   1  11  941.11   20.93
  -1   1  11  863.43   20.22
  -1   1  11  893.79   20.44
  -1   1  11  906.84   19.01
  -1   1  10    0.37    0.47
  -1   1  10    1.29    0.66
  -1   1  10    0.32    0.41
  -1   1  10    1.70    0.68
  -1   1  10    0.19    0.33
  -1   1  10    1.20    0.69
  -1   1  10    0.86    0.56
  -1   1   9  631.14   15.38
  -1   1   9  597.23   14.87
  -1   1   9  613.34   15.63
  -1   1   9  621.19   15.00
  -1   1   9  608.13   14.76
  -1   1   9  623.47   15.62
  -1   1   8   10.79    1.75
  -1   1   7  800.19   18.30
  -1   1   6 1435.05   22.65
  -1   1   5   81.84    2.34
  -1   1   5   86.06    3.41
  -1   1   4 1280.06   21.59
  -1   1   4 1247.63   20.22
   1  -1  -3  149.36    3.57
  -1   1   2 1915.50   30.67
   1  -1  -2 1879.08   30.33
   1  -1  -1  303.62    6.04
   1  -1   0   61.54    1.97
  -1   1  -1 1700.67   27.98
   1  -1   2  173.39    3.80
   1  -1   3   47.69    1.48
   1  -1   3   44.02    1.49
   1  -1   4   90.04    2.60
   1  -1   4   92.89    2.26
   1  -1   5 1565.36   24.59
  -1   1  -5 1503.67   25.49
   1  -1   6  111.50    4.02
   1  -1   7  141.77    4.94
   1  -1   7  147.95    5.03
   1  -1   8  549.92   12.56
   1  -1   8  560.14   14.10
   1  -1   8  540.38   12.29
   1  -1   9   44.83    2.93
   1  -1   9   42.04    2.69
   1  -1   9   47.47    3.21
   1  -1   9   39.00    2.38
   1  -1  10  427.22   11.37
   1  -1  10  413.57   10.58
   1  -1  10  434.93   11.75
   1  -1  10  428.73   10.33
   1  -1  11    2.31    0.83
   1  -1  11    3.35    0.92
   1  -1  11    1.13    0.50
   1  -1  12  400.28   11.06
   1  -1  12  396.71   11.82
   1  -1  12  398.60   10.18
   1  -1  13  149.48    6.04
   1  -1  13  156.10    7.23
   1  -1  13  147.93    5.28
   1  -1  13  162.89    6.74
   1  -1  14    1.75    0.78
   1  -1  14    2.40    0.67
   1  -1  14    1.64    0.57
   1  -1  14    2.56    0.83
   1  -1  15  212.42    7.20
   1  -1  15  234.38    6.86
   1  -1  16  133.56    3.86
  -1   0  16  182.82    4.99
  -1   0  15   65.08    3.44
  -1   0  14   92.88    4.17
  -1   0  14   87.13    4.66
  -1   0  14   78.40    3.69
  -1   0  13  145.44    6.71
  -1   0  13  142.20    5.79
  -1   0  13  147.27    6.29
  -1   0  13  143.66    5.88
  -1   0  13  146.44    6.12
  -1   0  13  136.54    7.08
  -1   0  13  144.59    5.61
  -1   0  12   55.19    4.59
  -1   0  12   55.18    4.16
  -1   0  12   51.79    3.58
  -1   0  12   56.49    3.83
  -1   0  12   58.65    4.06
  -1   0  12   53.46    3.49
  -1   0  12   54.44    3.82
  -1   0  11    5.43    1.24
  -1   0  11    5.82    1.56
  -1   0  11    5.24    1.20
  -1   0  11    5.28    1.19
  -1   0  11    5.58    1.31
  -1   0  11    4.63    1.16
  -1   0  11    7.66    1.58
  -1   0  10  312.45    9.65
  -1   0  10  297.65    9.54
  -1   0  10  331.30   11.86
  -1   0  10  309.28   10.49
  -1   0  10  318.36   10.13
  -1   0  10  321.97   10.28
  -1   0   9  359.19   11.08
  -1   0   9  379.13   10.51
  -1   0   9  369.12   10.83
  -1   0   9  345.63   10.59
  -1   0   9  346.52   10.22
  -1   0   9  367.60   10.53
  -1   0   8  662.31   17.44
  -1   0   7   12.74    1.92
  -1   0   6 1767.94   34.24
  -1   0   5   10.14    1.27
   1   0  -4  240.20    4.60
  -1   0   4  235.59    6.56
  -1   0   3 1369.43   22.04
  -1   0   2  259.84    5.07
  -1   0   2  238.20    5.81
  -1   0   1  939.44   15.81
  -1   0   1  912.07   15.40
  -1   0   0    1.27    0.24
  -1   0  -1 1562.98   24.33
  -1   0  -1 1594.10   25.32
  -1   0  -2    2.04    0.36
   1   0   2    9.79    0.40
   1   0   3   37.02    1.22
  -1   0  -3   32.11    1.35
   1   0   4  875.54   14.26
   1   0   5  261.21    4.51
   1   0   5  281.00    6.57
   1   0   6 1153.63   21.03
   1   0   7   41.25    2.42
   1   0   7   37.47    2.21
   1   0   8  148.64    5.15
   1   0   8  155.50    5.32
   1   0   9  602.96   13.48
   1   0   9  585.43   12.81
   1   0   9  611.11   13.64
   1   0  10   27.67    2.18
   1   0  10   26.10    2.29
   1   0  10   31.86    2.62
   1   0  11  150.06    6.51
   1   0  11  141.69    5.89
   1   0  11  146.97    5.60
   1   0  12   13.09    1.75
   1   0  12   14.32    1.72
   1   0  12   13.26    1.90
   1   0  13  616.73   14.19
   1   0  13  618.04   15.56
   1   0  13  616.21   16.29
   1   0  13  578.58   14.12
   1   0  14   33.33    2.44
   1   0  14   36.96    2.81
   1   0  14   33.34    3.07
   1   0  14   38.44    3.03
   1   0  15  257.03    7.36
   1   0  15  259.14    7.77
   1   0  15  240.10    8.04
   1   0  16   97.08    3.53
   1   0  16   85.66    3.09
  -1  -1  15  134.85    4.74
  -1  -1  14   73.51    3.98
  -1  -1  14   64.93    3.19
  -1  -1  13  880.53   20.14
  -1  -1  13  893.48   19.77
  -1  -1  13  887.66   19.10
  -1  -1  13  879.88   21.55
  -1  -1  12    4.29    1.00
  -1  -1  12    4.58    1.21
  -1  -1  12    5.60    1.00
  -1  -1  12    4.81    1.21
  -1  -1  12    5.81    1.15
  -1  -1  12    8.84    1.91
  -1  -1  11  318.93   10.56
  -1  -1  11  327.25   12.35
  -1  -1  11  321.15    9.82
  -1  -1  11  312.71   10.59
  -1  -1  11  321.61    9.70
  -1  -1  11  311.89    9.05
  -1  -1  10  127.54    5.33
  -1  -1  10  131.87    5.73
  -1  -1  10  132.15    5.82
  -1  -1  10  118.80    5.20
  -1  -1  10  123.82    6.16
  -1  -1  10  125.93    6.11
  -1  -1  10  125.43    6.18
  -1  -1  10  131.36    7.39
  -1  -1   9  792.61   19.00
  -1  -1   9  795.34   17.91
  -1  -1   9  797.16   18.49
  -1  -1   8  333.04   10.14
  -1  -1   8  322.95    9.40
  -1  -1   8  344.40    9.95
  -1  -1   8  324.49    9.99
  -1  -1   8  341.51    9.65
  -1  -1   8  341.06   10.14
  -1  -1   7    0.22    0.34
  -1  -1   6 1770.60   32.32
  -1  -1   5  513.27   12.01
  -1  -1   4 1297.87   23.72
  -1  -1   3  220.05    4.14
  -1  -1   2   63.49    2.18
  -1  -1   1 2021.53   33.42
  -1  -1   1 2144.33   33.69
  -1  -1   0    6.74    0.61
  -1  -1  -1 1743.04   28.86
   1   1   1 1786.23   27.99
  -1  -1  -2 1040.53   17.65
   1   1   2 1027.73   17.33
  -1  -1  -3 1525.28   25.12
   1   1   4  233.96    5.68
   1   1   5  283.78    6.33
   1   1   6 2374.93   38.92
   1   1   6 2331.78   36.51
   1   1   7   21.82    1.57
   1   1   7   22.56    1.79
   1   1   8  912.96   18.32
   1   1   8  911.09   17.52
   1   1   9  810.00   16.28
   1   1   9  761.64   15.87
   1   1  10  740.91   17.09
   1   1  10  788.75   16.90
   1   1  10  779.32   15.38
   1   1  10  777.42   16.42
   1   1  10  779.26   16.79
   1   1  11   94.67    4.51
   1   1  11   92.83    4.56
   1   1  11   94.30    4.93
   1   1  11   95.10    4.91
   1   1  12  343.71    9.98
   1   1  12  348.31    9.88
   1   1  12  351.89   10.81
   1   1  12  331.57    8.67
   1   1  13  444.63   12.91
   1   1  13  448.65   12.48
   1   1  13  434.98   11.65
   1   1  13  404.50   10.91
   1   1  14   46.79    3.40
   1   1  14   49.45    3.68
   1   1  14   48.88    3.23
   1   1  14   47.88    3.40
   1   1  15  108.42    5.04
   1   1  15  122.87    5.05
   1   1  15  120.38    5.10
   1   1  16  256.20    6.70
   1   1  16  265.57    7.10
  -1  -2  15  161.65    4.37
  -1  -2  14   17.83    1.51
  -1  -2  14   21.83    1.87
  -1  -2  14   22.30    1.86
  -1  -2  13  101.34    4.87
  -1  -2  13   96.87    4.54
  -1  -2  13   99.78    4.82
  -1  -2  12   47.51    3.57
  -1  -2  12   45.82    3.53
  -1  -2  11    2.94    1.00
  -1  -2  11    2.77    1.18
  -1  -2  11    2.41    0.94
  -1  -2  11    2.66    0.95
  -1  -2  10   28.58    2.91
  -1  -2  10   28.57    2.90
  -1  -2  10   23.09    2.64
  -1  -2  10   29.66    3.53
  -1  -2  10   25.59    2.79
  -1  -2   9  178.58    7.45
  -1  -2   9  184.84    7.63
  -1  -2   9  177.76    6.66
  -1  -2   9  176.46    7.47
  -1  -2   9  184.05    7.28
  -1  -2   9  183.70    7.39
  -1  -2   9  190.03    9.07
  -1  -2   9  184.51    7.71
  -1  -2   8  240.11    8.52
  -1  -2   8  249.99    8.75
  -1  -2   8  271.64    8.82
  -1  -2   8  252.41    8.31
  -1  -2   8  244.53    8.79
  -1  -2   8  249.27    8.70
  -1  -2   8  221.22    8.41
  -1  -2   8  238.74    7.83
  -1  -2   8  279.72   10.80
  -1  -2   7    0.32    0.32
  -1  -2   7    1.49    0.80
  -1  -2   7    0.92    0.56
  -1  -2   7    2.05    0.78
  -1  -2   7    0.63    0.55
  -1  -2   7    1.12    0.56
  -1  -2   7    1.57    0.64
  -1  -2   6   23.28    2.27
  -1  -2   6   22.73    2.72
  -1  -2   5   66.36    3.60
  -1  -2   5   75.55    4.91
   1   2  -4  601.43   10.45
  -1  -2   4  578.84   12.59
  -1  -2   4  599.36   10.94
  -1  -2   3   16.49    1.49
   1   2  -3   20.40    1.23
  -1  -2   3   19.78    1.35
  -1  -2   2    4.25    0.64
  -1  -2   1 1531.69   27.36
  -1  -2   1 1746.50   28.02
  -1  -2   0    3.04    0.52
  -1  -2  -1  103.49    4.07
  -1  -2  -2  434.01    9.88
  -1  -2  -3  733.98   14.40
  -1  -2  -4 1397.46   24.39
  -1  -2  -5  370.99    8.52
   1   2   5  385.60    7.43
  -1  -2  -6 2019.51   33.62
   1   2   6 2008.61   32.08
   1   2   7  138.18    3.20
   1   2   7  148.94    4.90
   1   2   8    6.65    1.05
   1   2   8    7.88    0.97
   1   2   9  175.59    6.31
   1   2   9  183.41    5.66
   1   2   9  194.98    6.50
   1   2   9  185.58    6.14
   1   2  10   45.92    3.17
   1   2  10   46.43    3.03
   1   2  10   48.87    2.81
   1   2  10   53.80    3.15
   1   2  10   47.82    3.19
   1   2  11  833.97   18.64
   1   2  11  846.30   17.32
   1   2  11  845.96   18.83
   1   2  12  114.94    5.57
   1   2  12  121.10    5.59
   1   2  12  124.76    5.78
   1   2  12  114.56    4.82
   1   2  13  665.51   15.88
   1   2  13  679.14   16.60
   1   2  13  689.03   16.33
   1   2  13  670.77   14.81
   1   2  14  151.09    5.22
   1   2  14  138.86    6.00
   1   2  14  144.89    5.97
   1   2  14  152.23    6.25
   1   2  14  149.70    5.79
   1   2  15   92.28    4.14
   1   2  16  108.62    3.79
   1   2  17    0.26    0.21
  -1  -3  14    4.48    0.64
  -1  -3  13  110.83    4.42
  -1  -3  13  114.28    4.48
  -1  -3  13  112.90    4.69
  -1  -3  12  208.83    7.52
  -1  -3  12  203.10    7.15
  -1  -3  11  337.73   10.44
  -1  -3  11  352.48   10.91
  -1  -3  11  348.95   10.93
  -1  -3  11  318.91   11.93
  -1  -3  10  286.69   11.58
  -1  -3  10  291.52    9.88
  -1  -3  10  299.10   10.29
  -1  -3  10  307.99   10.33
  -1  -3  10  295.65   10.27
  -1  -3   9  152.58    6.81
  -1  -3   9  152.98    8.28
  -1  -3   9  147.02    6.96
  -1  -3   9  155.28    6.88
  -1  -3   9  160.62    6.82
  -1  -3   9  160.19    7.27
  -1  -3   8  861.95   20.09
  -1  -3   8  860.61   19.45
  -1  -3   8  856.40   20.17
  -1  -3   8  872.14   22.58
  -1  -3   8  892.61   19.47
  -1  -3   8  859.26   19.66
  -1  -3   7   24.74    2.60
  -1  -3   7   23.54    2.56
  -1  -3   7   24.40    3.12
  -1  -3   7   26.57    2.74
  -1  -3   7   24.87    2.55
  -1  -3   7   24.91    2.38
  -1  -3   6  449.68   12.24
  -1  -3   6  452.69   14.44
  -1  -3   6  467.63   11.55
  -1  -3   6  439.18   12.38
  -1  -3   5  474.29   14.81
  -1  -3   5  493.78   12.52
  -1  -3   4 1235.29   22.06
  -1  -3   4 1181.68   23.63
  -1  -3   3 1679.73   29.27
   1   3  -3 1613.15   27.38
  -1  -3   3 1644.34   28.25
  -1  -3   2   64.43    3.18
  -1  -3   2   71.55    3.22
   1   3  -2   63.23    2.67
  -1  -3   1  908.04   17.25
   1   3  -1  796.71   15.55
   1   3   0   21.14    1.49
  -1  -3   0   28.68    2.33
  -1  -3  -1 1227.63   24.17
   1   3   1 1085.39   19.92
  -1  -3  -2  527.64   13.91
   1   3   3    8.25    0.90
  -1  -3  -3   10.22    1.53
   1   3   4  437.46    9.00
  -1  -3  -4  400.74   10.69
  -1  -3  -5  245.77    7.40
   1   3   5  250.11    5.88
  -1  -3  -6  735.43   15.43
   1   3   6  722.58   13.27
  -1  -3  -7 1003.52   19.09
   1   3   7  936.95   16.76
   1   3   8  117.61    4.87
   1   3   8  113.20    3.28
   1   3   9  451.53   10.85
   1   3   9  454.22   11.77
   1   3   9  446.26   11.28
   1   3   9  458.88   10.30
   1   3  10   71.67    4.11
   1   3  10   66.19    3.84
   1   3  10   65.99    3.25
   1   3  10   71.60    4.12
   1   3  11  300.83    8.31
   1   3  11  328.60    9.86
   1   3  11  320.66    9.10
   1   3  11  308.91    9.82
   1   3  12   82.07    4.96
   1   3  12   81.27    4.21
   1   3  12   78.03    3.71
   1   3  12   78.99    4.61
   1   3  12   84.83    4.70
   1   3  13  111.31    5.80
   1   3  13  111.04    4.99
   1   3  13  111.19    5.48
   1   3  13  111.22    5.50
   1   3  14   45.74    2.95
   1   3  14   49.67    3.68
   1   3  14   51.30    3.61
   1   3  14   48.35    3.32
   1   3  15   20.91    2.18
   1   3  15   16.87    1.57
   1   3  15   18.68    1.82
   1   3  16  329.20    8.80
   1   3  17    0.89    0.36
  -1  -4  13   88.10    3.12
  -1  -4  13   88.65    3.36
  -1  -4  12   74.72    3.30
  -1  -4  12   78.88    3.82
  -1  -4  12   79.67    3.75
  -1  -4  11   11.67    1.67
  -1  -4  11   12.82    1.74
  -1  -4  11   11.81    1.50
  -1  -4  10   84.35    5.60
  -1  -4  10   96.42    5.24
  -1  -4  10   92.05    4.69
  -1  -4   9   19.69    2.47
  -1  -4   9   18.08    2.34
  -1  -4   9   17.67    2.70
  -1  -4   9   24.59    2.51
  -1  -4   9   22.13    2.47
  -1  -4   9   25.37    2.51
  -1  -4   8  477.48   13.12
  -1  -4   8  452.36   13.14
  -1  -4   8  438.89   13.25
  -1  -4   8  433.91   14.84
  -1  -4   8  449.36   12.65
  -1  -4   8  445.26   12.42
  -1  -4   8  444.68   13.38
  -1  -4   7   46.21    3.64
  -1  -4   7   46.14    3.79
  -1  -4   7   38.49    3.46
  -1  -4   7   49.78    3.72
  -1  -4   7   41.44    4.17
  -1  -4   7   48.27    3.45
  -1  -4   7   53.67    3.63
  -1  -4   6  420.89   14.37
  -1  -4   6  435.10   12.32
  -1  -4   6  427.97   12.82
  -1  -4   6  414.24   12.53
  -1  -4   6  464.78   13.02
  -1  -4   6  474.12   12.10
  -1  -4   5  312.62    9.04
  -1  -4   5  294.55    9.61
  -1  -4   5  294.21    9.22
  -1  -4   5  276.53    9.42
  -1  -4   4  250.22    7.19
  -1  -4   4  226.41    8.09
  -1  -4   4  221.84    7.92
  -1  -4   4  204.16    9.02
   1   4  -4  263.50    7.05
  -1  -4   4  247.20    8.66
  -1  -4   4  236.36    7.86
  -1  -4   4  257.03    7.77
  -1  -4   3  347.46    9.05
   1   4  -3  370.60    8.76
   1   4  -2   23.29    1.78
  -1  -4   2   16.67    2.08
  -1  -4   2   18.49    1.90
  -1  -4   2   21.22    1.93
  -1  -4   1  950.78   19.04
   1   4  -1  897.54   17.31
  -1  -4   1  959.86   18.98
  -1  -4   0  575.83   13.43
  -1  -4   0  565.39   13.22
   1   4   1 1549.36   27.26
  -1  -4  -2 2792.56   50.31
  -1  -4  -2 2846.95   50.10
   1   4   2 2735.92   45.92
  -1  -4  -3  136.27    6.46
  -1  -4  -3  120.76    6.01
  -1  -4  -4  461.97   13.59
  -1  -4  -4  473.76   13.60
  -1  -4  -5   57.55    3.92
   1   4   5   67.62    2.91
   1   4   6 1077.91   19.56
  -1  -4  -6 1057.58   22.61
  -1  -4  -7  317.03    9.64
   1   4   7  306.54    7.51
   1   4   8   68.50    3.89
  -1  -4  -8   68.24    3.94
   1   4   8   62.42    2.78
   1   4   8   65.08    3.21
   1   4   8   65.39    3.62
   1   4   9  285.37    9.13
   1   4   9  291.11    9.17
   1   4   9  281.73    8.37
   1   4   9  272.62    7.81
   1   4   9  266.20    8.56
   1   4  10   40.57    3.25
   1   4  10   39.29    3.06
   1   4  10   38.22    2.64
   1   4  10   37.49    3.16
   1   4  11  360.69   11.21
   1   4  11  354.76   10.73
   1   4  11  349.19    9.52
   1   4  11  341.48   10.73
   1   4  11  319.87    9.87
   1   4  11  350.83   10.87
   1   4  12   46.86    3.58
   1   4  12   43.35    3.57
   1   4  12   46.58    3.36
   1   4  12   48.18    3.06
   1   4  12   46.27    3.58
   1   4  13  382.44   10.77
   1   4  13  382.95   11.69
   1   4  13  362.14    9.67
   1   4  13  370.96   11.26
   1   4  13  370.99   11.22
   1   4  14  189.08    7.46
   1   4  14  201.18    6.94
   1   4  14  202.84    7.34
   1   4  15   12.63    1.66
   1   4  15   14.58    1.56
   1   4  15   12.40    1.52
   1   4  16  268.80    7.35
   1   4  16  246.67    6.49
   1   4  17   30.78    1.53
  -1  -5  12  117.91    3.64
  -1  -5  11   52.61    2.93
  -1  -5  10  153.52    5.99
  -1  -5  10  149.41    6.00
  -1  -5   9   35.07    3.00
  -1  -5   9   42.14    3.23
  -1  -5   9   41.21    2.84
  -1  -5   8  347.34   11.29
  -1  -5   8  360.57   10.09
  -1  -5   8  360.63   10.79
  -1  -5   8  385.25   11.01
  -1  -5   7  223.47    9.81
  -1  -5   7  238.11    9.11
  -1  -5   7  244.71    9.34
  -1  -5   7  257.53    9.13
  -1  -5   7  248.89    8.99
  -1  -5   7  246.84    8.46
  -1  -5   7  243.46    8.06
  -1  -5   6   51.47    3.97
  -1  -5   6   52.27    3.41
  -1  -5   6   57.03    4.13
  -1  -5   6   50.31    4.01
  -1  -5   6   37.93    3.89
  -1  -5   6   52.40    3.82
  -1  -5   6   49.74    3.45
  -1  -5   5  966.75   22.43
  -1  -5   5  998.43   22.50
  -1  -5   5 1083.78   21.39
  -1  -5   5 1048.25   22.10
  -1  -5   4   13.84    1.73
  -1  -5   4    8.61    1.34
  -1  -5   4   12.09    1.85
  -1  -5   4    7.92    1.68
  -1  -5   4   11.02    1.79
  -1  -5   4   10.97    1.68
  -1  -5   4   12.07    1.97
  -1  -5   3  762.33   18.30
  -1  -5   3  763.57   18.79
  -1  -5   3  794.54   17.67
  -1  -5   3  799.44   17.07
   1   5  -3  828.89   17.24
  -1  -5   3  810.13   17.61
  -1  -5   3  729.40   17.87
  -1  -5   3  725.42   16.94
  -1  -5   2    6.66    1.29
  -1  -5   2    5.67    1.32
  -1  -5   2    7.06    1.27
  -1  -5   2    7.21    1.39
  -1  -5   2    7.92    1.26
  -1  -5   2    9.01    1.39
   1   5  -2    7.29    1.23
  -1  -5   1  489.61   12.93
  -1  -5   1  496.49   13.02
  -1  -5   1  505.45   12.34
   1   5  -1  530.37   12.36
  -1  -5   1  484.58   13.61
  -1  -5   0  367.28   11.15
  -1  -5   0  383.11   11.22
   1   5   0  379.15    9.96
  -1  -5   0  408.07   11.24
   1   5   1    2.78    0.74
   1   5   2  330.01    8.85
  -1  -5  -2  308.81   10.74
  -1  -5  -2  338.75   10.78
  -1  -5  -3   13.87    2.09
  -1  -5  -3   12.80    2.01
  -1  -5  -4   56.16    4.24
  -1  -5  -4   49.56    4.01
   1   5   4   57.99    3.13
   1   5   5   39.56    2.48
   1   5   5   37.79    2.50
  -1  -5  -6  326.33   11.30
   1   5   6  363.05    9.54
   1   5   6  365.64    9.28
   1   5   6  339.68    8.97
   1   5   7  246.17    7.76
   1   5   7  236.96    7.06
  -1  -5  -7  241.77    9.20
   1   5   7  235.72    7.21
  -1  -5  -8  282.62   10.05
   1   5   8  291.03    7.98
   1   5   8  289.32    8.89
   1   5   8  299.99    8.99
   1   5   9   40.37    3.35
   1   5   9   41.42    3.22
   1   5   9   38.09    2.75
   1   5   9   34.32    2.91
   1   5   9   37.29    2.96
   1   5  10    8.66    1.58
   1   5  10    7.62    1.47
   1   5  10    8.43    1.50
   1   5  10    9.97    1.50
   1   5  10    9.24    1.56
   1   5  11  833.30   19.62
   1   5  11  819.05   19.16
   1   5  11  865.49   18.55
   1   5  11  859.41   20.13
   1   5  12    5.00    1.22
   1   5  12    4.80    1.20
   1   5  12    5.76    1.16
   1   5  13  234.17    8.35
   1   5  13  239.58    7.62
   1   5  13  237.23    8.53
   1   5  14  191.73    6.10
   1   5  14  202.26    7.02
   1   5  14  192.25    7.03
   1   5  14  203.14    7.28
   1   5  15    1.41    0.58
   1   5  15    1.57    0.58
   1   5  16  183.68    5.16
  -1  -6  10  217.39    5.88
  -1  -6   9   68.98    3.46
  -1  -6   9   63.53    3.49
  -1  -6   8  330.68    9.57
  -1  -6   8  342.31    9.02
  -1  -6   8  326.01    9.85
  -1  -6   8  342.86   10.01
  -1  -6   7   85.33    4.80
  -1  -6   7   85.29    4.50
  -1  -6   7   82.75    4.83
  -1  -6   7   75.17    4.08
  -1  -6   7   87.44    4.64
  -1  -6   6    1.36    0.75
  -1  -6   6    3.16    0.90
  -1  -6   6    2.22    0.85
  -1  -6   5   99.99    5.52
  -1  -6   5   88.51    5.37
  -1  -6   5  102.82    4.86
  -1  -6   5  114.85    5.59
  -1  -6   5  102.28    5.62
  -1  -6   4   48.81    3.79
  -1  -6   4   42.43    3.61
  -1  -6   4   52.15    3.32
  -1  -6   4   53.66    3.75
  -1  -6   3   50.56    3.80
  -1  -6   3   44.10    3.33
  -1  -6   3   43.46    3.65
  -1  -6   3   49.65    3.20
  -1  -6   3   50.55    4.11
  -1  -6   3   53.96    3.69
   1   6  -3   55.78    3.82
  -1  -6   2   68.10    4.35
   1   6  -2   74.43    4.41
  -1  -6   2   74.93    3.91
  -1  -6   2   60.32    4.29
  -1  -6   2   64.85    4.18
  -1  -6   2   69.15    4.78
  -1  -6   2   70.83    4.19
   1   6  -1   27.05    2.62
  -1  -6   1   20.56    2.44
  -1  -6   1   22.35    2.41
  -1  -6   1   20.02    2.58
  -1  -6   1   20.99    2.43
  -1  -6   1   20.42    2.19
   1   6   0  777.45   17.62
  -1  -6   0  744.39   18.33
  -1  -6   0  737.44   16.81
  -1  -6   0  745.91   18.07
  -1  -6   0  699.93   18.47
  -1  -6  -1  117.69    6.18
  -1  -6  -1  109.66    5.09
   1   6   1  120.83    5.54
  -1  -6  -1  109.80    6.03
   1   6   2  508.21   13.01
  -1  -6  -2  495.74   12.47
  -1  -6  -3   31.39    2.60
  -1  -6  -3   28.43    3.21
   1   6   3   32.21    2.33
   1   6   3   36.21    2.86
  -1  -6  -4  505.79   15.35
   1   6   4  498.06   11.89
   1   6   5  432.82   11.51
  -1  -6  -5  398.19   13.61
   1   6   5  411.00   10.69
   1   6   6  409.50   10.75
   1   6   6  399.62   11.05
  -1  -6  -6  383.44   13.35
   1   6   6  423.66   11.19
   1   6   7 1504.50   28.49
   1   6   7 1506.53   28.38
   1   6   7 1483.74   28.84
  -1  -6  -8   63.74    4.86
   1   6   8   73.02    3.98
   1   6   8   68.10    3.97
   1   6   8   72.33    4.35
   1   6   9  229.10    8.31
   1   6   9  200.55    6.99
   1   6   9  227.25    8.83
   1   6   9  228.96    7.90
   1   6  10  444.44   12.68
   1   6  10  431.19   13.07
   1   6  11  555.20   14.52
   1   6  11  521.99   13.51
   1   6  11  563.08   13.99
   1   6  11  540.32   14.69
   1   6  12  454.36   12.79
   1   6  12  455.87   12.61
   1   6  12  482.33   12.28
   1   6  13   23.38    2.16
   1   6  13   25.45    2.49
   1   6  13   26.97    2.31
   1   6  13   26.15    2.46
   1   6  14  355.41    8.96
   1   6  15   54.04    2.84
   1   6  15   47.34    2.31
   1   6  16   59.86    2.29
   1   6  16   88.66    2.81
  -1  -7   8  134.97    4.53
  -1  -7   7  158.69    5.03
  -1  -7   7  170.57    6.04
  -1  -7   6   17.75    1.85
  -1  -7   6   17.64    2.03
  -1  -7   6   16.25    1.87
  -1  -7   5  329.91    9.93
  -1  -7   5  326.80    9.95
  -1  -7   5  314.02   10.26
  -1  -7   4   15.27    2.02
  -1  -7   3  799.83   18.61
  -1  -7   2   42.52    3.69
   1   7  -2   49.70    3.82
  -1  -7   2   38.70    3.31
  -1  -7   2   44.09    3.86
  -1  -7   2   50.94    3.69
  -1  -7   1  223.14    8.85
   1   7  -1  255.44    9.35
  -1  -7   1  224.81    9.01
  -1  -7   1  242.23    9.68
  -1  -7   1  259.87    8.74
   1   7  -1  255.19    9.36
  -1  -7   0  807.09   20.02
  -1  -7   0  820.10   20.86
   1   7   0  861.39   20.10
  -1  -7   0  787.37   20.00
  -1  -7   0  839.64   18.56
  -1  -7  -1  155.39    7.31
  -1  -7  -1  144.36    7.34
  -1  -7  -1  159.95    6.35
   1   7   1  156.21    7.14
  -1  -7  -1  151.17    7.60
  -1  -7  -2  353.24   12.46
  -1  -7  -2  363.05   10.34
   1   7   2  379.22   11.78
   1   7   3    1.64    0.83
  -1  -7  -3    0.73    0.58
  -1  -7  -3    1.56    0.88
  -1  -7  -3    2.82    0.81
  -1  -7  -3    1.16    0.75
   1   7   4  250.13    7.98
  -1  -7  -4  226.78    9.39
  -1  -7  -4  239.40   10.38
   1   7   5  236.51    7.98
  -1  -7  -5  243.02   10.56
   1   7   5  239.94    8.87
  -1  -7  -6   48.61    4.51
   1   7   6   47.28    3.62
   1   7   6   41.05    3.15
   1   7   7  410.41   11.95
   1   7   7  428.45   11.81
  -1  -7  -7  385.57   13.79
   1   7   8   10.92    1.69
   1   7   8   10.64    1.68
  -1  -7  -8    9.36    1.94
   1   7   8   10.99    1.70
   1   7   8   12.11    1.79
   1   7   9   72.10    4.41
   1   7   9   68.96    3.98
   1   7   9   77.57    4.98
   1   7   9   77.16    4.46
   1   7  10   56.79    4.01
   1   7  10   62.82    4.06
   1   7  10   66.17    4.09
   1   7  11  332.60   10.35
   1   7  12  116.95    5.18
   1   7  12  114.49    5.30
   1   7  13   54.60    3.14
   1   7  13   50.33    3.18
   1   7  14  135.73    4.86
   1   7  14  138.56    4.56
   1   7  15  134.91    4.04
  -1  -8   6    5.16    0.82
  -1  -8   5  110.89    3.99
  -1  -8   5  113.75    4.60
  -1  -8   4   24.14    2.11
  -1  -8   3  224.30    7.70
   1   8  -2   43.82    3.21
  -1  -8   1    3.79    1.17
   1   8  -1    4.02    1.13
  -1  -8   0  465.49   14.07
   1   8   0  504.40   14.12
  -1  -8  -1   17.10    2.44
   1   8   1   15.31    2.24
   1   8   2  130.98    6.68
  -1  -8  -2  126.38    6.85
   1   8   3   14.97    2.23
  -1  -8  -3   14.91    2.38
   1   8   4   73.05    4.87
  -1  -8  -4   83.12    5.57
   1   8   5  613.99   16.47
   1   8   5  621.03   14.67
   1   8   6    9.63    1.75
   1   8   6    9.70    1.57
   1   8   7   66.55    4.32
   1   8   7   67.03    4.05
   1   8   8    9.03    1.51
   1   8   8    9.42    1.56
   1   8   9  168.64    6.54
   1   8   9  159.85    6.10
   1   8   9  170.83    6.64
   1   8  10  322.84    9.55
   1   8  10  326.27    9.53
   1   8  11   76.99    4.01
   1   8  11   84.88    4.10
   1   8  12  412.74   10.18
   1   8  12  423.55   10.35
   1   8  13    0.35    0.27
  -1  -9   4  155.37    4.24
  -1  -9   3   82.46    2.93
  -1  -9   2  155.53    5.12
   1   9  -1   25.07    2.00
   1   9   0  584.10   13.88
   1   9   1    9.34    1.54
  -1  -9  -1    5.54    1.23
   1   9   2  387.14   11.34
  -1  -9  -2  382.83   11.39
   1   9   3   83.20    4.78
  -1  -9  -3   83.61    4.87
   1   9   4   46.55    3.55
  -1  -9  -4   48.05    3.69
  -1  -9  -5  434.85   12.77
   1   9   6   18.39    2.14
   1   9   7  283.61    8.74
   1   9   7  259.10    7.41
  -1  -9  -7  288.07    9.59
  -1  -9  -8    2.47    0.89
   1   9   8    2.46    0.74
   1   9   8    2.28    0.67
  -1  -9  -9  154.59    6.22
   1   9   9  148.86    5.16
   1   9   9  146.13    4.65
   1   9  10  187.09    5.62
   1   9  10  159.05    4.80
  -1  -9 -11    3.83    0.71
   1   9  11    3.60    0.69
   1   9  12   35.40    1.73
  -1 -10  -1   60.43    2.45
   1  10   2   63.22    2.84
   1  10   3   64.99    3.10
   1  10   4    3.31    0.75
  -1 -10  -4    3.23    0.73
  -1 -10  -5  249.08    7.04
   1  10   6   10.04    1.19
   1  10   7  155.43    4.62
  -1 -10  -8  122.02    3.98
   2  -9  -9  360.33    8.65
   2  -9  -8  111.05    4.49
   2  -9  -7  191.88    6.40
  -2   9   7  189.86    6.06
  -2   9   6  252.64    7.99
   2  -9  -6  259.34    7.78
  -2   9   5  106.48    5.17
   2  -9  -5  123.00    4.94
   2  -9  -4  354.10    9.30
   2  -9  -3   86.86    3.83
  -2   9   3   93.41    4.96
  -2   9   2   92.77    4.88
  -2   9   1   50.05    3.39
  -2   9   0   53.82    3.20
   2  -9   0   45.85    2.32
  -2   9  -1  253.53    6.65
  -2   8  11   33.52    2.01
  -2   8  11   34.78    1.93
  -2   8  10    1.85    0.56
  -2   8   9  211.80    6.66
  -2   8   8   26.80    2.37
  -2   8   8   23.62    2.07
  -2   8   7   81.97    4.74
   2  -8  -6  292.51    9.48
  -2   8   6  290.34   10.40
  -2   8   5    7.09    1.67
   2  -8  -5    3.54    1.02
   2  -8  -4  339.79   10.52
   2  -8  -3  111.97    5.81
   2  -8  -3  109.65    5.47
  -2   8   3  114.11    6.92
  -2   8   2  196.08    9.19
   2  -8  -2  197.18    7.72
  -2   8   1  274.85   10.89
   2  -8  -1  271.85    8.89
   2  -8  -1  258.51    8.61
   2  -8   0   85.24    4.43
  -2   8   0   88.38    5.69
  -2   8  -1  307.52   10.74
   2  -8   2   31.12    2.42
  -2   8  -2   35.48    3.02
   2  -8   3  187.42    6.16
   2  -8   3  179.75    6.27
   2  -8   4   93.70    3.92
   2  -8   4   89.89    3.85
   2  -8   5   55.57    2.67
   2  -8   5   51.11    2.44
   2  -8   6    7.81    0.82
  -2   7  13  198.92    5.65
  -2   7  12    1.14    0.43
  -2   7  12    0.50    0.41
  -2   7  11  213.75    7.30
  -2   7  11  199.06    6.32
  -2   7  10  141.88    5.47
  -2   7   9   88.21    5.29
  -2   7   8  275.69   10.34
  -2   7   8  278.00    9.44
   2  -7  -8  286.06    9.14
  -2   7   7    1.79    0.85
  -2   7   7    1.36    0.77
   2  -7  -7    2.65    0.90
  -2   7   6  854.44   21.30
   2  -7  -6  824.14   19.01
  -2   7   5  135.06    6.73
  -2   7   5  127.34    6.45
   2  -7  -5  127.92    6.12
  -2   7   5  137.12    7.67
  -2   7   4  210.91   10.07
   2  -7  -4  199.71    7.79
  -2   7   4  205.90    8.29
   2  -7  -3  122.86    5.84
  -2   7   3  117.28    7.56
  -2   7   2    1.57    0.99
   2  -7  -2    1.23    0.68
   2  -7  -1  152.39    6.41
  -2   7   1  149.38    8.59
   2  -7  -1  162.00    7.33
   2  -7  -1  146.25    6.65
   2  -7   0   84.54    5.02
  -2   7   0   86.29    6.33
   2  -7   0   80.97    4.48
   2  -7   1  280.20    7.76
  -2   7  -1  296.99   11.93
   2  -7   1  295.00    9.06
   2  -7   2    8.44    1.21
  -2   7  -2   10.34    2.07
   2  -7   2    7.83    1.32
   2  -7   3  182.30    6.05
  -2   7  -3  189.10    8.24
   2  -7   3  174.29    6.22
   2  -7   4  486.24   11.57
   2  -7   4  513.96   13.68
   2  -7   5   69.55    4.12
   2  -7   5   69.67    3.98
   2  -7   5   71.86    3.50
   2  -7   6  101.01    4.65
   2  -7   6  101.44    4.07
   2  -7   7    2.75    0.69
   2  -7   7    2.19    0.58
   2  -7   8  305.49    7.42
  -2   6  14   67.44    2.85
  -2   6  14   68.24    2.96
  -2   6  13  275.45    7.39
  -2   6  13  301.99    8.16
  -2   6  12   42.16    2.79
  -2   6  12   50.13    3.29
  -2   6  12   52.35    3.48
  -2   6  11  294.60    9.69
  -2   6  11  279.37    9.14
  -2   6  10  135.07    6.30
  -2   6  10  113.98    5.30
  -2   6   9  421.53   12.57
  -2   6   9  445.52   13.80
   2  -6  -8    4.00    1.01
  -2   6   8    3.82    1.19
  -2   6   8    5.22    1.31
  -2   6   8    3.11    1.00
  -2   6   8    3.89    1.32
  -2   6   7  113.66    6.20
   2  -6  -7  118.94    5.53
  -2   6   7  111.61    6.11
  -2   6   7  111.69    6.73
   2  -6  -6  416.00   11.38
  -2   6   6  381.40   12.25
  -2   6   6  405.18   13.23
   2  -6  -5   11.91    1.69
  -2   6   5    8.18    1.85
  -2   6   5    6.08    1.55
  -2   6   5    8.56    1.66
   2  -6  -4  268.46    8.66
  -2   6   4  251.11    9.82
  -2   6   4  269.40    9.65
  -2   6   3  267.76    9.73
  -2   6   3  288.18    9.85
   2  -6  -3  279.57    8.78
  -2   6   2  191.44   10.01
   2  -6  -2  206.16    7.22
  -2   6   2  205.93   10.41
  -2   6   1  128.16    8.01
   2  -6   0  530.05   12.85
  -2   6   0  508.27   17.15
   2  -6   1 1461.30   27.74
   2  -6   1 1464.67   28.54
  -2   6  -1 1476.06   33.83
   2  -6   2  180.33    6.42
   2  -6   2  178.22    6.15
  -2   6  -3   44.34    4.19
   2  -6   3   44.91    2.95
   2  -6   3   40.99    2.77
   2  -6   4  467.47   11.44
   2  -6   4  491.68   11.93
   2  -6   5   65.90    4.56
   2  -6   5   61.65    3.56
   2  -6   6  688.21   15.42
   2  -6   6  733.10   17.64
   2  -6   7   11.95    1.76
   2  -6   7   14.32    1.66
   2  -6   7   14.04    1.85
   2  -6   8  167.45    6.42
   2  -6   8  168.54    6.31
   2  -6   8  167.87    5.86
   2  -6   9  139.33    5.10
   2  -6   9  138.66    4.88
   2  -6  10   73.65    3.00
  -2   5  15   72.05    2.89
  -2   5  15   66.10    2.70
  -2   5  14   39.69    2.55
  -2   5  14   38.94    2.58
  -2   5  14   38.57    2.44
  -2   5  13  262.25    8.35
  -2   5  13  276.10    8.49
  -2   5  13  265.34    8.48
  -2   5  12  146.80    6.47
  -2   5  12  136.22    6.25
  -2   5  11   44.50    3.58
  -2   5  11   41.89    3.55
  -2   5  11   35.74    3.24
  -2   5  10   25.35    2.79
  -2   5  10   32.47    3.25
  -2   5  10   26.79    2.93
  -2   5   9  398.47   12.54
  -2   5   9  361.88   12.03
  -2   5   8  608.44   16.36
  -2   5   8  581.97   14.78
   2  -5  -7  153.33    5.83
  -2   5   7  157.89    8.09
  -2   5   7  154.19    7.24
  -2   5   7  151.58    7.02
  -2   5   7  142.31    6.56
  -2   5   6 1152.67   24.37
  -2   5   6 1038.69   23.46
   2  -5  -6 1122.20   21.83
  -2   5   6  957.61   25.17
   2  -5  -6 1060.42   21.49
  -2   5   5   44.34    3.47
  -2   5   5   46.43    3.95
  -2   5   5   44.94    4.17
   2  -5  -5   41.44    2.86
   2  -5  -5   45.11    2.99
   2  -5  -4  449.72   11.49
  -2   5   4  527.11   15.46
  -2   5   4  537.52   15.68
  -2   5   4  404.66   13.44
   2  -5  -4  461.62   11.67
  -2   5   4  456.75   12.75
   2  -5  -3  177.80    6.28
  -2   5   3  186.67    9.15
   2  -5  -3  184.46    6.38
  -2   5   3  167.68    7.44
   2  -5  -2   63.41    3.46
  -2   5   2   58.28    5.28
  -2   5   2   59.23    3.99
  -2   5   2   67.29    5.61
   2  -5  -2   61.25    3.41
  -2   5   1  386.62   14.45
  -2   5   1  422.91   15.10
  -2   5   0   43.07    4.34
  -2   5   0   45.90    4.47
   2  -5   1  811.98   16.82
   2  -5   1  850.32   17.15
  -2   5  -2  829.21   21.82
   2  -5   2  813.51   17.32
   2  -5   2  836.57   16.92
   2  -5   2  844.49   17.04
  -2   5  -3   12.01    2.19
   2  -5   3   25.94    2.00
   2  -5   4    4.23    0.94
   2  -5   4    4.48    0.85
   2  -5   5    3.30    0.85
   2  -5   6  223.56    8.99
   2  -5   6  208.79    7.22
   2  -5   7   66.09    4.16
   2  -5   7   63.41    3.74
   2  -5   7   65.27    4.61
   2  -5   8   26.33    2.79
   2  -5   8   22.72    2.46
   2  -5   8   27.80    2.72
   2  -5   9  154.63    6.61
   2  -5   9  159.72    6.40
   2  -5  10   81.49    4.04
   2  -5  10   77.41    3.81
   2  -5  11  147.31    4.65
   2  -5  11  149.19    4.92
   2  -5  12    7.00    0.78
  -2   4  16   40.77    1.74
  -2   4  15  205.04    6.06
  -2   4  15  208.30    6.10
  -2   4  14    5.91    1.11
  -2   4  14    5.57    0.97
  -2   4  14    5.02    1.07
  -2   4  13  324.66   10.03
  -2   4  13  289.66    8.64
  -2   4  13  308.77    9.78
  -2   4  13  306.00    9.32
  -2   4  12  288.99   10.07
  -2   4  12  294.93   10.06
  -2   4  12  286.82   10.51
  -2   4  12  270.65    8.97
  -2   4  12  294.49    9.70
  -2   4  11  269.68   10.48
  -2   4  11  281.56    9.39
  -2   4  11  247.03    8.23
  -2   4  11  262.33    9.09
  -2   4  11  269.43    9.90
  -2   4  10  167.89    7.24
  -2   4  10  200.48    8.08
  -2   4  10  187.86    8.65
  -2   4  10  191.38    8.21
  -2   4   9  501.34   15.32
  -2   4   9  553.52   15.20
  -2   4   9  541.78   15.04
  -2   4   9  474.94   13.50
  -2   4   8  807.27   20.43
  -2   4   8  881.23   20.97
  -2   4   8  868.35   20.36
  -2   4   8  779.14   18.52
  -2   4   8  774.05   19.09
  -2   4   7  198.92    7.27
   2  -4  -7  187.84    6.05
  -2   4   7  196.37    7.70
   2  -4  -7  196.69    6.19
  -2   4   7  204.71    8.33
  -2   4   7  188.41    6.83
  -2   4   7  205.41    8.43
   2  -4  -6  319.42    8.53
  -2   4   6  346.09   12.32
  -2   4   6  313.96    9.90
  -2   4   6  337.54   10.99
   2  -4  -6  319.46    8.49
  -2   4   5 1097.92   26.97
   2  -4  -5 1143.26   21.83
   2  -4  -5 1152.22   21.84
  -2   4   5 1137.98   23.34
   2  -4  -4  463.51   11.26
  -2   4   4  475.25   12.22
   2  -4  -4  469.42   11.23
   2  -4  -3  446.04   10.98
   2  -4  -3  468.32   11.07
   2  -4  -2   13.14    1.46
   2  -4  -2   11.55    1.36
   2  -4  -1 1595.86   28.45
   2  -4  -1 1598.91   28.47
   2  -4   0    0.68    0.41
  -2   4   0    0.73    0.78
   2  -4   1  235.20    6.64
   2  -4   1  239.81    6.72
   2  -4   2  530.78   11.71
   2  -4   2  564.14   11.82
   2  -4   3  205.82    5.90
   2  -4   3  208.28    6.12
   2  -4   3  209.14    5.91
   2  -4   4  809.13   15.32
   2  -4   4  758.10   15.87
   2  -4   4  789.56   15.29
   2  -4   5   85.44    3.97
   2  -4   5   64.17    2.85
   2  -4   6  659.95   16.90
   2  -4   6  603.46   14.40
   2  -4   7   66.74    4.02
   2  -4   7   64.66    3.72
   2  -4   7   71.47    4.84
   2  -4   8  318.37   10.94
   2  -4   8  287.79    9.57
   2  -4   8  291.16    9.00
   2  -4   8  304.45    9.97
   2  -4   8  283.01    8.72
   2  -4   9  351.94   11.52
   2  -4   9  334.65    9.94
   2  -4   9  337.48   10.64
   2  -4  10    9.13    1.50
   2  -4  10    6.20    1.34
   2  -4  10    6.46    1.23
   2  -4  11  251.11    7.82
   2  -4  11  253.36    7.77
   2  -4  11  233.65    8.32
   2  -4  12   38.16    2.41
   2  -4  12   30.74    2.49
   2  -4  12   37.61    2.27
   2  -4  13   35.92    1.91
   2  -4  13   38.74    1.98
  -2   3  16  112.92    3.32
  -2   3  16  100.02    3.24
  -2   3  15  274.83    7.47
  -2   3  15  262.84    6.86
  -2   3  14   16.60    1.79
  -2   3  14   15.48    1.57
  -2   3  13   13.19    1.89
  -2   3  13   12.98    1.98
  -2   3  13   11.62    1.75
  -2   3  13   15.33    2.01
  -2   3  13   12.41    1.66
  -2   3  12   73.25    4.78
  -2   3  12   72.67    4.39
  -2   3  12   72.71    4.65
  -2   3  12   74.06    4.69
  -2   3  11  197.64    8.21
  -2   3  11  186.84    6.66
  -2   3  11  194.47    7.76
  -2   3  11  206.00    8.30
  -2   3  10  278.10   10.02
  -2   3  10  263.51    8.56
  -2   3  10  279.75   10.03
  -2   3  10  287.78    9.32
  -2   3   9   24.80    2.72
  -2   3   9   27.36    2.69
  -2   3   9   25.48    2.78
  -2   3   8  458.94   12.98
  -2   3   8  489.90   13.29
  -2   3   8  464.95   13.20
  -2   3   7   54.02    3.68
  -2   3   7   53.48    3.61
  -2   3   7   60.15    4.16
  -2   3   7   49.50    2.86
  -2   3   7   52.76    3.96
  -2   3   7   53.01    3.75
  -2   3   6  532.19   13.12
   2  -3  -6  512.68   11.24
  -2   3   6  540.04   12.27
   2  -3  -6  533.11   11.32
   2  -3  -5 1195.53   22.27
   2  -3  -5 1241.22   22.36
  -2   3   5 1251.06   23.93
  -2   3   4   20.34    1.87
   2  -3  -4   19.73    1.61
   2  -3  -3   17.02    1.52
   2  -3  -3   16.40    1.47
   2  -3  -2   29.17    1.96
   2  -3  -1 1894.44   31.59
  -2   3   1 1716.48   35.89
  -2   3   0 1144.20   25.33
   2  -3   1  875.65   16.39
   2  -3   1  865.32   16.44
   2  -3   2 1348.10   23.64
   2  -3   3   38.33    2.04
   2  -3   3   40.80    2.10
   2  -3   3   37.69    1.93
   2  -3   4  555.07   11.07
   2  -3   4  555.50   11.11
   2  -3   5  138.61    5.02
   2  -3   5  140.38    4.09
   2  -3   5  142.88    4.11
   2  -3   6  539.23   13.97
   2  -3   6  513.80   11.89
   2  -3   6  500.40   11.71
   2  -3   7  126.01    4.43
   2  -3   7  134.63    6.46
   2  -3   7  128.91    5.33
   2  -3   7  132.99    5.20
   2  -3   8  140.58    5.82
   2  -3   8  140.09    5.88
   2  -3   8  141.28    5.66
   2  -3   8  135.00    4.61
   2  -3   9  249.05    8.72
   2  -3   9  257.90    9.67
   2  -3   9  237.38    6.48
   2  -3   9  224.00    7.64
   2  -3   9  249.50    8.09
   2  -3   9  239.83    8.47
   2  -3  10    1.72    0.81
   2  -3  10    4.26    1.07
   2  -3  10    4.92    1.12
   2  -3  11  359.51   10.27
   2  -3  11  361.85   10.46
   2  -3  12   63.94    3.47
   2  -3  12   58.86    3.98
   2  -3  12   66.16    3.64
   2  -3  13  221.97    6.51
   2  -3  13  204.38    7.22
   2  -3  14   25.63    1.66
   2  -3  14   20.22    1.30
  -2   2  15  588.70   12.83
  -2   2  15  586.83   12.67
  -2   2  14  112.94    5.16
  -2   2  14  111.77    5.17
  -2   2  14  106.36    4.85
  -2   2  14  108.43    4.91
  -2   2  13   22.52    2.41
  -2   2  13   25.47    2.66
  -2   2  13   25.48    2.54
  -2   2  13   22.90    2.10
  -2   2  13   25.75    2.70
  -2   2  12  225.18    8.92
  -2   2  12  220.65    7.75
  -2   2  12  225.09    9.07
  -2   2  11  158.69    7.47
  -2   2  11  156.12    7.66
  -2   2  11  145.64    6.38
  -2   2  10  430.40   13.15
  -2   2  10  385.50   10.49
  -2   2  10  412.20   12.38
  -2   2  10  408.05   11.72
  -2   2  10  401.22   11.58
  -2   2  10  408.15   13.38
  -2   2   9   32.27    2.84
  -2   2   9   26.13    3.05
  -2   2   9   33.31    3.22
  -2   2   9   30.50    2.93
  -2   2   9   29.39    2.54
  -2   2   9   28.36    2.45
  -2   2   8  583.98   15.49
  -2   2   8  541.90   15.87
  -2   2   8  558.90   14.17
  -2   2   8  578.63   14.93
  -2   2   7   82.25    3.11
  -2   2   6  116.55    4.14
   2  -2  -6  121.53    3.76
   2  -2  -5  521.90   10.84
  -2   2   5  538.51   12.38
  -2   2   5  551.05   11.68
  -2   2   4   35.53    2.30
   2  -2  -4   34.04    1.94
  -2   2   4   32.93    2.16
   2  -2  -3  478.61   10.24
  -2   2   3  504.35   10.83
  -2   2   2    2.97    0.60
   2  -2  -2    4.52    0.71
   2  -2  -1  188.98    5.24
  -2   2   1  204.75    5.23
   2  -2   0  316.26    7.42
  -2   2   0  336.95    7.05
   2  -2   1  206.01    5.38
   2  -2   2  584.62   11.40
   2  -2   3  317.41    6.77
   2  -2   3  275.87    5.68
  -2   2  -4  134.00    5.25
   2  -2   4  126.47    3.69
   2  -2   5  439.55    8.66
  -2   2  -5  449.86   10.94
   2  -2   6  661.20   11.77
   2  -2   7  319.10    8.11
   2  -2   7  318.06    8.76
   2  -2   7  344.67   10.36
   2  -2   7  323.01    8.50
   2  -2   8   71.69    3.34
   2  -2   8   72.86    3.69
   2  -2   8   78.54    4.13
   2  -2   8   77.27    3.97
   2  -2   8   72.77    4.59
   2  -2   9  183.48    7.04
   2  -2   9  186.67    6.90
   2  -2   9  183.60    5.81
   2  -2   9  188.16    6.85
   2  -2   9  191.64    8.05
   2  -2   9  189.41    6.67
   2  -2  10    6.04    1.26
   2  -2  10    3.76    1.04
   2  -2  10    4.65    1.03
   2  -2  10    5.13    1.08
   2  -2  10    6.98    1.05
   2  -2  11  667.43   15.83
   2  -2  11  659.87   16.62
   2  -2  11  649.45   13.90
   2  -2  11  691.35   15.77
   2  -2  12  109.82    5.02
   2  -2  12  112.19    4.17
   2  -2  12  108.89    4.86
   2  -2  13   27.82    2.41
   2  -2  13   26.00    2.62
   2  -2  14   59.70    3.19
   2  -2  14   56.66    2.73
   2  -2  14   54.31    3.44
   2  -2  15    0.68    0.32
  -2   1  16    3.32    0.52
  -2   1  15  170.05    4.97
  -2   1  15  195.85    6.07
  -2   1  14   26.59    2.18
  -2   1  14   28.60    2.55
  -2   1  14   29.01    2.33
  -2   1  14   31.68    2.44
  -2   1  13  191.39    6.72
  -2   1  13  200.86    7.54
  -2   1  13  194.58    7.93
  -2   1  13  198.42    7.27
  -2   1  13  198.11    7.35
  -2   1  12  287.93    9.76
  -2   1  12  313.74   10.12
  -2   1  12  294.08   10.59
  -2   1  12  308.69   10.43
  -2   1  12  278.75    8.58
  -2   1  12  303.65    9.59
  -2   1  11   34.51    3.09
  -2   1  11   34.35    3.15
  -2   1  11   32.70    3.08
  -2   1  11   34.72    3.44
  -2   1  11   37.81    2.91
  -2   1  11   33.63    3.37
  -2   1  10  661.62   17.64
  -2   1  10  647.40   17.59
  -2   1  10  655.28   16.41
  -2   1  10  622.56   16.24
  -2   1  10  652.71   15.50
  -2   1  10  614.58   16.46
  -2   1   9   36.16    3.58
  -2   1   9   41.22    3.62
  -2   1   9   38.27    3.22
  -2   1   9   37.98    2.96
  -2   1   9   37.14    3.31
  -2   1   8  815.75   21.21
  -2   1   8  858.30   20.57
  -2   1   8  915.57   20.01
  -2   1   8  858.38   18.98
  -2   1   8  880.30   20.11
  -2   1   7 1449.01   30.50
  -2   1   6    1.99    0.79
  -2   1   6    2.34    0.47
   2  -1  -5 1643.76   27.52
  -2   1   5 1665.49   27.99
  -2   1   4   51.06    2.39
   2  -1  -4   48.73    2.19
   2  -1  -3  384.24    8.30
  -2   1   3  385.54    8.65
   2  -1  -2  580.63   11.45
  -2   1   2  591.85   11.48
  -2   1   2  568.99   11.86
   2  -1  -1   34.77    1.89
  -2   1   1   43.88    1.87
   2  -1   0 1576.15   26.60
  -2   1   0 1552.21   27.36
  -2   1  -1  437.73    9.94
   2  -1   2 3118.73   48.69
  -2   1  -2 2906.51   49.90
  -2   1  -3    0.53    0.32
   2  -1   3    0.61    0.27
   2  -1   4  215.84    5.06
  -2   1  -4  208.82    6.10
  -2   1  -5  132.57    4.48
   2  -1   5  139.60    3.58
   2  -1   6  637.44   11.12
   2  -1   7  387.56   10.03
   2  -1   8   95.31    4.45
   2  -1   8   85.37    4.01
   2  -1   8   81.75    3.61
   2  -1   8   83.85    3.69
   2  -1   9  917.71   18.15
   2  -1   9  932.07   19.65
   2  -1   9  947.32   19.31
   2  -1   9  910.61   18.65
   2  -1  10 1168.22   22.26
   2  -1  10 1179.90   23.15
   2  -1  10 1157.18   23.49
   2  -1  11  493.78   11.60
   2  -1  11  497.03   12.41
   2  -1  12  136.69    5.71
   2  -1  12  145.31    5.34
   2  -1  13   24.17    2.38
   2  -1  13   21.64    1.86
   2  -1  14  493.87   13.28
   2  -1  14  517.51   12.53
   2  -1  15   62.14    2.72
   2  -1  15   58.29    3.35
   2  -1  15   65.39    3.12
  -2   0  15  178.96    5.59
  -2   0  14  134.68    5.64
  -2   0  13    3.22    1.04
  -2   0  13    3.80    0.94
  -2   0  13    5.33    1.06
  -2   0  13    4.28    0.99
  -2   0  12  412.95   12.90
  -2   0  12  421.48   11.81
  -2   0  12  416.20   11.48
  -2   0  12  407.76   11.95
  -2   0  12  402.19   11.67
  -2   0  11  107.39    6.10
  -2   0  11  107.02    5.68
  -2   0  11   95.08    5.21
  -2   0  11   91.38    5.48
  -2   0  11   89.56    4.28
  -2   0  11   96.57    5.11
  -2   0  11   92.28    5.28
  -2   0  10  399.48   13.11
  -2   0  10  414.72   12.68
  -2   0  10  443.79   13.20
  -2   0  10  459.13   15.44
  -2   0  10  397.84   12.71
  -2   0  10  412.36   12.14
  -2   0  10  440.74   12.32
  -2   0  10  403.66   10.95
  -2   0   9   28.17    2.94
  -2   0   9   26.64    2.98
  -2   0   9   29.32    2.77
  -2   0   9   30.57    2.94
  -2   0   9   36.13    4.03
  -2   0   9   30.70    2.84
  -2   0   9   27.17    2.39
  -2   0   9   25.71    2.44
  -2   0   8  374.76   11.75
  -2   0   8  410.49   12.90
  -2   0   8  389.90   10.47
  -2   0   8  382.70   11.13
  -2   0   8  381.44   10.26
  -2   0   7   62.38    5.26
  -2   0   6    8.53    1.91
   2   0  -5 1258.00   22.31
  -2   0   5 1738.65   30.59
  -2   0   4   14.61    1.15
  -2   0   4    9.69    1.35
  -2   0   3  333.05    8.74
  -2   0   3  340.32    7.49
  -2   0   2 2361.21   41.76
  -2   0   2 2604.50   40.77
  -2   0   1 5624.15   89.76
  -2   0   1 5782.90   89.51
  -2   0   0 2841.01   45.63
  -2   0  -1 1601.91   26.57
  -2   0  -1 1711.62   28.02
  -2   0  -2    2.88    0.56
  -2   0  -3   14.43    1.23
  -2   0  -4  777.86   14.82
   2   0   5 1456.84   23.83
  -2   0  -5 1375.03   24.57
   2   0   6  541.51    9.81
   2   0   7  971.90   19.35
   2   0   8  213.63    7.00
   2   0   9  214.28    6.51
   2   0   9  231.23    7.49
   2   0   9  211.50    5.89
   2   0   9  218.37    6.90
   2   0   9  215.49    6.43
   2   0  10  832.78   16.14
   2   0  10  832.07   18.40
   2   0  10  863.44   17.40
   2   0  10  843.57   18.07
   2   0  10  861.48   17.52
   2   0  11   21.78    1.67
   2   0  11   21.01    1.98
   2   0  11   18.86    2.08
   2   0  12    5.62    1.09
   2   0  12    5.54    1.22
   2   0  13   38.19    3.08
   2   0  13   33.03    2.52
   2   0  14  351.48    9.97
   2   0  14  346.52    9.11
   2   0  14  341.47   10.52
   2   0  15   92.49    4.00
   2   0  15   82.31    4.24
   2   0  15   85.90    3.49
   2   0  15   93.50    4.03
   2   0  16   34.80    1.84
   2   0  16   39.59    2.01
  -2  -1  14  163.55    5.14
  -2  -1  13   29.44    2.50
  -2  -1  12   11.63    1.46
  -2  -1  12   11.38    1.77
  -2  -1  12   11.61    1.88
  -2  -1  12   10.92    1.60
  -2  -1  11   14.09    2.19
  -2  -1  11   13.05    1.73
  -2  -1  11   15.16    1.82
  -2  -1  11   14.18    1.94
  -2  -1  11   15.15    2.23
  -2  -1  11   16.04    2.22
  -2  -1  10  456.46   12.19
  -2  -1  10  468.89   12.67
  -2  -1  10  428.42   13.48
  -2  -1  10  447.72   12.64
  -2  -1  10  466.69   16.28
  -2  -1  10  435.27   12.59
  -2  -1  10  447.10   13.86
  -2  -1   9  136.46    6.89
  -2  -1   9  145.60    6.42
  -2  -1   9  165.39    6.55
  -2  -1   9  146.80    7.22
  -2  -1   9  162.98    6.92
  -2  -1   9  151.49    8.86
  -2  -1   9  149.62    7.09
  -2  -1   9  157.24    6.43
  -2  -1   8  103.94    4.99
  -2  -1   8   89.00    5.44
  -2  -1   8   93.63    5.09
  -2  -1   8   95.39    4.93
  -2  -1   8   90.17    4.25
  -2  -1   8   98.92    5.45
  -2  -1   8   83.30    5.18
  -2  -1   8   93.92    4.56
  -2  -1   7  523.17   14.78
  -2  -1   7  541.49   15.25
  -2  -1   7  580.54   14.50
  -2  -1   7  608.52   13.32
  -2  -1   7  586.28   15.29
  -2  -1   7  584.98   13.28
  -2  -1   7  584.15   14.15
  -2  -1   7  570.11   14.96
  -2  -1   6    6.90    1.38
  -2  -1   4  260.17   10.30
  -2  -1   3  107.50    4.45
  -2  -1   2  324.60    8.27
  -2  -1   1  516.20   10.83
   2   1   0 9999.00  152.64
  -2  -1  -1 1671.72   28.55
   2   1   1 1770.73   27.89
   2   1   2  101.81    3.03
  -2  -1  -2   93.28    2.79
  -2  -1  -3  614.58   11.31
   2   1   3  734.53   12.66
   2   1   4  188.80    5.00
  -2  -1  -4  147.89    3.36
   2   1   5 1137.85   19.76
   2   1   5 1015.63   17.87
   2   1   6    6.40    0.97
   2   1   6    5.99    0.71
   2   1   7  361.54    8.00
   2   1   8   71.02    3.72
   2   1   9  201.53    5.86
   2   1   9  206.47    7.10
   2   1   9  203.08    6.39
   2   1  10  279.24    7.37
   2   1  10  277.65    8.11
   2   1  11  404.20    9.72
   2   1  11  426.30   11.07
   2   1  11  404.87   10.63
   2   1  12  112.23    5.39
   2   1  12  117.66    4.47
   2   1  12  123.91    5.57
   2   1  12  113.61    5.10
   2   1  13   13.19    1.81
   2   1  13   11.46    1.29
   2   1  13   13.04    1.68
   2   1  14  128.21    5.43
   2   1  14  123.95    5.73
   2   1  14  118.76    5.08
   2   1  15   68.41    3.81
   2   1  15   65.74    3.37
   2   1  15   67.66    3.42
   2   1  16  271.09    7.22
  -2  -2  14  160.29    4.85
  -2  -2  14  147.56    4.41
  -2  -2  13   49.47    3.10
  -2  -2  13   49.19    3.01
  -2  -2  12  134.22    6.04
  -2  -2  12  138.69    6.08
  -2  -2  12  136.01    6.25
  -2  -2  11   10.60    1.82
  -2  -2  11    9.21    1.69
  -2  -2  11   11.64    1.92
  -2  -2  10 1358.55   29.56
  -2  -2  10 1402.08   29.56
  -2  -2  10 1383.67   32.97
  -2  -2  10 1401.97   28.55
  -2  -2   9  128.28    6.65
  -2  -2   9  139.26    6.52
  -2  -2   9  126.19    6.63
  -2  -2   9  135.62    8.35
  -2  -2   9  126.37    5.90
  -2  -2   9  121.04    6.56
  -2  -2   9  130.72    6.01
  -2  -2   8   22.14    2.66
  -2  -2   8   20.80    2.61
  -2  -2   8   29.89    2.63
  -2  -2   8   24.73    2.67
  -2  -2   8   29.33    3.88
  -2  -2   8   21.89    2.38
  -2  -2   8   20.94    2.65
  -2  -2   8   22.52    2.40
  -2  -2   8   25.05    2.91
  -2  -2   8   24.37    1.92
  -2  -2   7  746.61   18.85
  -2  -2   7  774.29   17.29
  -2  -2   7  794.07   18.58
  -2  -2   7  842.79   17.27
  -2  -2   7  847.79   24.10
  -2  -2   7  751.05   19.37
  -2  -2   7  824.35   16.07
  -2  -2   7  781.89   19.47
  -2  -2   7  807.79   18.11
  -2  -2   7  754.98   17.57
  -2  -2   6  306.22    8.76
  -2  -2   6  317.34    9.83
  -2  -2   6  315.39    8.71
  -2  -2   6  310.04   14.10
  -2  -2   6  319.10   10.46
  -2  -2   5  983.00   27.40
  -2  -2   5  934.04   20.72
  -2  -2   4  296.85   12.27
  -2  -2   3 1402.22   30.20
  -2  -2   2  403.77    9.91
  -2  -2   1    6.61    0.98
  -2  -2   0 1121.70   20.54
  -2  -2  -1  433.28   10.52
  -2  -2  -1  432.19    9.45
  -2  -2  -2  107.63    3.71
  -2  -2  -2  128.41    4.80
  -2  -2  -3  671.00   14.82
   2   2   3  725.51   13.37
   2   2   4   24.85    1.68
   2   2   5 1234.49   22.52
   2   2   6 1353.63   24.86
   2   2   7 1365.21   22.49
   2   2   7 1333.48   25.25
   2   2   7 1318.38   23.96
   2   2   8  266.12    7.25
   2   2   9  264.00    7.16
   2   2   9  266.22    7.53
   2   2   9  256.06    7.18
   2   2   9  269.06    7.57
   2   2  10  606.10   13.67
   2   2  10  593.42   12.97
   2   2  10  611.66   13.34
   2   2  10  576.13   13.92
   2   2  11  122.77    4.74
   2   2  11  116.55    4.94
   2   2  11  113.62    5.14
   2   2  11  123.74    5.25
   2   2  12  714.17   16.24
   2   2  12  691.19   16.26
   2   2  12  742.11   16.50
   2   2  12  700.90   16.17
   2   2  13   20.63    2.14
   2   2  13   21.06    1.90
   2   2  13   19.81    2.03
   2   2  14  193.91    6.61
   2   2  14  200.91    6.17
   2   2  14  197.41    7.14
   2   2  15  167.50    6.36
   2   2  16  106.63    4.32
  -2  -3  13    9.06    1.04
  -2  -3  13   10.83    1.22
  -2  -3  12  137.53    5.57
  -2  -3  12  132.23    5.19
  -2  -3  12  131.73    5.63
  -2  -3  11  401.47   12.00
  -2  -3  11  406.22   11.39
  -2  -3  11  406.98   11.86
  -2  -3  10  272.71    9.52
  -2  -3  10  278.55   10.10
  -2  -3  10  281.28    9.60
  -2  -3  10  279.47   10.05
  -2  -3   9   97.66    5.78
  -2  -3   9  102.59    5.69
  -2  -3   9  108.57    5.73
  -2  -3   9  101.71    5.33
  -2  -3   8   46.34    3.94
  -2  -3   8   47.80    3.90
  -2  -3   8   50.39    3.88
  -2  -3   8   43.88    4.79
  -2  -3   8   40.87    3.74
  -2  -3   8   46.81    3.57
  -2  -3   8   47.05    3.47
  -2  -3   7  500.69   14.42
  -2  -3   7  506.72   14.20
  -2  -3   7  476.94   17.48
  -2  -3   7  517.18   15.05
  -2  -3   7  499.12   11.85
  -2  -3   7  502.17   12.99
  -2  -3   7  470.46   14.42
  -2  -3   7  499.53   13.43
  -2  -3   6  171.29    7.62
  -2  -3   6  191.67    7.17
  -2  -3   6  200.18    8.29
  -2  -3   6  188.67    6.88
  -2  -3   6  170.74   10.04
  -2  -3   6  177.69    7.89
  -2  -3   6  189.15    7.64
  -2  -3   6  192.95    6.23
  -2  -3   6  192.39    6.55
  -2  -3   6  194.49    5.95
  -2  -3   5   64.48    3.62
  -2  -3   5   51.85    3.91
  -2  -3   5   54.91    3.77
  -2  -3   5   58.26    3.26
  -2  -3   5   53.56    5.47
  -2  -3   5   59.81    4.08
  -2  -3   5   49.83    2.90
  -2  -3   5   53.59    3.14
  -2  -3   5   54.94    4.28
  -2  -3   4  195.54   10.12
  -2  -3   4  196.32    7.48
   2   3  -4  223.47    5.87
   2   3  -3  135.67    4.45
  -2  -3   3  123.03    7.00
  -2  -3   2  557.72   13.70
  -2  -3   2  644.38   13.88
  -2  -3   1  209.38    6.75
  -2  -3   1  229.06    7.42
  -2  -3   0 1268.46   24.47
  -2  -3   0 1424.56   26.93
  -2  -3  -1  242.49    6.92
  -2  -3  -2  243.77    7.01
  -2  -3  -2  257.55    9.05
  -2  -3  -3  256.92    8.92
  -2  -3  -4   27.54    2.54
  -2  -3  -5 1070.74   22.25
   2   3   6    3.88    0.66
   2   3   7  449.86    9.40
   2   3   8  512.81   11.45
   2   3   8  499.00   10.00
   2   3   9  137.19    4.55
   2   3   9  145.13    5.59
   2   3   9  135.54    4.70
   2   3   9  141.59    5.28
   2   3  10  630.84   13.86
   2   3  10  637.16   13.29
   2   3  10  617.95   13.11
   2   3  10  624.41   14.64
   2   3  10  618.75   14.32
   2   3  11   13.99    1.61
   2   3  11   14.64    1.47
   2   3  11   11.94    1.73
   2   3  11   13.20    1.74
   2   3  12  228.01    8.04
   2   3  12  225.52    6.58
   2   3  12  230.74    7.99
   2   3  13   11.11    1.49
   2   3  13   16.08    1.94
   2   3  13   14.33    1.86
   2   3  14  387.92   11.21
   2   3  14  377.36    9.79
   2   3  14  390.93   10.79
   2   3  15  191.67    5.89
   2   3  15  205.60    7.10
   2   3  15  199.05    6.82
   2   3  16   91.37    3.98
   2   3  17   77.87    2.84
  -2  -4  12   97.55    3.92
  -2  -4  11  200.98    7.02
  -2  -4  10  116.87    5.74
  -2  -4  10  106.98    4.86
  -2  -4  10  120.92    5.51
  -2  -4   9  272.27    9.87
  -2  -4   9  282.74    9.17
  -2  -4   9  252.81    8.92
  -2  -4   9  287.78    9.49
  -2  -4   9  284.44    9.30
  -2  -4   8   16.60    2.39
  -2  -4   8   19.78    2.33
  -2  -4   8   19.36    2.40
  -2  -4   8   13.22    2.12
  -2  -4   8   16.47    2.14
  -2  -4   8   20.38    2.29
  -2  -4   7  244.42    8.91
  -2  -4   7  245.17    9.26
  -2  -4   7  250.69    8.51
  -2  -4   7  235.85    9.49
  -2  -4   7  226.46    9.47
  -2  -4   7  227.33    8.65
  -2  -4   7  228.71    9.30
  -2  -4   6  309.67   11.04
  -2  -4   6  311.47   10.33
  -2  -4   6  353.44   11.02
  -2  -4   6  331.89   11.08
  -2  -4   6  308.05   11.24
  -2  -4   6  340.36   10.10
  -2  -4   5  679.15   15.53
  -2  -4   5  580.18   16.48
  -2  -4   5  622.61   16.37
  -2  -4   5  650.62   14.44
  -2  -4   5  616.32   16.75
  -2  -4   4  228.19    9.23
  -2  -4   4  267.66    7.97
  -2  -4   4  271.62    7.91
  -2  -4   4  244.15    9.08
  -2  -4   4  285.01    8.70
  -2  -4   4  269.27    8.23
  -2  -4   4  284.41   10.54
   2   4  -4  285.54    7.38
  -2  -4   3  151.05    6.10
  -2  -4   3  141.60    6.33
   2   4  -3  161.92    5.25
  -2  -4   3  160.64    6.10
  -2  -4   3  155.38    5.80
  -2  -4   3  148.87    6.66
   2   4  -2  935.98   18.95
  -2  -4   2 1022.23   20.97
   2   4  -1    7.61    1.10
  -2  -4   1    6.36    1.23
  -2  -4   1    6.40    1.31
  -2  -4   0 1471.56   28.53
   2   4   0 1460.64   27.20
   2   4   1  218.91    6.58
  -2  -4  -1  222.98    7.29
  -2  -4  -2    4.87    1.05
   2   4   2    5.50    0.93
  -2  -4  -3   65.37    5.27
  -2  -4  -4   68.22    5.07
   2   4   4   71.62    3.32
   2   4   5 1069.25   19.78
  -2  -4  -5  974.00   23.51
  -2  -4  -6   25.84    2.81
   2   4   6   23.18    1.77
   2   4   7  223.35    6.59
  -2  -4  -7  241.09    8.77
   2   4   7  226.08    6.18
   2   4   8   39.76    2.56
   2   4   8   37.85    2.15
   2   4   8   38.31    2.48
   2   4   8   41.41    2.67
   2   4   9  187.39    6.93
   2   4   9  174.64    6.10
   2   4   9  173.45    5.83
   2   4   9  185.03    6.41
   2   4  10  492.05   12.49
   2   4  10  474.50   12.87
   2   4  10  490.29   11.56
   2   4  11  135.16    6.18
   2   4  11  145.68    5.31
   2   4  11  140.48    6.17
   2   4  11  141.20    6.01
   2   4  12  144.43    6.49
   2   4  12  151.70    6.34
   2   4  12  147.33    5.39
   2   4  12  137.24    6.30
   2   4  13   37.18    2.49
   2   4  13   41.93    3.33
   2   4  13   43.39    3.04
   2   4  13   38.26    3.09
   2   4  13   40.67    3.14
   2   4  14   50.26    3.47
   2   4  14   54.15    3.25
   2   4  14   48.89    3.35
   2   4  14   44.98    3.13
   2   4  15  677.96   14.08
   2   4  15  634.02   14.71
   2   4  15  641.05   13.93
   2   4  16    0.80    0.42
  -2  -5  11  100.45    3.86
  -2  -5  10  103.23    4.61
  -2  -5   9  222.48    7.57
  -2  -5   9  230.29    7.50
  -2  -5   9  229.63    8.05
  -2  -5   8   26.71    2.58
  -2  -5   8   32.27    2.87
  -2  -5   8   31.84    3.01
  -2  -5   8   29.92    2.64
  -2  -5   8   29.15    2.87
  -2  -5   7  244.71    9.38
  -2  -5   7  241.18    8.79
  -2  -5   7  246.15    9.36
  -2  -5   7  252.02    9.22
  -2  -5   7  256.99    8.56
  -2  -5   6  179.21    8.00
  -2  -5   6  181.42    7.63
  -2  -5   6  208.74    8.57
  -2  -5   6  187.30    8.06
  -2  -5   6  187.09    8.46
  -2  -5   6  189.43    7.21
  -2  -5   5  439.70   13.61
  -2  -5   5  421.05   13.23
  -2  -5   5  460.35   12.30
  -2  -5   5  436.08   13.80
  -2  -5   5  481.15   14.12
  -2  -5   4  327.87   11.29
  -2  -5   4  316.78   11.22
  -2  -5   3    1.49    0.83
  -2  -5   3    1.89    0.85
   2   5  -3    2.56    0.78
  -2  -5   3    2.86    0.97
  -2  -5   3    0.83    0.49
  -2  -5   3    2.97    0.87
  -2  -5   2  381.11   12.20
  -2  -5   2  362.52   11.68
   2   5  -2  379.50    9.90
  -2  -5   2  364.11   11.17
  -2  -5   2  332.63   11.17
  -2  -5   2  345.61   10.43
  -2  -5   2  371.51   10.43
   2   5  -1  122.76    4.92
  -2  -5   1  123.04    6.19
  -2  -5   1  104.40    5.71
  -2  -5   1  112.20    5.16
  -2  -5   0  733.81   17.89
   2   5   0  751.17   16.20
   2   5   1 1027.33   21.39
  -2  -5  -1 1061.03   23.77
  -2  -5  -2  298.91    9.47
   2   5   2  295.95    8.36
  -2  -5  -3  485.36   13.54
  -2  -5  -3  508.56   17.61
  -2  -5  -4    9.33    2.23
   2   5   4    7.95    1.15
   2   5   4   10.31    1.34
   2   5   5  748.81   15.64
   2   5   5  776.00   15.91
   2   5   6    8.59    1.20
  -2  -5  -6    7.24    1.76
   2   5   6   10.21    1.31
   2   5   7  718.33   15.16
  -2  -5  -7  760.64   19.85
   2   5   7  710.60   15.50
   2   5   8 1406.14   25.76
   2   5   9    1.01    0.52
   2   5   9    1.13    0.52
   2   5  10  430.20   11.83
   2   5  10  444.25   12.08
   2   5  10  450.36   12.93
   2   5  10  468.55   12.10
   2   5  10  477.66   11.59
   2   5  11   13.65    1.78
   2   5  11   14.31    1.69
   2   5  11   17.37    2.08
   2   5  11   12.16    1.86
   2   5  11   12.87    1.78
   2   5  12  776.69   17.85
   2   5  12  777.18   17.65
   2   5  12  791.78   16.81
   2   5  12  787.67   18.48
   2   5  12  741.31   17.55
   2   5  13   17.02    2.00
   2   5  13   14.97    1.66
   2   5  14   30.35    2.46
   2   5  14   32.11    2.62
   2   5  15  226.04    6.65
   2   5  15  224.55    6.65
   2   5  15  206.25    6.36
   2   5  16    2.77    0.53
   2   5  16    1.19    0.35
  -2  -6  10    5.97    0.77
  -2  -6   9   76.96    3.56
  -2  -6   9   78.76    3.43
  -2  -6   8    3.82    0.87
  -2  -6   8    4.78    0.96
  -2  -6   8    4.08    0.97
  -2  -6   8    4.02    0.88
  -2  -6   8    4.23    0.95
  -2  -6   7   64.00    4.02
  -2  -6   7   66.58    3.96
  -2  -6   7   62.92    3.88
  -2  -6   7   66.20    3.67
  -2  -6   7   59.02    3.68
  -2  -6   6  236.03    8.70
  -2  -6   6  216.49    8.34
  -2  -6   6  216.59    8.11
  -2  -6   6  218.76    7.50
  -2  -6   5   22.95    2.65
  -2  -6   5   26.21    2.84
  -2  -6   5   24.46    2.34
  -2  -6   5   21.34    2.50
  -2  -6   4    7.13    1.30
  -2  -6   4    6.34    1.45
  -2  -6   4    5.85    1.45
  -2  -6   4    6.47    1.44
  -2  -6   3   74.26    4.20
  -2  -6   3   78.68    4.49
  -2  -6   3   64.58    4.67
  -2  -6   2 1035.42   21.34
  -2  -6   2 1044.16   23.25
  -2  -6   2  926.30   22.74
  -2  -6   2  918.27   21.98
   2   6  -2 1004.73   21.03
  -2  -6   2 1010.64   21.44
  -2  -6   2  955.06   23.30
  -2  -6   1   86.29    5.51
  -2  -6   1   93.12    5.59
  -2  -6   1   92.65    4.86
   2   6  -1   93.66    4.77
  -2  -6   1   90.69    4.81
  -2  -6   0   61.30    4.56
  -2  -6   0   62.70    4.76
   2   6   0   60.41    3.76
   2   6   1  186.88    6.82
  -2  -6  -1  159.72    7.41
  -2  -6  -1  182.39    8.76
  -2  -6  -1  173.92    6.94
  -2  -6  -2  119.87    6.19
  -2  -6  -2  113.33    6.39
   2   6   2  126.63    5.49
  -2  -6  -3  215.14    8.45
  -2  -6  -3  192.38    8.51
  -2  -6  -3  207.78   10.36
   2   6   3  209.26    7.26
   2   6   3  193.25    6.24
  -2  -6  -4  175.70    8.19
  -2  -6  -4  181.80    9.82
   2   6   4  177.34    6.03
   2   6   5  850.64   18.00
  -2  -6  -5  790.65   23.11
   2   6   5  797.55   17.04
   2   6   6   71.16    3.75
  -2  -6  -6   65.46    5.62
   2   6   6   74.50    3.81
   2   6   6   70.64    3.90
   2   6   7  679.79   15.29
   2   6   7  661.64   14.97
   2   6   7  671.59   15.19
   2   6   8  523.12   13.12
  -2  -6  -8  508.06   16.19
   2   6   8  536.82   12.86
   2   6   8  496.94   12.41
   2   6   9  133.67    5.84
   2   6   9  131.43    5.47
   2   6  10    4.62    1.11
   2   6  10    3.92    1.11
   2   6  11    0.86    0.59
   2   6  11    0.76    0.58
   2   6  12  328.30    9.89
   2   6  12  331.47    9.41
   2   6  13  245.54    8.04
   2   6  13  261.40    7.69
   2   6  13  251.27    8.36
   2   6  14    1.26    0.61
   2   6  14    0.55    0.44
   2   6  14    1.28    0.52
   2   6  15   83.53    3.49
  -2  -7   8   17.64    1.28
  -2  -7   7  195.18    5.66
  -2  -7   7  172.70    5.50
  -2  -7   6  292.64    8.49
  -2  -7   6  297.91    8.40
  -2  -7   6  270.56    8.17
  -2  -7   6  286.24    7.65
  -2  -7   5  115.90    5.35
  -2  -7   5  124.48    5.69
  -2  -7   5  116.85    4.67
  -2  -7   4  120.55    5.91
  -2  -7   4  118.64    5.56
  -2  -7   4  116.89    4.84
  -2  -7   3    7.03    1.18
  -2  -7   3    7.20    1.42
  -2  -7   2  816.83   20.73
  -2  -7   2  806.80   17.69
  -2  -7   1  904.30   22.32
  -2  -7   1  927.62   19.31
   2   7  -1  958.82   20.79
  -2  -7   1  857.36   21.65
  -2  -7   1  855.24   21.29
  -2  -7   1  951.66   20.32
  -2  -7   0    6.17    1.18
  -2  -7   0    4.84    1.40
  -2  -7   0    5.33    1.19
   2   7   0    6.04    1.35
  -2  -7   0    4.53    1.41
  -2  -7  -1  618.57   14.98
  -2  -7  -1  648.78   18.44
   2   7   1  616.27   15.89
  -2  -7  -1  639.56   15.50
  -2  -7  -2   21.23    2.73
  -2  -7  -2   23.86    3.24
   2   7   2   21.14    2.43
  -2  -7  -2   23.53    2.39
  -2  -7  -3  264.38   10.57
  -2  -7  -3  251.33    9.97
  -2  -7  -3  264.66   11.67
  -2  -7  -3  252.86    8.64
   2   7   3  271.47    9.19
  -2  -7  -4  160.22    7.58
  -2  -7  -4  153.76    8.94
  -2  -7  -4  153.88    7.86
   2   7   4  155.19    5.75
  -2  -7  -4  149.21    6.37
  -2  -7  -5   57.87    4.75
  -2  -7  -5   56.02    4.42
  -2  -7  -5   57.36    5.40
   2   7   5   57.19    3.84
   2   7   5   55.03    3.36
  -2  -7  -5   52.86    3.64
  -2  -7  -6  793.64   20.38
   2   7   6  794.60   18.07
  -2  -7  -6  730.90   22.12
   2   7   6  759.95   16.95
  -2  -7  -7    8.28    1.83
   2   7   7    8.73    1.48
  -2  -7  -7    9.55    2.15
   2   7   7    7.80    1.36
   2   7   8  320.86    9.39
   2   7   8  297.61    9.13
   2   7   8  295.86    9.25
  -2  -7  -8  283.33   11.15
   2   7   9  196.99    7.26
   2   7   9  192.90    6.84
   2   7   9  214.89    7.40
   2   7  10  478.99   12.68
   2   7  10  508.24   12.79
   2   7  11   46.27    3.21
   2   7  11   45.76    3.38
   2   7  12  126.98    5.35
   2   7  12  140.13    5.44
   2   7  12  136.90    5.81
   2   7  13  144.61    5.20
   2   7  13  145.79    5.58
   2   7  14   22.61    1.65
   2   7  15  280.60    6.45
  -2  -8   5    5.84    0.89
  -2  -8   5    9.19    1.12
  -2  -8   4  387.44    9.96
  -2  -8   4  408.94   10.29
  -2  -8   3   20.16    2.11
   2   8  -2   87.67    4.22
   2   8  -1   65.52    3.99
  -2  -8   0   36.34    3.38
   2   8   0   37.71    3.13
  -2  -8  -1   93.38    5.64
  -2  -8  -2    7.85    1.33
  -2  -8  -3  119.90    5.16
  -2  -8  -4    1.05    0.83
  -2  -8  -4    1.15    0.60
  -2  -8  -5  413.03   13.66
  -2  -8  -5  433.35   10.85
   2   8   5  427.64   10.88
   2   8   6  308.25    8.99
  -2  -8  -6  317.42   11.49
  -2  -8  -7  192.38    8.56
   2   8   7  185.60    6.69
  -2  -8  -8   24.67    2.91
   2   8   8   25.14    2.39
   2   8   8   27.60    2.41
   2   8   9   12.15    1.54
  -2  -8  -9   12.80    2.04
   2   8   9   11.80    1.58
  -2  -8 -10  235.80    8.44
   2   8  10  225.12    7.31
   2   8  10  220.31    7.53
   2   8  11   82.35    3.93
   2   8  11   78.32    3.97
   2   8  12  101.38    4.12
   2   8  12   97.71    4.14
   2   8  13  163.60    5.04
  -2  -9   3   59.13    2.40
  -2  -9   3   48.22    2.15
  -2  -9   2   22.01    1.74
  -2  -9   2   19.79    1.59
  -2  -9   1  346.69    8.81
   2   9  -1  282.56    7.26
   2   9   0   14.54    1.63
   2   9   1  223.66    7.40
  -2  -9  -2    1.45    0.73
   2   9   2    1.93    0.74
   2   9   3  164.81    6.59
   2   9   4   71.57    4.20
  -2  -9  -5   54.74    3.84
  -2  -9  -6  328.12   10.28
   2   9   6  313.53    9.46
  -2  -9  -7    6.13    1.29
   2   9   7    5.11    0.86
   2   9   7    3.86    0.94
   2   9   8  156.00    5.59
   2   9   8  161.14    5.27
   2   9   8  164.79    5.41
  -2  -9  -8  173.58    6.63
  -2  -9  -9  140.85    5.47
   2   9   9  128.71    4.60
   2   9   9  139.27    4.70
   2   9  10   57.00    2.75
   2   9  10   58.75    2.73
   2   9  11   41.38    2.12
   2   9  11   39.05    1.98
  -2 -10  -2    6.87    0.87
   2  10   3  139.28    4.46
   2  10   4  262.41    6.90
  -2 -10  -5   24.37    1.83
   2  10   6  247.81    6.50
  -2 -10  -6  260.77    6.79
   2  10   7    5.47    0.74
  -2 -10  -7    6.84    0.86
  -3   9   7   33.47    1.88
  -3   9   6   17.24    1.46
  -3   9   5  166.03    5.59
  -3   9   3  121.22    5.01
  -3   9   2   21.21    1.97
  -3   9   1  232.76    6.85
  -3   8  10  209.37    5.58
  -3   8   7  237.99    7.72
  -3   8   6   40.15    3.26
   3  -8  -6   35.66    2.67
  -3   8   5  440.13   13.01
   3  -8  -5  402.96   10.96
   3  -8  -4    6.07    1.19
   3  -8  -4    7.58    1.32
  -3   8   3  263.62   10.34
   3  -8  -3  253.96    8.17
  -3   8   2   92.13    5.81
   3  -8  -1  198.02    6.82
  -3   8   1  209.60    8.90
   3  -8   0  463.00   11.50
  -3   8   0  504.10   14.28
  -3   8  -1  118.70    5.78
   3  -8   1  105.05    4.35
  -3   8  -2  193.99    6.78
   3  -8   3   38.25    2.34
   3  -8   4  363.77    8.37
   3  -8   5  136.09    3.89
  -3   7  12  137.20    4.26
  -3   7  11   18.76    1.69
  -3   7  11   17.54    1.53
  -3   7  10  265.36    8.02
  -3   7   9   50.09    3.39
  -3   7   8    3.63    0.93
  -3   7   8    3.83    1.04
  -3   7   7   47.22    3.70
  -3   7   7   44.44    3.33
   3  -7  -7   44.87    3.15
  -3   7   6   77.56    5.27
   3  -7  -6   83.06    4.47
   3  -7  -5  555.40   14.15
  -3   7   5  600.47   17.65
  -3   7   4    2.57    1.20
   3  -7  -4    2.09    0.76
   3  -7  -3   12.96    1.77
   3  -7  -2    6.38    1.24
  -3   7   2    5.88    1.82
  -3   7   1  217.06   10.62
   3  -7  -1  180.86    5.61
   3  -7   0  422.59   11.09
  -3   7   0  417.23   15.03
  -3   7  -1   13.43    2.44
   3  -7   1   12.96    1.41
   3  -7   1   13.02    1.65
   3  -7   2  115.48    4.45
  -3   7  -2  130.22    7.08
   3  -7   2  118.96    4.95
  -3   7  -3   77.25    4.89
   3  -7   3   77.26    3.53
   3  -7   3   76.53    3.66
   3  -7   4   72.33    3.36
   3  -7   5  340.37    8.41
   3  -7   6   78.57    3.22
   3  -7   7  112.10    4.00
   3  -7   7  105.57    3.51
  -3   6  13   11.19    0.98
  -3   6  13   15.81    1.41
  -3   6  12  163.17    5.24
  -3   6  12  192.45    6.32
  -3   6  11   60.88    3.35
  -3   6  11   65.90    3.54
  -3   6  11   70.62    4.09
  -3   6  10  234.72    7.82
  -3   6  10  269.46    9.31
  -3   6   9   39.73    3.58
  -3   6   8   45.83    3.45
  -3   6   8   49.76    4.19
  -3   6   7  134.34    6.76
  -3   6   7  138.81    7.39
   3  -6  -7  146.14    5.88
  -3   6   6   15.39    2.50
  -3   6   6   15.52    2.42
  -3   6   6   20.01    2.78
  -3   6   6   14.71    2.23
   3  -6  -6   18.25    2.02
   3  -6  -5  646.57   15.16
  -3   6   5  668.24   19.35
  -3   6   5  684.43   19.42
  -3   6   4   51.88    5.15
  -3   6   4   52.74    5.21
   3  -6  -4   47.46    3.34
   3  -6  -4   50.12    3.47
   3  -6  -3  135.78    5.78
   3  -6  -3  124.20    5.64
   3  -6  -2  498.55   12.87
  -3   6   2  493.23   18.90
   3  -6  -2  517.40   13.12
  -3   6   1   35.66    4.64
  -3   6   0 1128.18   30.88
  -3   6   0 1143.09   30.87
   3  -6   0 1185.51   23.65
   3  -6   0 1214.04   23.90
  -3   6  -1    9.71    2.31
  -3   6  -1   11.13    2.50
   3  -6   1   11.91    1.58
   3  -6   1   11.73    1.58
  -3   6  -2  263.75   11.94
  -3   6  -2  264.53   11.61
   3  -6   2  244.92    7.68
   3  -6   3  636.01   14.67
   3  -6   3  653.39   14.49
   3  -6   4  138.09    6.30
  -3   6  -4  143.81    7.29
   3  -6   4  138.90    5.38
   3  -6   4  127.62    4.92
   3  -6   5  216.06    7.88
   3  -6   5  214.20    6.97
   3  -6   6   58.91    3.66
   3  -6   6   59.17    3.32
   3  -6   7  235.00    7.74
   3  -6   7  236.21    7.06
   3  -6   8   96.79    4.25
   3  -6   8   90.12    3.81
   3  -6   9   33.03    2.05
   3  -6   9   26.19    1.54
  -3   5  14   32.53    1.82
  -3   5  14   34.16    1.91
  -3   5  14   37.59    2.02
  -3   5  13   98.81    4.16
  -3   5  13   97.70    4.10
  -3   5  12  379.67   10.53
  -3   5  12  399.27   11.04
  -3   5  12  395.35   10.75
  -3   5  11   26.94    2.63
  -3   5  11   35.53    3.04
  -3   5  11   30.36    2.55
  -3   5  11   36.62    3.20
  -3   5  10  423.09   12.58
  -3   5  10  454.35   13.43
  -3   5   9   47.05    3.81
  -3   5   9   49.40    4.09
  -3   5   8  286.89    9.98
  -3   5   8  325.16   11.48
  -3   5   8  310.87    9.75
  -3   5   7 1115.63   28.26
  -3   5   7 1041.45   24.09
  -3   5   7 1109.31   24.36
   3  -5  -7 1116.14   21.96
  -3   5   6    3.49    1.19
  -3   5   6    3.61    1.22
  -3   5   6    2.89    1.32
   3  -5  -6    1.80    0.67
  -3   5   6    1.78    0.82
   3  -5  -6    2.74    0.83
  -3   5   5  660.69   21.22
  -3   5   5  892.83   22.20
  -3   5   5  917.31   22.24
  -3   5   5  759.47   19.82
   3  -5  -5  798.75   17.62
   3  -5  -5  801.06   17.54
   3  -5  -4   19.64    2.07
  -3   5   4   15.32    2.60
  -3   5   4   21.71    3.24
  -3   5   4   24.98    3.44
   3  -5  -4   17.53    1.97
  -3   5   4   19.05    2.58
   3  -5  -3  330.82    9.73
  -3   5   3  358.21   12.14
  -3   5   3  364.96   15.06
   3  -5  -3  331.85    9.75
   3  -5  -2  373.86   10.45
   3  -5  -2  370.47   10.38
  -3   5   1    2.01    1.36
   3  -5  -1    3.91    0.98
   3  -5   0  703.25   15.72
   3  -5   0  723.95   15.88
  -3   5  -1  124.71    8.52
   3  -5   1  131.72    5.29
  -3   5  -1  125.50    8.55
   3  -5   1  126.34    5.20
  -3   5  -2    1.01    0.86
  -3   5  -2    0.66    0.78
   3  -5   2    8.37    1.27
   3  -5   2    7.89    1.23
  -3   5  -3  301.26   12.63
   3  -5   3  300.21    8.31
  -3   5  -3  308.43   12.41
   3  -5   3  294.65    8.28
   3  -5   4    2.00    0.84
  -3   5  -4    2.77    1.11
   3  -5   4    1.72    0.56
   3  -5   4    1.06    0.46
   3  -5   5  108.16    5.73
   3  -5   5  100.35    4.68
   3  -5   5   94.56    3.88
   3  -5   6    9.12    1.68
   3  -5   7  427.48   12.30
   3  -5   8   48.96    3.41
   3  -5   8   50.23    3.14
   3  -5   9  189.55    6.69
   3  -5   9  189.34    6.32
   3  -5  10  139.98    4.96
   3  -5  10  138.20    4.88
   3  -5  11    5.37    0.69
   3  -5  11    7.36    0.85
   3  -5  11    6.54    0.86
  -3   4  15   43.68    1.94
  -3   4  15   43.58    1.98
  -3   4  14  169.50    5.48
  -3   4  14  167.18    5.43
  -3   4  14  163.12    5.06
  -3   4  13   27.78    2.42
  -3   4  13   26.57    2.31
  -3   4  13   26.70    2.26
  -3   4  12  310.93   10.30
  -3   4  12  329.32   10.24
  -3   4  12  328.88   10.03
  -3   4  11  697.40   18.13
  -3   4  11  703.77   17.73
  -3   4  11  676.96   15.88
  -3   4  10  133.31    6.87
  -3   4  10  123.19    5.84
  -3   4  10  132.44    6.84
  -3   4  10  116.47    6.72
  -3   4   9   28.52    3.38
  -3   4   9   40.71    3.84
  -3   4   9   39.20    3.78
  -3   4   8   84.24    5.97
  -3   4   8   80.21    5.59
  -3   4   7  684.41   16.50
  -3   4   7  691.39   19.62
  -3   4   7  689.88   16.50
   3  -4  -7  724.31   14.97
  -3   4   6  316.30   10.57
  -3   4   6  325.18   10.93
  -3   4   6  354.40   14.61
   3  -4  -6  332.61    9.10
  -3   4   6  332.26   10.78
  -3   4   6  327.70   10.58
   3  -4  -6  329.82    9.08
  -3   4   5   47.93    3.81
  -3   4   5   55.51    5.73
  -3   4   5   51.60    4.06
  -3   4   5   56.83    4.23
   3  -4  -5   54.49    3.32
   3  -4  -5   57.24    3.37
  -3   4   4  143.18    8.55
  -3   4   4  176.30    8.13
   3  -4  -4  152.44    5.91
  -3   4   4  164.62    7.87
  -3   4   4  168.87    7.28
   3  -4  -4  155.18    5.88
   3  -4  -3   18.86    1.92
  -3   4   3   17.07    2.67
  -3   4   3   19.06    2.36
   3  -4  -3   16.74    1.81
  -3   4   3   18.09    2.84
   3  -4  -2   89.51    4.30
   3  -4  -2   94.01    4.37
   3  -4  -1   17.70    1.80
   3  -4  -1   16.20    1.75
  -3   4   1   14.96    3.09
  -3   4   0 1034.92   28.94
   3  -4   1  140.38    5.24
   3  -4   1  136.61    5.16
  -3   4  -2  128.18    7.90
   3  -4   2  145.58    5.26
  -3   4  -2  129.27    7.94
   3  -4   2  148.75    5.36
   3  -4   3  213.35    6.51
  -3   4  -3  188.58    9.45
  -3   4  -3  183.33    9.15
   3  -4   3  216.03    6.51
   3  -4   4  465.89   10.73
   3  -4   4  449.37   11.02
  -3   4  -4  494.92   15.40
  -3   4  -4  461.03   14.83
   3  -4   4  476.45   10.78
   3  -4   5  448.64   11.30
   3  -4   5  456.37   10.82
   3  -4   5  455.44   10.30
   3  -4   5  472.15   10.51
   3  -4   6  119.58    5.08
   3  -4   6  125.97    6.22
   3  -4   6  119.85    5.14
   3  -4   6  109.13    4.34
   3  -4   7  174.46    5.52
   3  -4   7  200.55    8.05
   3  -4   7  183.76    6.72
   3  -4   7  191.09    6.76
   3  -4   8  313.18    9.61
   3  -4   8  331.95   10.78
   3  -4   8  317.23    9.36
   3  -4   9   76.78    4.40
   3  -4   9   71.92    4.22
   3  -4   9   75.52    4.01
   3  -4  10  335.14    9.56
   3  -4  10  327.61    9.18
   3  -4  11   16.82    1.63
   3  -4  11   15.55    1.79
   3  -4  11   18.05    1.71
   3  -4  12  137.30    4.48
  -3   3  15   19.35    1.43
  -3   3  14  245.41    7.23
  -3   3  14  249.03    7.27
  -3   3  14  229.32    6.30
  -3   3  13   45.03    3.28
  -3   3  13   45.79    3.14
  -3   3  13   45.44    3.21
  -3   3  13   45.38    2.97
  -3   3  12   42.61    3.60
  -3   3  12   33.60    3.03
  -3   3  12   41.39    3.37
  -3   3  12   36.20    2.98
  -3   3  11  186.29    8.49
  -3   3  11  181.41    7.86
  -3   3  11  195.02    8.13
  -3   3  11  171.86    6.49
  -3   3  11  191.42    7.74
  -3   3  10  288.53   11.50
  -3   3  10  292.06   10.55
  -3   3  10  301.67   10.77
  -3   3  10  271.84    9.11
  -3   3   9  119.11    7.42
  -3   3   9  124.19    6.65
  -3   3   9  125.39    5.90
  -3   3   9  132.18    6.97
  -3   3   8   58.26    5.43
  -3   3   8   61.75    4.53
  -3   3   8   75.02    5.22
  -3   3   8   73.82    5.03
  -3   3   7  488.42   17.12
  -3   3   7  595.82   15.94
  -3   3   7  691.00   18.01
  -3   3   7  560.32   13.60
  -3   3   7  661.08   17.70
  -3   3   6  159.37    7.99
  -3   3   6  183.32    7.48
  -3   3   6  185.26    6.84
  -3   3   6  181.92    8.66
   3  -3  -6  174.40    5.79
  -3   3   6  173.54    6.65
   3  -3  -6  176.83    5.83
  -3   3   5  626.19   15.41
  -3   3   5  647.71   15.37
   3  -3  -4  233.34    7.12
  -3   3   4  247.95    8.74
  -3   3   4  237.29    8.19
   3  -3  -3  231.41    7.23
  -3   3   3  258.91    9.33
  -3   3   3  259.84    8.38
   3  -3  -2 1817.24   32.47
  -3   3   2 1823.38   33.66
  -3   3   1    3.32    0.86
   3  -3  -1    4.49    0.89
  -3   3   0  889.66   23.14
   3  -3   1  240.53    6.91
  -3   3  -1  197.51    9.47
   3  -3   2   15.62    1.52
  -3   3  -2   13.64    2.29
   3  -3   3  404.37    9.52
  -3   3  -3  385.52   13.04
  -3   3  -4   23.56    2.79
   3  -3   4   26.50    1.86
   3  -3   5 1117.47   20.42
   3  -3   5 1092.06   20.33
   3  -3   6   96.67    5.15
   3  -3   6   91.56    4.04
   3  -3   7  359.16    9.33
   3  -3   7  370.69   10.19
   3  -3   7  375.01   11.57
   3  -3   7  359.77    9.97
   3  -3   8  248.74    8.78
   3  -3   8  271.82    9.64
   3  -3   8  248.48    7.22
   3  -3   8  259.94    8.32
   3  -3   8  255.09    8.06
   3  -3   9    7.77    1.40
   3  -3   9    7.91    1.09
   3  -3   9    6.41    1.28
   3  -3   9    6.99    1.24
   3  -3   9    8.82    1.57
   3  -3  10  143.03    4.72
   3  -3  10  151.23    6.19
   3  -3  10  149.26    6.29
   3  -3  10  147.29    5.85
   3  -3  11   12.48    1.57
   3  -3  11   12.64    1.61
   3  -3  12  198.26    7.13
   3  -3  12  196.95    6.29
   3  -3  13  181.24    5.64
   3  -3  14   32.51    1.63
  -3   2  15    5.39    0.72
  -3   2  14   69.15    3.44
  -3   2  14   68.70    3.54
  -3   2  13   38.41    2.97
  -3   2  13   38.26    2.96
  -3   2  13   33.84    2.90
  -3   2  13   36.43    2.52
  -3   2  12  165.65    7.37
  -3   2  12  173.19    7.17
  -3   2  12  159.21    6.39
  -3   2  11  274.95   10.41
  -3   2  11  285.02    8.37
  -3   2  11  295.97    9.69
  -3   2  11  292.54   10.22
  -3   2  10   89.15    5.99
  -3   2  10   88.93    5.70
  -3   2  10   81.80    5.90
  -3   2  10   86.00    5.35
  -3   2  10   81.60    4.41
  -3   2  10   80.01    4.87
  -3   2   9  283.70   11.57
  -3   2   9  232.14   10.74
  -3   2   9  276.36   10.11
  -3   2   9  246.37    8.50
  -3   2   9  261.67    9.47
  -3   2   9  248.08   10.03
  -3   2   8   14.67    2.72
  -3   2   8   13.65    2.21
  -3   2   8    7.92    1.90
  -3   2   8    9.52    1.81
  -3   2   8    7.98    1.42
  -3   2   7  349.20   14.64
  -3   2   7  344.24   11.39
  -3   2   7  304.87   11.87
  -3   2   7  373.65   11.95
  -3   2   7  327.39    9.25
  -3   2   6   92.16    6.49
  -3   2   6   92.86    5.24
  -3   2   6   93.82    5.72
   3  -2  -6   86.91    3.56
  -3   2   6   86.41    3.98
  -3   2   6   94.03    5.57
  -3   2   6   98.53    5.47
   3  -2  -5  331.40    8.46
  -3   2   5  345.58    9.34
   3  -2  -4   95.45    3.95
  -3   2   4   89.82    4.40
   3  -2  -3   28.23    2.07
  -3   2   3   30.03    2.55
   3  -2  -2 1067.01   20.76
  -3   2   2 1155.28   23.11
   3  -2  -1  580.21   12.62
   3  -2   0  334.17    8.50
  -3   2   0  324.22   10.44
  -3   2  -1  218.85    8.30
   3  -2   2 1209.41   21.68
  -3   2  -2 1095.07   24.61
   3  -2   3 1542.96   27.31
  -3   2  -3 1581.58   31.08
   3  -2   4   50.92    2.53
  -3   2  -4   43.40    3.40
   3  -2   5  662.03   13.13
  -3   2  -5  670.95   16.17
   3  -2   6   21.25    1.87
   3  -2   7  794.74   16.74
   3  -2   7  832.65   18.78
   3  -2   8  986.07   19.76
   3  -2   8 1044.64   22.00
   3  -2   8  995.49   20.76
   3  -2   8  974.56   20.08
   3  -2   9    3.17    0.90
   3  -2   9    3.54    0.80
   3  -2   9    1.72    0.68
   3  -2   9    2.17    0.71
   3  -2   9    2.44    0.83
   3  -2  10  579.20   12.85
   3  -2  10  563.31   14.42
   3  -2  10  569.62   14.10
   3  -2  10  561.05   14.17
   3  -2  10  593.45   13.85
   3  -2  11    0.63    0.40
   3  -2  11    0.79    0.61
   3  -2  12  425.55   11.81
   3  -2  12  420.05   10.66
   3  -2  12  416.17    9.60
   3  -2  13    7.26    1.19
   3  -2  14   32.25    2.10
  -3   1  15    2.53    0.53
  -3   1  14  173.77    6.05
  -3   1  14  169.14    5.34
  -3   1  13   69.04    3.81
  -3   1  13   71.03    4.25
  -3   1  13   65.58    3.85
  -3   1  12  341.39   10.51
  -3   1  12  331.58   11.06
  -3   1  12  311.66    9.10
  -3   1  11  220.29    8.71
  -3   1  11  215.63    8.27
  -3   1  11  200.53    8.80
  -3   1  11  212.54    8.90
  -3   1  11  196.69    7.45
  -3   1  10   10.84    1.96
  -3   1  10    6.56    1.62
  -3   1  10    9.28    1.96
  -3   1  10    7.33    1.54
  -3   1  10    7.28    1.54
  -3   1  10    7.08    1.41
  -3   1   9   45.41    3.79
  -3   1   9   43.77    4.11
  -3   1   9   44.15    3.73
  -3   1   9   44.61    3.15
  -3   1   9   45.67    4.52
  -3   1   9   42.14    3.39
  -3   1   8    5.03    1.27
  -3   1   8    5.16    1.43
  -3   1   8    2.78    1.32
  -3   1   8    3.96    1.01
  -3   1   8    5.76    1.40
  -3   1   8    4.48    0.90
  -3   1   8    5.01    1.18
  -3   1   7  898.48   20.86
  -3   1   7  853.68   21.47
  -3   1   7  928.90   24.07
  -3   1   7  917.55   21.07
  -3   1   7  871.32   19.18
  -3   1   7  898.62   18.36
  -3   1   7  938.81   20.48
  -3   1   6  993.75   22.11
  -3   1   6 1004.14   19.40
   3  -1  -5  200.45    5.86
  -3   1   5  199.87    6.18
   3  -1  -4  428.22    9.93
  -3   1   4  412.58   10.18
  -3   1   3  129.53    4.97
   3  -1  -3  128.27    4.68
   3  -1  -2  831.30   16.61
  -3   1   2  827.40   17.20
   3  -1  -1  241.98    6.91
  -3   1   0  132.93    5.38
   3  -1   0  135.89    4.84
  -3   1  -1  518.01   12.69
   3  -1   2    0.72    0.39
  -3   1  -2    8.12    1.28
   3  -1   3  218.83    6.12
  -3   1  -3  200.12    7.08
  -3   1  -4  531.06   13.24
   3  -1   4  569.14   11.72
   3  -1   5  164.65    4.86
  -3   1  -5  166.25    6.18
   3  -1   6   71.37    2.77
  -3   1  -6   75.24    3.87
   3  -1   7   13.91    1.54
   3  -1   8  462.43   12.33
   3  -1   8  437.57   10.38
   3  -1   8  447.84   10.97
   3  -1   8  443.02   10.65
   3  -1   9  118.55    4.39
   3  -1   9  132.92    5.96
   3  -1   9  118.11    5.26
   3  -1   9  121.93    4.94
   3  -1   9  126.34    4.94
   3  -1  10    4.12    0.89
   3  -1  10    5.70    0.87
   3  -1  10    4.41    1.09
   3  -1  10    4.48    1.05
   3  -1  10    3.16    0.84
   3  -1  11   67.62    3.53
   3  -1  11   68.86    3.74
   3  -1  11   65.99    4.05
   3  -1  12  103.89    4.40
   3  -1  12  106.37    4.62
   3  -1  13   69.12    3.87
   3  -1  13   70.21    3.31
   3  -1  14    2.65    0.58
   3  -1  14    3.50    0.81
   3  -1  14    3.05    0.85
   3  -1  15  515.52   10.47
   3  -1  15  492.60   10.21
  -3   0  13  417.64   10.13
  -3   0  12   13.67    1.74
  -3   0  12    8.16    1.48
  -3   0  12   11.82    1.75
  -3   0  11  700.95   16.85
  -3   0  11  689.78   17.33
  -3   0  11  668.02   16.90
  -3   0  11  643.18   15.06
  -3   0  10    2.83    0.98
  -3   0  10    4.02    1.17
  -3   0  10    3.58    1.17
  -3   0  10    4.08    1.16
  -3   0  10    2.88    0.90
  -3   0  10    3.19    0.85
  -3   0   9  857.36   20.07
  -3   0   9  765.34   19.59
  -3   0   9  876.58   21.40
  -3   0   9  746.80   17.78
  -3   0   9  731.32   17.16
  -3   0   8   83.55    5.30
  -3   0   8   80.48    5.15
  -3   0   8   67.82    5.24
  -3   0   8   85.56    6.18
  -3   0   8   68.93    4.22
  -3   0   8   71.00    5.06
  -3   0   8   71.59    3.81
  -3   0   7  487.12   14.22
  -3   0   7  360.95   13.28
  -3   0   7  506.10   16.54
  -3   0   7  403.52   12.67
  -3   0   7  418.74   10.68
  -3   0   7  449.03   12.74
  -3   0   7  427.48   11.19
  -3   0   7  434.06   10.56
  -3   0   7  428.42   11.77
  -3   0   7  391.72   13.02
  -3   0   7  399.35   10.25
  -3   0   6  873.49   21.68
  -3   0   6  883.71   20.86
  -3   0   6  947.75   20.72
  -3   0   6  890.76   19.62
  -3   0   6  855.63   21.14
   3   0  -5    7.22    1.00
  -3   0   4 1290.63   23.60
  -3   0   3  278.77    8.71
  -3   0   3  283.97    7.47
  -3   0   3  286.51    7.76
  -3   0   2 1354.08   26.07
  -3   0   2 1400.31   25.19
  -3   0   1  433.82   10.41
  -3   0   1  406.93   10.12
  -3   0   0  122.99    4.33
  -3   0  -1 1740.49   31.35
  -3   0  -2   30.65    2.30
  -3   0  -3  299.77    8.46
  -3   0  -4  182.66    5.88
  -3   0  -4  211.21    6.73
  -3   0  -5 1879.39   33.76
   3   0   6  459.97   11.56
   3   0   6  475.22   10.04
   3   0   7   97.92    4.66
   3   0   7   98.65    3.23
   3   0   8  782.73   16.06
   3   0   9   86.01    4.68
   3   0   9   83.69    4.01
   3   0   9   82.48    3.71
   3   0  10  741.68   15.97
   3   0  10  727.48   14.99
   3   0  10  740.72   16.64
   3   0  10  734.53   17.37
   3   0  11  151.94    5.71
   3   0  11  142.09    4.86
   3   0  11  151.70    6.10
   3   0  11  149.64    6.46
   3   0  12  379.25    8.89
   3   0  12  384.86   10.19
   3   0  12  399.60   11.05
   3   0  13  182.34    6.78
   3   0  13  200.17    7.30
   3   0  13  192.89    6.42
   3   0  14   40.26    2.73
   3   0  14   43.53    2.63
   3   0  15  282.52    7.18
   3   0  15  284.72    8.15
   3   0  15  285.64    7.04
   3   0  16  109.96    3.37
  -3  -1  14  225.70    6.11
  -3  -1  13   97.13    4.26
  -3  -1  13  101.02    4.59
  -3  -1  12   23.41    2.38
  -3  -1  12   23.18    2.49
  -3  -1  11    5.10    1.28
  -3  -1  11    4.80    1.31
  -3  -1  11    4.82    1.03
  -3  -1  10   11.48    1.73
  -3  -1  10    9.79    1.85
  -3  -1  10    9.37    1.95
  -3  -1  10   11.64    1.86
  -3  -1  10    8.60    1.30
  -3  -1  10    9.87    1.60
  -3  -1  10    9.61    1.91
  -3  -1   9  332.60   10.42
  -3  -1   9  300.11   11.81
  -3  -1   9  307.02   11.14
  -3  -1   9  312.10   10.57
  -3  -1   9  299.28    9.18
  -3  -1   9  307.62    8.54
  -3  -1   9  321.62    8.14
  -3  -1   9  318.82    9.69
  -3  -1   9  281.90   11.19
  -3  -1   8  100.32    5.40
  -3  -1   8   90.34    6.24
  -3  -1   8   95.50    5.79
  -3  -1   8   96.60    5.40
  -3  -1   8   90.47    4.66
  -3  -1   8   95.04    4.41
  -3  -1   8  100.68    4.19
  -3  -1   8   92.53    4.58
  -3  -1   8   89.84    5.97
  -3  -1   7   52.35    3.88
  -3  -1   7   46.65    3.95
  -3  -1   7   54.87    4.89
  -3  -1   7   56.08    3.99
  -3  -1   7   43.68    3.21
  -3  -1   7   42.94    4.09
  -3  -1   7   48.46    3.09
  -3  -1   6  628.89   18.38
  -3  -1   6  701.07   15.28
  -3  -1   6  796.28   18.03
  -3  -1   6  677.48   17.91
  -3  -1   6  735.43   20.23
  -3  -1   6  734.94   16.39
  -3  -1   5  131.36    6.42
  -3  -1   4  461.54   12.75
  -3  -1   4  428.85   10.17
  -3  -1   3  206.90    7.49
  -3  -1   3  207.94    6.44
  -3  -1   2  209.87    7.14
  -3  -1   2  195.87    6.37
  -3  -1   1  316.46    8.72
   3   1  -1  302.51    5.48
  -3  -1   1  328.22    8.68
  -3  -1   0  416.57   10.05
   3   1   0  407.14    7.77
   3   1   1 1921.21   30.79
  -3  -1  -1 1810.80   32.21
   3   1   2   80.76    3.04
  -3  -1  -2   88.68    3.25
  -3  -1  -3   35.69    1.73
  -3  -1  -3   39.36    2.69
   3   1   3   40.18    2.19
   3   1   4   92.12    3.73
  -3  -1  -4   95.12    4.31
  -3  -1  -5  650.48   14.44
   3   1   5  661.30   14.07
   3   1   6  705.18   15.29
   3   1   7  403.99   10.71
   3   1   8  269.96    7.77
   3   1   8  279.11    7.71
   3   1   8  278.60    8.72
   3   1   9  111.55    4.45
   3   1   9  110.57    4.63
   3   1  10   51.03    3.13
   3   1  10   52.69    2.93
   3   1  10   52.13    3.65
   3   1  11   18.34    1.72
   3   1  11   16.89    1.90
   3   1  12   12.47    1.39
   3   1  12   11.58    1.60
   3   1  13  378.36   10.37
   3   1  13  372.70   10.56
   3   1  14    4.33    0.91
   3   1  14    4.23    0.91
   3   1  15  317.45    8.85
   3   1  15  334.64    8.43
   3   1  16   62.37    2.59
  -3  -2  13  526.82   11.58
  -3  -2  13  526.38   11.40
  -3  -2  12   57.13    3.46
  -3  -2  12   56.76    3.50
  -3  -2  11   88.27    5.05
  -3  -2  11   91.57    5.09
  -3  -2  10  106.87    4.57
  -3  -2  10  112.89    6.21
  -3  -2  10  106.14    5.98
  -3  -2  10  106.64    6.23
  -3  -2  10  102.58    5.23
  -3  -2   9  439.67   11.70
  -3  -2   9  474.53   14.84
  -3  -2   9  435.66   14.48
  -3  -2   9  452.83   14.08
  -3  -2   9  458.66   10.65
  -3  -2   9  451.73   12.38
  -3  -2   8  281.91    8.98
  -3  -2   8  286.24   11.54
  -3  -2   8  276.04   10.05
  -3  -2   8  263.53    8.21
  -3  -2   8  283.20    8.00
  -3  -2   8  287.37    7.96
  -3  -2   8  280.68    9.00
  -3  -2   7   42.01    3.16
  -3  -2   7   40.28    4.32
  -3  -2   7   36.18    3.31
  -3  -2   7   38.60    2.90
  -3  -2   7   29.85    3.33
  -3  -2   7   34.50    2.75
  -3  -2   7   38.27    2.59
  -3  -2   7   33.36    2.65
  -3  -2   7   36.98    2.65
  -3  -2   6  652.23   15.07
  -3  -2   6  599.98   17.38
  -3  -2   6  561.32   18.18
  -3  -2   6  719.15   16.16
  -3  -2   6  742.72   21.83
  -3  -2   6  646.58   16.54
  -3  -2   6  683.00   15.32
  -3  -2   6  619.67   17.46
  -3  -2   6  676.02   16.65
  -3  -2   6  632.24   14.99
  -3  -2   6  655.08   14.72
  -3  -2   6  692.94   14.61
  -3  -2   5  257.22   10.08
  -3  -2   5  262.57    8.06
  -3  -2   5  251.90   11.09
  -3  -2   5  276.06    8.34
  -3  -2   5  272.14    9.15
  -3  -2   5  267.51    8.25
  -3  -2   5  267.68    7.96
  -3  -2   4  407.98   12.17
  -3  -2   4  387.92    9.91
  -3  -2   3   64.39    4.14
  -3  -2   2   64.51    3.91
  -3  -2   1 1360.18   26.16
  -3  -2   0  114.82    4.77
  -3  -2  -1  423.18   10.42
  -3  -2  -2  159.59    5.55
   3   2   2  182.19    4.75
  -3  -2  -3  591.34   12.76
   3   2   3  620.18   12.29
  -3  -2  -4  139.66    4.58
   3   2   4  151.32    4.85
   3   2   5  206.26    6.28
   3   2   6 1470.88   27.21
   3   2   7   59.47    3.47
   3   2   8  341.50    8.87
   3   2   8  341.38    9.96
   3   2   9  641.53   14.20
   3   2   9  655.03   14.01
   3   2   9  635.54   13.28
   3   2  10  769.66   16.14
   3   2  10  735.64   15.56
   3   2  10  736.99   14.51
   3   2  11  269.01    8.25
   3   2  11  271.19    7.77
   3   2  11  260.16    7.96
   3   2  12  381.98    9.68
   3   2  12  366.45   10.08
   3   2  12  367.15   10.31
   3   2  13  610.66   14.43
   3   2  13  639.93   14.80
   3   2  14   17.55    1.59
   3   2  14   18.31    1.91
   3   2  15  115.77    4.85
   3   2  16  156.20    5.04
  -3  -3  13   97.57    3.21
  -3  -3  12    8.87    1.22
  -3  -3  11  120.02    5.47
  -3  -3  11  119.52    4.96
  -3  -3  10    7.79    1.48
  -3  -3  10    7.34    1.52
  -3  -3  10    8.92    1.48
  -3  -3   9  313.01   10.60
  -3  -3   9  300.25   10.14
  -3  -3   9  302.26    9.56
  -3  -3   8  170.99    8.53
  -3  -3   8  182.49    8.28
  -3  -3   8  168.78    7.60
  -3  -3   8  169.87    6.85
  -3  -3   8  169.43    5.94
  -3  -3   7   67.92    4.09
  -3  -3   7   68.19    5.14
  -3  -3   7   72.23    5.63
  -3  -3   7   83.55    5.75
  -3  -3   7   68.23    4.69
  -3  -3   7   73.16    4.06
  -3  -3   7   78.87    5.50
  -3  -3   7   68.36    3.64
  -3  -3   7   67.45    4.01
  -3  -3   7   69.54    3.54
  -3  -3   6  167.27    9.03
  -3  -3   6  195.66    9.48
  -3  -3   6  170.53    7.57
  -3  -3   6  171.93    6.53
  -3  -3   6  172.01    6.11
  -3  -3   6  163.42    8.06
  -3  -3   6  160.51    8.11
  -3  -3   6  161.49    6.37
  -3  -3   6  167.97    6.03
  -3  -3   6  171.24    6.04
  -3  -3   5    6.17    1.90
  -3  -3   5    7.20    1.88
  -3  -3   5    5.29    1.32
  -3  -3   5    5.64    1.15
  -3  -3   5    6.04    1.58
  -3  -3   5    5.44    1.01
  -3  -3   5    6.27    1.18
  -3  -3   5    7.22    1.27
  -3  -3   5    6.93    1.16
  -3  -3   4 1032.42   21.82
   3   3  -4 1120.27   20.39
  -3  -3   4 1061.06   20.91
  -3  -3   4 1064.03   21.44
  -3  -3   4 1071.24   21.22
  -3  -3   4 1074.33   21.08
  -3  -3   3   33.44    2.92
  -3  -3   3   30.95    2.99
  -3  -3   2   61.00    3.97
  -3  -3   1  927.83   20.07
  -3  -3   0   56.45    3.58
  -3  -3  -1  375.19   10.37
  -3  -3  -2  176.56    6.56
  -3  -3  -3  634.67   14.88
  -3  -3  -4  913.83   19.75
  -3  -3  -5  113.39    5.28
   3   3   7   33.47    2.29
   3   3   8  244.41    7.02
   3   3   8  232.93    6.96
   3   3   8  231.25    6.19
   3   3   9  107.27    4.51
   3   3   9  108.40    4.48
   3   3   9  100.36    4.21
   3   3  10  101.91    4.58
   3   3  10  100.38    4.19
   3   3  10   97.77    4.05
   3   3  11  546.06   13.00
   3   3  11  575.20   12.80
   3   3  11  564.36   12.23
   3   3  11  543.33   13.91
   3   3  12  136.97    5.35
   3   3  12  127.19    4.98
   3   3  12  131.20    4.56
   3   3  12  133.06    5.64
   3   3  12  133.78    5.66
   3   3  13  346.86    9.63
   3   3  13  367.04   10.25
   3   3  14   75.46    3.61
   3   3  14   79.41    4.09
   3   3  15  198.60    6.62
   3   3  15  196.93    5.75
   3   3  15  199.41    6.46
   3   3  16  185.09    5.56
  -3  -4  12  121.57    3.79
  -3  -4  11  123.50    4.80
  -3  -4  10  155.68    6.39
  -3  -4  10  143.02    5.68
  -3  -4   9   56.56    3.79
  -3  -4   9   58.88    3.67
  -3  -4   9   60.53    4.28
  -3  -4   8  341.63   10.34
  -3  -4   8  336.24   10.96
  -3  -4   8  334.87   11.85
  -3  -4   8  344.48   10.31
  -3  -4   7    0.72    0.64
  -3  -4   7    1.38    0.64
  -3  -4   7    0.90    0.75
  -3  -4   7    0.87    0.69
  -3  -4   7    1.03    0.61
  -3  -4   6  279.40    9.12
  -3  -4   6  264.35   10.81
  -3  -4   6  298.12   11.89
  -3  -4   6  253.79    8.71
  -3  -4   6  274.07   10.16
  -3  -4   6  284.02    8.60
  -3  -4   6  270.06   10.89
  -3  -4   6  279.30    8.49
  -3  -4   5  196.68    7.39
  -3  -4   5  172.95    8.80
  -3  -4   5  176.04    6.96
  -3  -4   5  187.96    8.21
  -3  -4   5  197.94    6.98
  -3  -4   5  180.04    8.58
  -3  -4   5  195.77    6.88
  -3  -4   5  188.85    6.72
  -3  -4   4  414.22   14.88
  -3  -4   4  423.57   11.94
  -3  -4   4  432.58   11.47
  -3  -4   4  434.70   11.20
  -3  -4   4  414.70   11.14
  -3  -4   3  495.01   17.22
  -3  -4   3  469.40   12.77
  -3  -4   3  442.33   12.06
  -3  -4   3  443.38   13.66
   3   4  -3  480.69   11.46
  -3  -4   3  461.65   11.88
  -3  -4   3  454.21   11.60
  -3  -4   2    0.49    0.52
  -3  -4   2    0.57    0.55
  -3  -4   2    1.57    0.67
  -3  -4   2    1.88    0.66
   3   4  -2    1.32    0.55
  -3  -4   2    0.43    0.52
  -3  -4   2    0.66    0.42
  -3  -4   1  465.01   13.34
  -3  -4   1  469.62   13.26
  -3  -4   1  478.33   11.45
  -3  -4   0  203.00    7.86
  -3  -4  -1 1247.78   25.98
  -3  -4  -2  238.25    8.55
  -3  -4  -3  122.70    6.06
  -3  -4  -4  102.42    5.67
  -3  -4  -5   31.34    3.24
   3   4   6  537.73   11.72
   3   4   6  545.42   12.19
   3   4   7  368.52    9.19
   3   4   7  356.21    9.14
   3   4   8  144.08    5.33
   3   4   8  138.89    4.88
   3   4   9  306.11    8.54
   3   4   9  293.66    8.38
   3   4   9  308.30    9.13
   3   4   9  288.50    8.36
   3   4  10   83.29    4.12
   3   4  10   90.59    4.08
   3   4  10   87.23    4.29
   3   4  11  259.22    8.04
   3   4  11  248.57    7.37
   3   4  11  259.00    8.21
   3   4  12    1.02    0.49
   3   4  12    1.18    0.59
   3   4  13  242.90    8.13
   3   4  13  224.89    6.56
   3   4  13  245.90    7.99
   3   4  13  245.10    7.94
   3   4  14    5.61    1.10
   3   4  14    7.10    1.13
   3   4  14    5.15    0.98
   3   4  14    6.53    1.18
   3   4  15   70.88    3.48
   3   4  15   72.81    3.31
   3   4  15   75.69    3.61
   3   4  16  280.32    6.42
   3   4  16  264.69    6.58
  -3  -5  11   21.54    1.32
  -3  -5  10   12.47    1.36
  -3  -5   9   65.47    3.72
  -3  -5   9   67.54    3.55
  -3  -5   8  342.47   10.62
  -3  -5   8  346.79   10.33
  -3  -5   8  359.97   10.91
  -3  -5   8  357.82    9.91
  -3  -5   7   23.40    2.23
  -3  -5   7   26.98    2.79
  -3  -5   7   29.27    3.06
  -3  -5   7   27.65    2.49
  -3  -5   6  449.33   13.86
  -3  -5   6  423.99   13.33
  -3  -5   6  365.06   10.95
  -3  -5   6  392.36   12.43
  -3  -5   6  406.61   11.37
  -3  -5   5  143.79    7.55
  -3  -5   5  134.77    6.08
  -3  -5   5  141.79    7.08
  -3  -5   5  147.40    5.63
  -3  -5   5  133.59    7.39
  -3  -5   5  147.43    6.29
  -3  -5   4  339.71   12.57
  -3  -5   4  326.38   10.17
  -3  -5   4  313.69   11.22
  -3  -5   4  329.99    9.30
  -3  -5   4  291.16   11.43
  -3  -5   4  311.39    9.61
  -3  -5   3  325.08   12.64
  -3  -5   3  294.66    9.72
   3   5  -3  291.31    8.47
  -3  -5   3  269.99    8.62
  -3  -5   3  305.94    9.37
  -3  -5   2    0.86    0.65
  -3  -5   2    0.33    0.45
   3   5  -2    0.62    0.46
  -3  -5   2    0.68    0.49
  -3  -5   2    0.78    0.52
  -3  -5   1  524.70   15.27
  -3  -5   1  537.27   13.61
  -3  -5   1  519.99   15.08
   3   5  -1  564.26   13.29
  -3  -5   1  519.26   13.05
   3   5   0  365.88   10.32
  -3  -5   0  348.80   11.81
  -3  -5   0  361.44   11.87
  -3  -5   0  385.87   10.99
  -3  -5   0  354.30    9.95
   3   5   1  397.88   10.81
  -3  -5  -1  393.66   12.52
  -3  -5  -1  401.08   12.51
  -3  -5  -1  382.37   11.46
  -3  -5  -1  381.27   10.30
  -3  -5  -2 1151.88   26.25
  -3  -5  -2 1180.85   25.26
   3   5   2 1183.07   23.90
  -3  -5  -3   16.83    2.39
  -3  -5  -3   13.47    2.14
  -3  -5  -3   11.42    1.90
   3   5   3   11.56    1.58
  -3  -5  -3   16.57    3.53
  -3  -5  -4  308.76   11.27
  -3  -5  -4  312.81   10.79
  -3  -5  -5   81.84    5.49
   3   5   5   81.58    4.16
  -3  -5  -5   90.19    5.77
  -3  -5  -5   75.43    5.02
   3   5   6  544.44   12.96
   3   5   6  552.57   12.32
  -3  -5  -6  540.31   16.82
   3   5   7  195.84    6.38
  -3  -5  -7  203.31    9.74
   3   5   7  186.35    6.58
   3   5   7  194.51    6.43
   3   5   8   39.65    2.75
   3   5   8   40.67    2.60
   3   5   9   53.74    3.30
   3   5   9   54.12    3.24
   3   5  10    1.99    0.67
   3   5  10    2.30    0.76
   3   5  11  158.47    6.12
   3   5  11  160.08    5.79
   3   5  11  150.76    5.94
   3   5  12   10.77    1.51
   3   5  12    9.18    1.41
   3   5  12    8.60    1.24
   3   5  12   10.35    1.64
   3   5  12    9.81    1.46
   3   5  13  245.78    7.63
   3   5  13  261.49    8.04
   3   5  13  268.16    7.39
   3   5  13  268.23    8.44
   3   5  13  249.97    7.83
   3   5  14  104.34    4.23
   3   5  14  124.44    4.88
   3   5  15   10.52    1.06
   3   5  15   13.46    1.36
   3   5  16  172.47    4.48
  -3  -5 -16  147.61    5.18
  -3  -6   9   32.69    1.85
  -3  -6   8  252.09    7.13
  -3  -6   8  244.68    7.15
  -3  -6   8  246.88    6.98
  -3  -6   7   79.77    4.16
  -3  -6   7   77.28    4.12
  -3  -6   7   80.03    3.84
  -3  -6   6   40.37    3.24
  -3  -6   6   37.83    2.72
  -3  -6   6   42.23    3.18
  -3  -6   6   39.96    2.81
  -3  -6   5  596.56   14.35
  -3  -6   5  645.61   16.39
  -3  -6   5  550.62   14.25
  -3  -6   5  584.30   15.83
  -3  -6   5  677.96   16.11
  -3  -6   4    3.11    1.09
  -3  -6   4    4.07    1.21
  -3  -6   3  551.43   14.12
  -3  -6   3  494.07   15.76
  -3  -6   2   16.89    2.10
   3   6  -2   15.84    1.92
  -3  -6   1  418.17   12.22
   3   6  -1  430.69   11.44
  -3  -6   1  385.42   13.07
  -3  -6   1  403.79   11.65
  -3  -6   0  138.07    7.21
   3   6   0  134.80    5.80
  -3  -6   0  139.27    6.24
  -3  -6   0  133.75    7.13
  -3  -6  -1  101.03    6.14
  -3  -6  -1   95.95    5.90
  -3  -6  -1  102.68    5.39
  -3  -6  -2  238.13    9.74
  -3  -6  -2  241.14    9.75
   3   6   2  231.87    7.98
  -3  -6  -3  154.26    7.77
  -3  -6  -3  173.49    8.11
   3   6   3  156.04    6.29
  -3  -6  -3  159.87   10.34
   3   6   3  153.72    5.60
  -3  -6  -4  268.65   10.71
  -3  -6  -4  291.73   10.99
  -3  -6  -4  281.53   14.34
   3   6   4  269.73    7.99
  -3  -6  -5    2.91    1.17
   3   6   5    3.53    0.94
  -3  -6  -5    3.92    1.28
   3   6   5    3.40    0.85
  -3  -6  -6  581.66   17.58
   3   6   6  601.05   14.35
  -3  -6  -6  590.38   16.52
   3   6   6  616.27   14.11
   3   6   7  134.03    5.51
  -3  -6  -7  132.60    7.54
  -3  -6  -7  143.87    7.94
   3   6   7  138.17    5.34
  -3  -6  -7  117.34    6.64
   3   6   7  140.22    5.52
  -3  -6  -8  492.36   15.85
   3   6   8  510.14   12.25
   3   6   8  499.38   12.23
   3   6   8  467.49   11.79
   3   6   9  197.42    7.01
   3   6   9  213.17    7.07
   3   6  10    2.14    0.73
   3   6  11  958.35   20.03
   3   6  11  943.29   19.48
   3   6  12    7.10    1.15
   3   6  12    5.30    1.11
   3   6  12    5.18    1.17
   3   6  13  402.54   10.44
   3   6  13  415.20    9.95
   3   6  13  404.17   10.81
   3   6  14  262.45    7.29
  -3  -6 -14  241.05    8.13
   3   6  14  252.61    6.56
   3   6  14  250.08    7.27
   3   6  15    7.17    0.92
   3   6  15    5.38    0.75
  -3  -7   7   10.60    1.08
  -3  -7   6   42.42    2.67
  -3  -7   6   41.14    2.34
  -3  -7   5   30.64    2.56
  -3  -7   5   32.47    2.23
  -3  -7   4    5.29    1.05
  -3  -7   4    8.41    1.48
  -3  -7   4    5.51    1.02
  -3  -7   3    2.83    0.80
  -3  -7   3    2.14    0.92
  -3  -7   2   44.59    3.06
  -3  -7   1   75.75    4.18
  -3  -7   1   73.99    4.27
  -3  -7   0  232.91    8.12
  -3  -7   0  240.57    8.24
  -3  -7  -1   92.11    5.89
  -3  -7  -1   93.93    5.93
  -3  -7  -1   97.79    5.08
   3   7   1  100.60    5.15
  -3  -7  -2  154.11    7.81
  -3  -7  -2  155.33    7.79
  -3  -7  -2  168.12    6.91
   3   7   2  156.95    6.57
  -3  -7  -3    0.61    0.71
  -3  -7  -3    0.49    0.58
   3   7   3    2.75    0.88
  -3  -7  -3    2.59    0.95
  -3  -7  -4  205.62    9.19
  -3  -7  -4  213.17    9.30
   3   7   4  196.04    6.47
  -3  -7  -5  166.75    8.32
  -3  -7  -5  184.10    8.69
   3   7   5  179.33    6.26
   3   7   5  180.07    6.98
  -3  -7  -6  189.79    8.96
  -3  -7  -6  196.57    9.12
   3   7   6  196.58    6.69
   3   7   6  202.18    7.41
  -3  -7  -7  840.42   22.04
   3   7   7  878.49   18.33
  -3  -7  -8   36.37    3.77
   3   7   8   37.57    2.66
   3   7   8   33.79    2.61
  -3  -7  -9   40.64    3.75
   3   7   9   38.40    2.74
   3   7   9   36.46    2.70
   3   7  10  126.50    5.22
   3   7  10  139.18    5.47
   3   7  11  253.57    7.71
   3   7  12   99.34    4.29
   3   7  12  101.43    4.24
   3   7  13   45.00    2.58
   3   7  13   42.55    2.45
   3   7  13   43.38    2.71
   3   7  14  218.61    5.50
   3   7  14  209.82    5.83
  -3  -8   5  179.76    4.99
  -3  -8   4    0.08    0.18
  -3  -8   4    0.44    0.42
  -3  -8   3  480.00   11.11
  -3  -8   3  511.85   10.57
  -3  -8   2    2.92    0.88
  -3  -8   2    4.28    0.76
  -3  -8   1   92.25    3.80
  -3  -8   1   97.16    5.08
   3   8  -1  101.19    4.49
  -3  -8   0  626.84   13.44
  -3  -8  -1   47.46    2.85
  -3  -8  -1   46.48    3.82
  -3  -8  -1   45.81    3.08
  -3  -8  -2  236.96    7.29
  -3  -8  -2  239.63    9.35
  -3  -8  -2  247.98    7.89
  -3  -8  -3    0.61    0.42
  -3  -8  -3    0.53    0.65
  -3  -8  -3    1.88    0.70
  -3  -8  -4  316.72   11.15
  -3  -8  -4  320.56    9.32
  -3  -8  -5  211.39    8.83
   3   8   5  205.33    6.45
  -3  -8  -5  220.82    7.28
  -3  -8  -6   30.26    3.17
   3   8   6   30.27    2.30
  -3  -8  -6   29.08    2.37
  -3  -8  -7  166.36    7.49
   3   8   7  153.76    5.62
  -3  -8  -7  154.16    5.60
  -3  -8  -8    7.21    1.52
   3   8   8    6.14    1.08
   3   8   9   90.01    4.03
   3   8   9   96.34    4.25
   3   8  10   31.46    2.28
   3   8  11  465.03   10.72
   3   8  11  450.89   11.09
   3   8  12  164.20    5.06
   3   8  12  156.16    5.20
   3   8  13   55.10    2.48
  -3  -9   2    1.03    0.37
  -3  -9   1   19.95    1.68
   3   9   0  128.96    4.32
   3   9   1   56.64    3.05
   3   9   2  144.26    5.43
   3   9   3    1.04    0.56
  -3  -9  -4   92.24    4.70
   3   9   4   82.64    4.14
  -3  -9  -5  271.42    8.71
   3   9   6   70.21    3.69
  -3  -9  -6   72.19    4.02
   3   9   7   69.89    3.52
   3   9   7   64.22    2.78
   3   9   8   30.49    2.10
   3   9   8   30.77    1.90
   3   9   9  178.66    5.14
   3   9   9  190.76    5.54
   3   9  10  189.14    5.11
   3   9  10  193.17    5.34
   3   9  11   30.94    1.60
   3   9  11   30.76    1.63
   3  10   4   32.59    1.72
   3  10   5  222.87    5.52
  -4   8   8   47.60    2.38
  -4   8   7  156.05    5.18
  -4   8   6  223.93    6.79
  -4   8   6  219.90    6.78
  -4   8   5   97.02    4.66
  -4   8   4  275.11    9.08
   4  -8  -4  271.54    7.59
  -4   8   3   14.65    2.01
   4  -8  -3   16.53    1.65
  -4   8   2  151.44    6.68
  -4   8   1   21.34    2.35
   4  -8  -1   15.68    1.56
  -4   8   0   57.36    3.65
  -4   8  -1  165.91    5.82
   4  -8   2    4.99    0.76
   4  -8   3   86.17    2.94
  -4   7  10    0.27    0.26
  -4   7   9  291.81    7.08
  -4   7   8   29.81    2.52
  -4   7   7  214.32    7.26
   4  -7  -7  207.21    6.40
  -4   7   6  329.85   10.50
   4  -7  -6  300.94    8.60
  -4   7   5    7.23    1.63
   4  -7  -5    6.88    1.20
  -4   7   4  419.44   14.14
   4  -7  -4  390.73   10.55
   4  -7  -3  110.75    4.92
   4  -7  -2  233.59    7.54
  -4   7   2  230.66   10.83
  -4   7   1  456.12   15.73
  -4   7   0   49.50    4.56
   4  -7   0   47.89    2.54
   4  -7   0   54.22    3.19
  -4   7  -1  355.16   12.36
   4  -7   1  338.09    8.26
   4  -7   1  339.48    9.07
  -4   7  -2   69.66    4.67
   4  -7   2   61.89    2.90
   4  -7   2   63.40    3.21
  -4   7  -3  375.81   10.49
   4  -7   3  362.48    8.38
   4  -7   4  107.11    3.77
   4  -7   5  169.62    5.45
   4  -7   5  167.58    4.72
   4  -7   6   50.62    2.40
   4  -7   6   45.63    1.98
  -4   6  12   17.71    1.35
  -4   6  11  166.15    5.13
  -4   6  11  176.46    5.72
  -4   6  10   48.91    3.04
  -4   6  10   49.61    3.24
  -4   6   9   19.50    2.13
  -4   6   9   18.31    2.17
  -4   6   8   26.66    2.75
  -4   6   7    2.83    0.94
  -4   6   7    2.03    0.85
   4  -6  -7    2.17    0.68
  -4   6   6  364.24   11.99
   4  -6  -6  340.40    9.36
   4  -6  -5   22.43    2.19
  -4   6   5   21.78    3.10
  -4   6   4  257.13   11.72
   4  -6  -4  223.98    7.70
   4  -6  -3   28.98    2.55
  -4   6   2    1.09    1.16
   4  -6  -2    1.23    0.61
   4  -6  -2    1.42    0.68
  -4   6   1   18.32    3.51
  -4   6   0   44.09    5.21
   4  -6   0   51.09    3.29
  -4   6  -1  260.20   12.37
   4  -6   1  287.89    8.47
  -4   6  -2    1.37    0.89
   4  -6   2    1.64    0.63
  -4   6  -3  141.57    7.61
   4  -6   3  128.30    4.91
  -4   6  -4  201.06    8.28
   4  -6   4  204.40    6.54
   4  -6   4  190.92    5.91
   4  -6   5  220.91    6.71
   4  -6   6   64.82    3.21
   4  -6   7    4.32    0.89
   4  -6   7    3.68    0.75
   4  -6   8  216.22    5.94
  -4   5  13  307.10    7.10
  -4   5  12  110.38    3.93
  -4   5  12  101.41    3.71
  -4   5  11   69.49    3.55
  -4   5  11   69.50    3.51
  -4   5  11   82.77    3.79
  -4   5  11   89.65    4.52
  -4   5  10   64.04    3.72
  -4   5  10   63.60    3.71
  -4   5  10   72.90    4.11
  -4   5  10   73.36    4.59
  -4   5   9  550.34   14.23
  -4   5   9  567.94   15.68
  -4   5   8   40.34    3.11
  -4   5   8   41.66    2.90
  -4   5   8   46.23    4.28
   4  -5  -7  142.46    5.39
  -4   5   7  143.95    6.63
  -4   5   6  443.82   13.93
  -4   5   6  466.36   14.23
   4  -5  -6  439.95   11.36
   4  -5  -6  445.90   11.60
  -4   5   5    2.21    1.10
  -4   5   5    2.54    1.12
  -4   5   5    3.18    1.16
   4  -5  -5    2.44    0.83
   4  -5  -5    2.12    0.76
  -4   5   4  304.05   13.06
  -4   5   4  292.27   12.71
   4  -5  -4  257.62    8.58
   4  -5  -4  253.49    8.56
   4  -5  -3  345.34   10.45
   4  -5  -3  347.10   10.43
   4  -5  -2  132.07    5.84
   4  -5  -2  126.73    5.74
  -4   5   1  318.90   17.03
   4  -5  -1  317.59    9.69
   4  -5  -1  317.98    9.71
  -4   5   0  247.43   14.55
  -4   5   0  259.17   14.68
   4  -5   0  274.61    8.70
  -4   5  -1 1327.55   36.92
  -4   5  -1 1268.93   36.14
   4  -5   1 1478.52   27.81
   4  -5   1 1467.69   27.74
   4  -5   2  250.58    7.82
  -4   5  -2  230.42   12.09
  -4   5  -2  237.57   12.05
   4  -5   2  247.72    7.83
   4  -5   3    1.75    0.62
   4  -5   3    1.96    0.66
   4  -5   4  294.49    8.19
  -4   5  -4  327.95   12.46
   4  -5   4  312.21    8.33
   4  -5   5   23.65    1.83
   4  -5   5   24.21    1.85
   4  -5   7   39.75    2.70
   4  -5   8  152.54    5.78
   4  -5   8  150.67    5.33
   4  -5   9   88.86    3.78
   4  -5   9   90.95    3.73
   4  -5  10   98.64    3.24
   4  -5  10  122.50    3.86
  -4   4  13  214.81    6.05
  -4   4  13  221.39    6.25
  -4   4  13  225.50    6.23
  -4   4  12    4.03    0.94
  -4   4  12    4.37    0.94
  -4   4  11    6.43    1.28
  -4   4  11    5.16    1.03
  -4   4  11    6.52    1.33
  -4   4  10    1.41    0.70
  -4   4  10    0.31    0.50
  -4   4  10    0.92    0.71
  -4   4  10    2.57    0.96
  -4   4   9  442.24   14.05
  -4   4   9  479.79   13.24
  -4   4   9  491.27   15.05
  -4   4   8  293.04   11.70
  -4   4   8  330.65   10.97
  -4   4   8  309.68    9.20
  -4   4   8  351.55   13.11
  -4   4   7   45.80    3.96
  -4   4   7   52.88    3.78
  -4   4   7   58.87    5.59
   4  -4  -6  882.88   18.36
  -4   4   6  818.62   20.08
  -4   4   6  860.89   20.62
  -4   4   6  870.39   20.73
   4  -4  -6  852.66   18.22
   4  -4  -5   14.83    1.83
  -4   4   5   18.27    2.58
  -4   4   5   16.03    2.45
  -4   4   5   12.73    2.78
   4  -4  -5   15.11    1.86
   4  -4  -4  617.90   15.08
  -4   4   4  691.98   19.41
  -4   4   4  690.37   19.19
  -4   4   4  560.57   18.31
   4  -4  -4  634.94   15.20
   4  -4  -3   57.46    3.65
  -4   4   3   71.87    5.99
  -4   4   3   69.92    5.89
   4  -4  -3   54.60    3.59
   4  -4  -2   23.29    2.31
  -4   4   1  286.23   15.00
  -4   4   1  309.25   15.43
   4  -4  -1  314.48    9.43
  -4   4   0    4.77    1.93
  -4   4   0    2.73    1.45
  -4   4  -1  415.91   17.98
  -4   4  -1  416.02   17.86
  -4   4  -2  168.84   10.23
   4  -4   2  198.31    6.80
  -4   4  -2  160.91    9.92
   4  -4   2  197.66    6.81
  -4   4  -3  302.17   13.27
   4  -4   3  331.40    9.24
  -4   4  -3  308.26   13.21
   4  -4   3  336.14    9.25
  -4   4  -4   28.77    3.68
  -4   4  -4   32.57    3.86
   4  -4   4   29.90    2.30
   4  -4   4   32.47    2.40
   4  -4   5   86.45    3.77
   4  -4   5   95.12    4.35
   4  -4   5   93.41    4.36
  -4   4  -5  101.02    6.31
   4  -4   5   85.51    3.79
   4  -4   6  241.44    7.24
   4  -4   6  232.86    7.47
   4  -4   7    4.39    0.86
   4  -4   7    5.67    1.10
   4  -4   7    5.05    1.09
   4  -4   8  135.61    5.49
   4  -4   8  135.17    4.48
   4  -4   8  141.08    5.53
   4  -4   9  159.96    6.06
   4  -4   9  154.02    5.90
   4  -4   9  169.05    5.87
   4  -4  10  129.86    4.77
   4  -4  10  138.37    4.96
   4  -4  11  215.38    5.92
   4  -4  12   13.45    1.07
  -4   3  14    5.90    0.78
  -4   3  13   85.54    3.84
  -4   3  13   81.85    3.81
  -4   3  13   83.43    3.53
  -4   3  12  136.39    5.96
  -4   3  12  141.18    5.85
  -4   3  12  135.60    5.54
  -4   3  11  156.35    7.36
  -4   3  11  168.80    7.14
  -4   3  11  149.88    5.69
  -4   3  10  229.27   10.08
  -4   3  10  237.65    9.53
  -4   3  10  229.98    8.07
  -4   3   9  147.32    8.60
  -4   3   9  170.65    8.46
  -4   3   9  150.29    6.83
  -4   3   9  157.05    5.59
  -4   3   9  172.22    8.04
  -4   3   8  358.51   13.51
  -4   3   8  323.88   10.90
  -4   3   8  333.75    9.64
  -4   3   8  366.29   12.90
  -4   3   7    3.66    1.41
  -4   3   7    2.73    0.99
  -4   3   7    1.16    0.81
  -4   3   6  309.02   11.93
  -4   3   6  309.86   10.12
  -4   3   6  336.61   10.52
  -4   3   6  301.75   13.19
   4  -3  -6  334.89    9.16
   4  -3  -6  341.46    9.25
  -4   3   5  579.08   16.25
   4  -3  -5  585.51   13.80
   4  -3  -5  584.76   13.92
  -4   3   5  619.22   15.99
  -4   3   5  581.66   15.75
  -4   3   5  608.46   19.78
  -4   3   4  143.92    6.56
   4  -3  -4  137.44    5.72
  -4   3   4  142.79    7.06
  -4   3   4  140.47    6.99
  -4   3   4  136.99    8.11
   4  -3  -3  151.95    6.09
  -4   3   3  157.79    7.87
  -4   3   3  152.86    7.74
  -4   3   3  143.11    7.49
   4  -3  -2   59.01    3.62
  -4   3   2   60.95    5.09
  -4   3   2   65.33    5.27
   4  -3  -1 1283.34   25.32
   4  -3   0   40.23    2.92
  -4   3   0   39.71    4.60
  -4   3   0   38.05    4.48
   4  -3   1  471.64   11.81
  -4   3  -1  435.88   16.43
  -4   3  -1  446.12   16.39
   4  -3   2  305.92    8.73
  -4   3  -2  291.37   12.55
  -4   3  -3  204.25   10.00
  -4   3  -3  206.81   10.04
   4  -3   4  548.94   12.53
  -4   3  -4  535.17   16.80
  -4   3  -4  513.87   16.46
   4  -3   4  551.38   12.45
  -4   3  -5   42.26    4.03
  -4   3  -5   47.46    4.22
   4  -3   5   47.93    2.73
   4  -3   5   47.78    2.75
   4  -3   6  509.33   12.18
   4  -3   6  454.87   10.47
   4  -3   7   36.04    2.64
   4  -3   7   35.24    2.40
   4  -3   7   30.36    2.59
   4  -3   8  262.00    7.83
   4  -3   8  276.46    9.63
   4  -3   8  274.43    8.63
   4  -3   8  279.55    8.45
   4  -3   9  196.63    7.09
   4  -3   9  189.48    6.06
   4  -3   9  203.44    7.12
   4  -3   9  203.10    6.84
   4  -3  10    2.16    0.69
   4  -3  10    1.54    0.49
   4  -3  10    1.37    0.60
   4  -3  10    1.92    0.67
   4  -3  11  165.29    6.14
   4  -3  11  168.92    5.63
   4  -3  12    0.34    0.29
   4  -3  13   62.89    2.57
  -4   2  14   11.52    1.09
  -4   2  13   45.88    2.84
  -4   2  13   44.11    2.39
  -4   2  12   36.90    3.01
  -4   2  12   40.30    3.08
  -4   2  12   40.77    2.80
  -4   2  11  229.77    9.09
  -4   2  11  219.53    8.50
  -4   2  11  218.98    7.93
  -4   2  11  207.67    8.44
  -4   2  10   95.93    6.32
  -4   2  10   76.51    5.27
  -4   2  10   87.95    5.48
  -4   2  10   80.22    4.36
  -4   2  10   87.02    5.14
  -4   2   9   13.83    2.31
  -4   2   9   10.11    2.00
  -4   2   9    9.31    1.60
  -4   2   9   10.77    1.38
  -4   2   8  325.52   14.83
  -4   2   8  308.63   11.83
  -4   2   8  345.76   12.75
  -4   2   8  326.82   10.67
  -4   2   8  335.44    9.58
  -4   2   8  346.72   12.00
  -4   2   7   25.66    4.08
  -4   2   7   18.69    2.67
  -4   2   7   17.69    2.90
  -4   2   7   18.48    2.33
  -4   2   7   18.36    2.08
  -4   2   7   19.59    2.72
  -4   2   6  372.67   14.72
  -4   2   6  356.21   12.17
  -4   2   6  357.48   10.24
  -4   2   6  392.75   14.40
  -4   2   6  381.90   13.35
   4  -2  -6  347.97    9.28
  -4   2   5  628.39   18.39
  -4   2   5  641.15   16.95
   4  -2  -5  613.54   14.17
  -4   2   5  619.41   15.42
  -4   2   5  648.44   18.41
  -4   2   5  600.92   15.12
  -4   2   5  617.78   16.07
  -4   2   5  671.81   18.98
  -4   2   4   86.13    5.31
   4  -2  -4   83.45    4.17
  -4   2   4   86.13    4.82
  -4   2   4   77.30    4.65
  -4   2   4   84.84    5.78
  -4   2   3  111.14    5.61
   4  -2  -3  111.36    4.97
  -4   2   3  109.04    5.77
  -4   2   3  112.25    5.86
  -4   2   3  115.39    6.32
   4  -2  -2   17.07    1.88
  -4   2   2   15.25    2.21
   4  -2  -1  884.66   18.77
   4  -2   0  686.28   15.38
  -4   2   0  644.38   18.17
  -4   2  -1  376.49   12.97
  -4   2  -2 1224.61   28.31
  -4   2  -2 1154.79   27.82
   4  -2   3    1.70    0.63
  -4   2  -3    1.33    0.82
  -4   2  -3    3.51    1.17
   4  -2   4  443.64   10.69
  -4   2  -4  422.38   13.59
  -4   2  -4  406.61   13.54
   4  -2   5   79.54    3.69
  -4   2  -5   84.76    5.45
   4  -2   6  594.25   13.83
   4  -2   6  551.58   12.05
   4  -2   7  143.55    5.72
   4  -2   8   79.98    4.87
   4  -2   8   74.28    3.65
   4  -2   8   74.84    4.01
   4  -2   8   79.32    4.07
   4  -2   9   73.74    4.62
   4  -2   9   70.54    3.73
   4  -2   9   64.04    3.11
   4  -2   9   71.72    4.12
   4  -2   9   69.55    3.75
   4  -2  10   18.01    1.76
   4  -2  10   22.17    2.22
   4  -2  10   18.26    1.86
   4  -2  11  428.69   10.06
   4  -2  11  426.33   11.40
   4  -2  11  433.17   10.66
   4  -2  12   82.89    4.21
   4  -2  12   80.75    3.52
   4  -2  12   81.52    3.26
   4  -2  13  166.05    5.36
   4  -2  14   43.23    1.96
  -4   1  14    4.10    0.57
  -4   1  13   24.14    2.09
  -4   1  13   25.41    1.95
  -4   1  12   74.33    4.08
  -4   1  12   75.53    4.42
  -4   1  12   73.40    4.17
  -4   1  12   64.94    3.37
  -4   1  11  183.66    7.62
  -4   1  11  179.36    7.43
  -4   1  11  170.83    6.56
  -4   1  11  160.46    5.42
  -4   1  10  279.58   10.24
  -4   1  10  272.76    9.35
  -4   1   9   84.21    5.49
  -4   1   9   81.74    5.02
  -4   1   8  752.37   19.92
  -4   1   8  707.24   17.29
  -4   1   8  730.53   16.19
  -4   1   8  711.91   19.01
  -4   1   8  738.85   18.71
  -4   1   7   58.89    5.85
  -4   1   7   49.49    4.15
  -4   1   7   56.10    4.71
  -4   1   7   47.66    3.62
  -4   1   7   63.39    3.73
  -4   1   6  399.38   15.06
  -4   1   6  355.57   11.84
  -4   1   6  345.20   12.34
  -4   1   6  361.97    9.41
  -4   1   6  370.96   13.28
  -4   1   6  325.81   10.72
  -4   1   6  354.09   10.28
  -4   1   6  377.45   12.25
  -4   1   5  318.33   12.29
  -4   1   5  307.62   10.94
   4  -1  -5  287.64    8.37
  -4   1   5  312.35    8.36
  -4   1   5  311.48   11.47
  -4   1   5  295.11    8.99
  -4   1   5  283.89    9.13
  -4   1   5  313.13   11.08
  -4   1   4  250.57    9.76
  -4   1   4  244.95    9.07
   4  -1  -4  221.70    7.36
  -4   1   4  221.88    7.80
  -4   1   4  230.20    8.24
  -4   1   4  248.10    9.38
   4  -1  -3  745.66   16.57
  -4   1   3  748.59   17.23
   4  -1  -2   23.95    2.24
  -4   1   2   22.00    2.33
   4  -1  -1  402.29   10.82
   4  -1   0   23.62    2.20
  -4   1   0   22.39    2.47
  -4   1  -1  908.69   20.95
   4  -1   2  382.71   10.11
  -4   1  -2  333.11   11.12
   4  -1   3    8.70    1.32
  -4   1  -3    8.16    1.61
   4  -1   4    3.87    0.86
  -4   1  -4    3.40    1.05
   4  -1   5  140.65    5.13
  -4   1  -5  133.13    6.49
   4  -1   6  582.15   12.57
  -4   1  -6  589.32   15.43
   4  -1   7   89.36    4.40
   4  -1   7  102.99    5.35
   4  -1   8  398.14   10.85
   4  -1   8  417.33   10.65
   4  -1   9  536.55   13.06
   4  -1   9  520.53   12.28
   4  -1   9  538.22   14.58
   4  -1   9  535.00   12.46
   4  -1  10    4.64    0.99
   4  -1  10    5.18    1.23
   4  -1  10    5.00    0.89
   4  -1  10    4.64    1.09
   4  -1  10    4.86    1.00
   4  -1  11  760.57   15.94
   4  -1  11  721.06   14.36
   4  -1  11  748.81   16.88
   4  -1  11  739.08   15.60
   4  -1  12   35.56    2.39
   4  -1  13  175.26    5.92
   4  -1  13  179.18    5.43
   4  -1  14   81.09    3.25
   4  -1  14   79.93    3.76
   4  -1  14   81.69    2.95
  -4   0  13  184.60    5.12
  -4   0  13  200.37    6.21
  -4   0  12  291.85    8.29
  -4   0  12  303.10    9.41
  -4   0  11   23.04    2.36
  -4   0  11   21.62    2.63
  -4   0  11   19.77    1.92
  -4   0  10  335.13   10.92
  -4   0  10  319.27   11.89
  -4   0  10  340.61   11.09
  -4   0  10  317.30   10.95
  -4   0  10  307.28    9.60
  -4   0  10  305.71    8.59
  -4   0   9    4.66    1.00
  -4   0   9    7.29    1.68
  -4   0   9    6.35    1.58
  -4   0   9    4.45    1.48
  -4   0   9    5.20    1.25
  -4   0   9    6.52    1.57
  -4   0   9    7.86    1.14
  -4   0   8  312.92   11.63
  -4   0   8  263.62   10.42
  -4   0   8  227.49   11.03
  -4   0   8  286.49   10.62
  -4   0   8  262.22    9.38
  -4   0   8  244.25    7.74
  -4   0   7  253.95   11.58
  -4   0   7  296.51    8.70
  -4   0   7  293.61   10.95
  -4   0   7  274.36   10.76
  -4   0   7  277.55    8.56
  -4   0   7  279.49    9.92
  -4   0   6    7.60    1.67
  -4   0   6    2.73    1.08
  -4   0   6    7.58    1.25
  -4   0   6    4.29    1.09
  -4   0   6    2.53    0.79
  -4   0   6    1.44    0.76
  -4   0   6    3.64    1.25
  -4   0   5  921.72   22.63
   4   0  -5  879.39   18.56
  -4   0   5  911.87   18.93
  -4   0   5  963.87   22.40
  -4   0   5  882.85   19.98
  -4   0   5  932.51   19.54
  -4   0   4    7.25    1.60
  -4   0   4    6.28    1.43
  -4   0   4    9.07    1.72
   4   0  -4    6.60    1.21
  -4   0   4    5.87    1.14
  -4   0   4    8.39    1.56
  -4   0   4    6.06    1.37
  -4   0   3   25.88    2.38
  -4   0   2  111.83    5.22
  -4   0   1   13.32    1.70
  -4   0   1   13.79    1.79
  -4   0  -1   43.15    3.09
  -4   0  -1   43.08    3.36
  -4   0  -2  802.62   17.99
  -4   0  -2  843.23   18.98
  -4   0  -3    2.64    0.83
  -4   0  -3    1.97    0.78
  -4   0  -4  307.80   10.11
   4   0   5  114.53    4.88
   4   0   6  631.36   14.50
   4   0   6  668.92   14.29
   4   0   6  656.87   15.61
   4   0   7   93.91    4.95
   4   0   7   86.61    4.23
   4   0   7   85.15    3.66
   4   0   8  110.76    5.61
   4   0   8  114.52    5.07
   4   0   8  116.81    5.00
   4   0   9  492.28   13.98
   4   0   9  537.28   12.56
   4   0  10  960.26   19.21
   4   0  11  165.69    7.05
   4   0  11  167.70    5.51
   4   0  11  173.99    6.63
   4   0  12   12.26    1.52
   4   0  12   11.79    1.24
   4   0  12   11.75    1.62
   4   0  13   56.35    3.18
   4   0  13   56.17    3.41
   4   0  13   57.74    3.11
   4   0  14  389.07    9.23
   4   0  14  426.10    9.52
   4   0  15   80.20    2.87
  -4  -1  13   10.30    1.08
  -4  -1  12   72.08    3.81
  -4  -1  11   18.71    2.27
  -4  -1  11   18.26    2.17
  -4  -1  11   14.13    1.61
  -4  -1  10  284.47    8.93
  -4  -1  10  272.43    9.92
  -4  -1  10  282.85   10.66
  -4  -1  10  265.22    7.96
  -4  -1  10  247.96    6.98
  -4  -1   9   27.98    2.83
  -4  -1   9   27.23    3.13
  -4  -1   9   25.40    3.36
  -4  -1   9   23.53    2.36
  -4  -1   9   26.53    2.23
  -4  -1   9   27.88    2.07
  -4  -1   9   26.50    2.39
  -4  -1   8  447.12   13.32
  -4  -1   8  409.13   13.78
  -4  -1   8  413.28   15.74
  -4  -1   8  429.46   13.34
  -4  -1   8  412.43   11.89
  -4  -1   8  412.41   11.18
  -4  -1   8  423.29   10.59
  -4  -1   8  407.21   10.98
  -4  -1   7   48.70    3.15
  -4  -1   7   57.75    4.43
  -4  -1   7   55.90    5.78
  -4  -1   7   55.76    3.54
  -4  -1   7   55.43    4.35
  -4  -1   7   54.69    3.84
  -4  -1   7   49.85    3.43
  -4  -1   6   49.82    3.11
  -4  -1   6   59.24    4.55
  -4  -1   6   56.97    5.39
  -4  -1   6   50.68    3.99
  -4  -1   6   56.95    3.54
  -4  -1   6   52.78    4.28
  -4  -1   6   52.47    3.31
  -4  -1   6   53.03    3.84
  -4  -1   5  930.95   19.65
  -4  -1   5 1095.69   23.88
  -4  -1   5  956.33   23.81
  -4  -1   5 1015.01   25.24
  -4  -1   5  969.63   22.07
  -4  -1   5  974.96   20.77
  -4  -1   5 1069.89   23.64
  -4  -1   5 1004.06   20.70
  -4  -1   5  993.68   21.95
  -4  -1   4    1.77    0.79
  -4  -1   4    0.88    0.61
  -4  -1   4    2.56    1.00
  -4  -1   4    0.11    0.41
  -4  -1   4    1.67    0.63
  -4  -1   4    0.36    0.45
  -4  -1   4    0.89    0.48
  -4  -1   4    0.68    0.52
  -4  -1   4    2.53    0.94
  -4  -1   3  788.06   18.34
  -4  -1   3  765.46   18.94
  -4  -1   3  730.89   16.79
  -4  -1   2  124.94    6.20
  -4  -1   2  134.50    5.76
  -4  -1   1 4304.95   70.78
  -4  -1   1 3996.94   69.70
  -4  -1   0 3774.27   61.56
  -4  -1   0 3415.48   61.86
   4   1   1  829.11   15.62
  -4  -1  -1  857.51   17.95
  -4  -1  -1  843.38   19.21
  -4  -1  -2  319.89    8.22
  -4  -1  -2  310.30    9.87
   4   1   3   18.62    1.62
  -4  -1  -3    0.93    0.59
   4   1   4  816.89   17.05
  -4  -1  -4  835.85   18.95
   4   1   5 1299.53   25.24
  -4  -1  -5 1317.92   26.51
   4   1   6  256.85    7.61
   4   1   6  266.85    8.39
  -4  -1  -6  255.76    8.48
   4   1   7  778.21   17.83
   4   1   7  789.63   16.81
   4   1   8  111.44    4.91
   4   1   8  117.81    5.01
   4   1   8  114.04    5.55
   4   1   9  193.78    6.80
   4   1   9  199.11    6.72
   4   1   9  189.90    7.59
   4   1  10  358.60    9.89
   4   1  10  348.77    9.43
   4   1  10  344.70   11.00
   4   1  11  203.35    6.97
   4   1  11  195.08    6.38
   4   1  11  200.25    7.15
   4   1  12    6.79    1.01
   4   1  12    7.32    1.23
   4   1  12    7.11    1.24
   4   1  13   17.83    1.53
   4   1  13   18.11    1.88
   4   1  14  258.35    7.66
   4   1  15   14.07    1.30
   4   1  16  129.40    3.69
  -4  -2  12    4.17    0.72
  -4  -2  11  130.25    5.65
  -4  -2  11  127.52    5.26
  -4  -2  10  373.16   11.55
  -4  -2  10  379.40   11.51
  -4  -2  10  348.12    9.86
  -4  -2   9   11.47    1.57
  -4  -2   9   10.94    1.98
  -4  -2   9   11.63    2.10
  -4  -2   9   10.44    1.45
  -4  -2   9   10.76    1.36
  -4  -2   9   13.90    1.44
  -4  -2   9   11.61    1.62
  -4  -2   8  147.01    6.33
  -4  -2   8  145.98    5.91
  -4  -2   8  147.92    5.62
  -4  -2   8  147.16    5.40
  -4  -2   8  142.45    5.92
  -4  -2   7  280.18    9.49
  -4  -2   7  242.30   10.67
  -4  -2   7  298.53   13.40
  -4  -2   7  263.11    8.67
  -4  -2   7  269.28    8.86
  -4  -2   7  264.03    8.35
  -4  -2   7  282.33    8.24
  -4  -2   7  273.92    8.61
  -4  -2   6   47.63    3.22
  -4  -2   6   44.63    3.61
  -4  -2   6   38.34    4.15
  -4  -2   6   49.49    5.39
  -4  -2   6   42.69    3.68
  -4  -2   6   42.29    4.08
  -4  -2   6   45.16    3.38
  -4  -2   6   42.41    3.13
  -4  -2   6   43.69    2.99
  -4  -2   5  655.58   15.48
  -4  -2   5  669.00   17.34
  -4  -2   5  716.07   17.40
  -4  -2   5  670.90   18.88
  -4  -2   5  685.66   16.50
  -4  -2   5  667.08   15.86
  -4  -2   4    3.23    0.88
  -4  -2   4    3.72    1.04
  -4  -2   4    1.88    0.96
  -4  -2   4    4.21    1.28
  -4  -2   4    1.97    0.85
  -4  -2   4    3.48    1.25
  -4  -2   4    2.54    0.77
  -4  -2   4    2.94    0.93
  -4  -2   4    2.25    0.86
  -4  -2   3  244.54    8.40
  -4  -2   3  241.87    9.75
  -4  -2   3  230.34    9.39
  -4  -2   3  223.28    7.91
  -4  -2   3  222.02    7.96
  -4  -2   2   28.23    2.66
  -4  -2   2   22.34    2.16
  -4  -2   1  250.80    9.27
  -4  -2   1  258.96    9.13
  -4  -2   0 2190.90   40.97
  -4  -2  -1   84.65    4.61
  -4  -2  -2  115.41    5.28
   4   2   2  134.94    4.17
  -4  -2  -3  289.13    8.38
   4   2   3  304.18    7.61
  -4  -2  -4  160.78    7.24
   4   2   4  145.58    5.16
  -4  -2  -5   98.29    5.52
   4   2   5   89.68    4.17
   4   2   6  258.42    7.42
  -4  -2  -6  259.46    9.32
   4   2   6  249.75    7.68
   4   2   6  239.61    7.79
   4   2   7  279.13    8.04
   4   2   7  273.68    8.24
  -4  -2  -7  289.38    9.52
   4   2   7  266.20    8.66
   4   2   8    0.89    0.56
   4   2   8    1.14    0.52
   4   2   9  276.98    8.21
   4   2   9  263.96    9.25
   4   2  10  147.20    5.74
   4   2  10  148.36    5.59
   4   2  10  145.37    5.00
   4   2  11  647.98   14.61
   4   2  11  643.70   14.16
   4   2  12  165.70    6.12
   4   2  12  161.18    5.61
   4   2  12  148.08    5.74
   4   2  13   46.24    2.68
   4   2  13   44.33    2.86
   4   2  13   45.62    2.99
   4   2  14  117.10    4.15
   4   2  14  128.07    4.90
   4   2  15   24.87    1.84
   4   2  16  273.18    6.39
   4   2  16  273.89    6.38
  -4  -3  11   61.53    3.31
  -4  -3  10  507.65   12.11
  -4  -3   9   32.27    2.81
  -4  -3   9   28.28    2.44
  -4  -3   8   54.52    4.48
  -4  -3   8   57.09    4.26
  -4  -3   8   56.73    4.16
  -4  -3   8   57.86    3.18
  -4  -3   8   55.64    3.55
  -4  -3   7  484.26   12.62
  -4  -3   7  457.69   11.77
  -4  -3   7  439.44   15.08
  -4  -3   7  522.63   15.69
  -4  -3   7  492.01   12.57
  -4  -3   7  485.40   11.74
  -4  -3   7  478.23   11.79
  -4  -3   6  232.89    7.98
  -4  -3   6  211.19    7.50
  -4  -3   6  201.74   10.11
  -4  -3   6  229.95    7.92
  -4  -3   6  204.78    7.33
  -4  -3   6  217.36    7.35
  -4  -3   6  216.63    7.26
  -4  -3   6  229.30   12.16
  -4  -3   5  158.30    6.46
  -4  -3   5  163.67    6.58
  -4  -3   5  155.78    9.13
  -4  -3   5  161.70    7.53
  -4  -3   5  159.49    6.56
  -4  -3   5  169.44    8.53
  -4  -3   5  161.05    5.71
  -4  -3   5  152.78    6.34
  -4  -3   5  168.29    6.42
  -4  -3   5  164.52    6.19
  -4  -3   5  186.56   11.67
  -4  -3   4  104.73    5.18
  -4  -3   4  108.03    5.19
  -4  -3   4  106.64    7.66
  -4  -3   4   92.09    5.54
  -4  -3   4   95.69    5.07
  -4  -3   4   96.86    6.25
  -4  -3   4  103.34    5.02
  -4  -3   4   91.18    4.22
  -4  -3   4  101.43    5.12
  -4  -3   4   97.97    4.81
  -4  -3   3  555.56   13.67
  -4  -3   3  503.09   14.58
  -4  -3   3  527.86   14.03
  -4  -3   3  551.60   16.13
  -4  -3   3  554.78   14.26
  -4  -3   3  495.46   12.43
  -4  -3   3  539.06   13.73
  -4  -3   3  516.48   13.22
  -4  -3   2  399.46   10.93
  -4  -3   2  367.76   11.77
  -4  -3   2  398.37   11.71
  -4  -3   2  389.15   12.85
  -4  -3   2  386.03   11.01
  -4  -3   2  370.62   10.58
  -4  -3   1   35.86    3.20
  -4  -3   1   34.43    3.10
  -4  -3   1   41.94    3.70
  -4  -3   1   37.74    2.83
  -4  -3   0 1189.97   25.58
  -4  -3   0 1117.47   24.68
  -4  -3   0 1158.67   22.85
  -4  -3  -1  143.33    6.67
  -4  -3  -1  129.50    6.30
  -4  -3  -2  244.42    8.95
  -4  -3  -3  357.37   11.03
  -4  -3  -3  359.93   11.70
  -4  -3  -4   45.36    3.33
   4   3   5  868.97   17.76
   4   3   6  466.75   11.39
   4   3   7  816.53   16.60
   4   3   7  826.52   17.27
  -4  -3  -7  786.33   20.08
   4   3   8  190.87    6.28
   4   3   8  192.68    6.56
  -4  -3  -8  189.75    7.94
   4   3   9  208.56    6.72
   4   3   9  186.31    6.55
   4   3  10  330.28    9.27
   4   3  10  334.35    9.26
   4   3  10  327.87    8.86
   4   3  11   50.18    3.19
   4   3  11   47.64    2.91
   4   3  11   40.19    2.49
   4   3  11   43.49    2.98
   4   3  12  239.13    7.35
   4   3  12  242.02    7.09
   4   3  12  234.60    6.37
   4   3  12  252.99    7.86
   4   3  13    1.16    0.57
   4   3  13    0.54    0.40
   4   3  14  158.33    5.19
   4   3  14  153.34    5.50
   4   3  15   91.51    3.73
   4   3  15   86.28    3.24
   4   3  15   82.68    3.54
   4   3  16   44.55    1.97
  -4  -4  11   98.09    3.37
  -4  -4  10  307.74    8.37
  -4  -4   9   64.70    3.94
  -4  -4   9   62.17    3.39
  -4  -4   8   63.77    4.39
  -4  -4   8   62.30    4.04
  -4  -4   8   64.01    3.65
  -4  -4   7  356.86   12.37
  -4  -4   7  349.92   11.30
  -4  -4   7  351.16   10.15
  -4  -4   6   11.03    2.22
  -4  -4   6   13.03    2.34
  -4  -4   6   10.00    1.44
  -4  -4   5  359.76   14.25
  -4  -4   5  332.09   10.00
  -4  -4   5  331.16    9.71
  -4  -4   4   52.48    4.25
  -4  -4   4   52.33    3.61
  -4  -4   4   59.29    4.93
  -4  -4   4   51.11    3.53
  -4  -4   4   52.64    3.32
  -4  -4   4   57.00    3.57
  -4  -4   3  290.74   10.83
  -4  -4   3  316.19    9.97
  -4  -4   3  295.39   11.65
  -4  -4   3  296.99    9.02
  -4  -4   3  310.00    9.39
   4   4  -3  318.60    9.04
  -4  -4   3  316.59    9.33
  -4  -4   2  234.39    8.53
  -4  -4   2  240.40   10.02
  -4  -4   2  220.62    7.66
  -4  -4   2  235.55    7.74
  -4  -4   1    2.48    1.06
  -4  -4   1    3.61    1.09
  -4  -4   1    2.98    0.98
  -4  -4   1    4.12    0.97
  -4  -4   0  755.14   19.44
  -4  -4   0  733.10   18.28
  -4  -4   0  730.38   16.54
  -4  -4   0  742.07   16.26
  -4  -4  -1   98.72    5.82
  -4  -4  -1   95.04    5.83
  -4  -4  -1   97.08    5.56
  -4  -4  -1   97.22    4.42
  -4  -4  -2  117.05    6.45
  -4  -4  -2  128.37    6.89
  -4  -4  -2  112.44    6.16
  -4  -4  -2  116.83    4.76
  -4  -4  -3  111.78    6.57
  -4  -4  -3  102.04    5.93
  -4  -4  -4   40.31    4.03
  -4  -4  -4   40.02    3.77
   4   4   5  696.08   14.44
  -4  -4  -5  640.76   18.45
   4   4   6    1.02    0.46
   4   4   7  100.09    4.37
   4   4   8   94.32    4.31
  -4  -4  -8   90.16    5.85
   4   4   8   93.86    4.21
   4   4   9  275.06    8.13
   4   4   9  263.48    8.14
   4   4   9  270.07    7.85
   4   4  10  613.72   13.99
   4   4  10  594.18   13.69
   4   4  10  605.75   13.82
   4   4  11   18.29    1.87
   4   4  11   13.78    1.52
   4   4  11   15.82    1.77
   4   4  12  265.07    7.84
   4   4  12  251.05    6.97
   4   4  12  244.77    7.95
   4   4  12  245.16    7.71
   4   4  13    8.50    1.26
   4   4  13    7.26    1.19
   4   4  14  418.27   10.16
   4   4  14  441.75   10.24
   4   4  14  444.81   10.49
   4   4  15  188.19    5.19
   4   4  15  175.29    5.21
  -4  -4 -16  190.29    6.45
  -4  -5   9  118.30    4.34
  -4  -5   8    1.00    0.52
  -4  -5   8    1.55    0.66
  -4  -5   7   99.77    5.22
  -4  -5   7   97.73    4.96
  -4  -5   7   94.74    4.40
  -4  -5   6   44.21    3.09
  -4  -5   6   43.98    3.78
  -4  -5   6   46.10    3.60
  -4  -5   5  422.53   11.51
  -4  -5   5  450.58   14.33
  -4  -5   4  143.05    6.22
  -4  -5   4  131.92    6.86
  -4  -5   4  141.37    5.75
  -4  -5   4  133.71    7.57
  -4  -5   4  140.77    5.72
  -4  -5   3   19.83    2.29
  -4  -5   3   26.66    3.68
  -4  -5   3   18.66    2.56
  -4  -5   3   22.20    2.28
  -4  -5   3   19.99    2.90
  -4  -5   3   18.42    2.02
  -4  -5   3   22.86    2.27
  -4  -5   2  342.29   11.03
  -4  -5   2  325.29   11.70
  -4  -5   2  354.80   10.52
  -4  -5   2  331.01   12.51
  -4  -5   2  339.23   10.18
   4   5  -2  343.04    9.80
  -4  -5   2  357.50   10.23
   4   5  -1   25.31    2.42
  -4  -5   1   23.10    2.54
  -4  -5   1   19.42    2.82
  -4  -5   1   24.59    2.50
  -4  -5   1   23.32    2.29
  -4  -5   0  907.30   20.79
  -4  -5   0  901.98   22.66
   4   5   0  882.61   19.42
  -4  -5   0  872.53   19.12
  -4  -5  -1   34.41    3.66
   4   5   1   38.92    3.01
  -4  -5  -1   38.65    3.88
  -4  -5  -1   39.64    3.54
  -4  -5  -1   35.93    2.77
  -4  -5  -2  165.60    8.29
   4   5   2  170.93    6.66
  -4  -5  -2  184.82    8.93
  -4  -5  -2  160.77    7.54
  -4  -5  -2  155.58    5.97
  -4  -5  -3   54.70    4.80
  -4  -5  -3   72.11    5.74
  -4  -5  -3   56.56    4.44
   4   5   3   60.85    3.80
  -4  -5  -3   58.48    3.35
  -4  -5  -4   76.62    5.95
  -4  -5  -4   87.11    6.63
  -4  -5  -4   85.30    5.65
   4   5   5  375.32   10.57
  -4  -5  -5  364.46   14.91
  -4  -5  -5  351.91   12.66
   4   5   6   69.04    3.40
  -4  -5  -6   60.74    5.05
   4   5   6   68.06    3.92
   4   5   7  591.27   13.94
   4   5   7  567.86   12.97
  -4  -5  -7  567.08   17.78
   4   5   8   50.69    3.06
   4   5   8   45.03    2.93
   4   5   9  273.01    8.09
  -4  -5  -9  265.22   10.44
   4   5   9  254.42    8.05
   4   5  10  239.89    7.55
   4   5  10  231.10    7.35
   4   5  11    1.16    0.48
   4   5  11    0.99    0.50
   4   5  12  123.70    5.01
   4   5  12  116.79    4.50
   4   5  12  120.73    4.70
   4   5  12  123.28    5.34
   4   5  13    1.25    0.50
   4   5  13    0.21    0.33
   4   5  13    1.24    0.46
   4   5  13    1.01    0.51
   4   5  14   33.39    2.19
  -4  -5 -15  270.28    8.68
  -4  -6   8    5.36    0.76
  -4  -6   7  201.79    6.31
  -4  -6   7  194.00    5.83
  -4  -6   6  269.25    8.41
  -4  -6   6  272.27    7.68
  -4  -6   5   77.40    3.90
  -4  -6   5   76.90    4.50
  -4  -6   4   71.91    3.97
  -4  -6   4   73.34    3.41
  -4  -6   3   59.34    3.74
  -4  -6   3   54.48    4.19
  -4  -6   3   51.91    3.03
  -4  -6   3   49.87    3.43
  -4  -6   3   53.04    3.37
  -4  -6   2  257.88    8.76
  -4  -6   2  242.50    9.65
  -4  -6   2  242.18    7.61
  -4  -6   2  235.13   10.19
  -4  -6   2  249.26    8.24
  -4  -6   1   38.13    3.26
   4   6  -1   32.77    2.70
  -4  -6   1   35.03    2.77
  -4  -6   1   34.77    3.78
  -4  -6   1   38.54    3.06
  -4  -6   0  195.37    7.37
  -4  -6   0  208.82    9.47
   4   6   0  204.33    7.27
  -4  -6  -1  346.71   12.66
  -4  -6  -1  339.28   10.81
  -4  -6  -1  366.12   13.05
  -4  -6  -2   85.71    5.93
  -4  -6  -2   90.41    6.15
  -4  -6  -2   84.14    5.04
   4   6   2   83.71    3.94
   4   6   2   80.80    4.50
  -4  -6  -3  317.44   12.28
  -4  -6  -3  321.42   11.06
   4   6   3  340.02   10.22
  -4  -6  -4    5.32    1.62
  -4  -6  -4    5.17    1.67
  -4  -6  -4    2.84    1.11
   4   6   4    3.37    0.87
  -4  -6  -5  349.91   13.23
  -4  -6  -5  338.40   13.72
  -4  -6  -5  328.37   11.65
   4   6   5  316.87    9.32
   4   6   5  321.47    9.80
  -4  -6  -6   11.60    2.40
  -4  -6  -6   10.23    2.02
   4   6   6    8.40    1.42
   4   6   6    9.75    1.48
   4   6   7  451.75   10.62
  -4  -6  -7  430.64   14.33
   4   6   7  437.38   11.32
   4   6   8  928.77   18.94
  -4  -6  -8  926.69   23.76
   4   6   8  965.81   19.71
   4   6   9   68.03    3.61
  -4  -6  -9   62.97    5.11
   4   6   9   70.24    3.74
   4   6  10  122.39    4.96
  -4  -6 -10  106.14    6.72
   4   6  11    2.66    0.76
  -4  -6 -11    2.05    1.04
   4   6  11    2.11    0.68
   4   6  12  669.70   14.66
   4   6  12  687.73   15.53
   4   6  13   51.76    2.83
  -4  -6 -13   49.65    3.77
   4   6  13   54.15    2.65
   4   6  13   50.29    2.86
   4   6  14   13.78    1.28
  -4  -6 -14   12.27    1.56
   4   6  15  125.41    3.59
  -4  -7   6   27.67    1.79
  -4  -7   6   24.86    1.54
  -4  -7   5    4.25    0.87
  -4  -7   5    9.67    1.09
  -4  -7   4    4.02    0.79
  -4  -7   3  150.36    5.41
  -4  -7   2  890.91   18.33
  -4  -7   2  848.54   19.97
  -4  -7   1   70.24    3.92
  -4  -7   1   71.80    4.67
  -4  -7   0  148.69    6.20
  -4  -7   0  143.56    5.96
  -4  -7  -1  116.29    5.64
  -4  -7  -1  111.97    5.36
  -4  -7  -2  236.26    9.75
  -4  -7  -2  232.33    8.26
  -4  -7  -3  221.71    9.41
   4   7   3  199.47    6.14
  -4  -7  -3  219.30    8.07
  -4  -7  -4   63.77    4.92
   4   7   4   51.44    3.00
  -4  -7  -5  728.80   19.25
   4   7   5  651.78   14.63
  -4  -7  -6  142.80    7.50
   4   7   6  138.42    5.28
  -4  -7  -7  473.31   13.33
   4   7   7  502.95   11.90
  -4  -7  -8  339.53   10.95
   4   7   8  388.29    9.88
   4   7   9    7.64    1.09
  -4  -7  -9    9.10    1.59
   4   7   9   10.46    1.38
   4   7  10   60.63    3.09
  -4  -7 -10   57.49    3.82
   4   7  11    2.36    0.63
   4   7  12  207.95    5.98
   4   7  12  225.38    6.27
   4   7  12  228.48    6.79
   4   7  13   69.26    2.80
   4   7  13   69.60    2.99
  -4  -8   4  108.77    3.57
  -4  -8   3    0.81    0.30
  -4  -8   2  204.44    5.47
  -4  -8   1  157.63    4.88
  -4  -8   1  167.64    6.17
  -4  -8   0    1.23    0.50
  -4  -8   0    1.18    0.65
  -4  -8  -1  280.06    7.81
  -4  -8  -1  280.37    9.24
  -4  -8  -1  306.11    8.37
  -4  -8  -2    0.56    0.39
  -4  -8  -2    1.71    0.63
  -4  -8  -3   36.68    2.64
  -4  -8  -3   40.71    2.79
  -4  -8  -4    0.31    0.38
  -4  -8  -5   39.40    3.36
   4   8   5   33.08    2.10
  -4  -8  -5   37.22    2.69
   4   8   6  130.40    4.61
  -4  -8  -6  137.36    5.37
  -4  -8  -7    1.19    0.56
   4   8   7    1.81    0.59
   4   8   8   41.22    2.47
  -4  -8  -8   43.97    2.65
  -4  -8  -9   60.52    3.85
   4   8   9   70.11    3.21
  -4  -8  -9   68.02    3.00
   4   8  10  256.23    6.82
   4   8  11   20.96    1.56
   4   8  12   75.39    2.81
  -4  -9   0   74.37    2.97
  -4  -9  -1   72.57    3.18
   4   9   1   63.73    2.65
  -4  -9  -2    1.21    0.48
   4   9   2    0.28    0.31
  -4  -9  -3   90.81    3.84
   4   9   3   83.57    3.60
  -4  -9  -4    1.80    0.58
   4   9   4    1.08    0.46
   4   9   5  266.03    7.41
  -4  -9  -5  289.52    6.72
   4   9   6  301.11    7.77
  -4  -9  -6  295.82    6.69
   4   9   7  121.38    4.23
   4   9   8   70.78    2.77
   4   9   8   64.74    2.33
   4   9   9   11.69    1.09
  -5   8   2    5.42    0.87
  -5   7   8   34.03    1.98
  -5   7   7   61.10    3.14
  -5   7   6   48.50    2.78
  -5   7   6   46.88    2.97
  -5   7   5  405.60   10.86
  -5   7   5  371.92   10.27
  -5   7   4    8.78    1.57
  -5   7   4    9.37    1.43
   5  -7  -4    9.82    1.23
  -5   7   3   59.01    3.35
   5  -7  -3   60.48    3.11
  -5   7   2   19.60    2.59
   5  -7  -2   17.48    1.65
  -5   7   1  181.53    8.04
  -5   7   0  389.90   11.95
   5  -7   0  368.16    9.00
  -5   7  -1   71.33    4.24
   5  -7   1   60.97    2.47
   5  -7   1   67.46    3.01
  -5   7  -2  204.87    6.71
   5  -7   2  190.69    4.90
   5  -7   3    3.76    0.57
   5  -7   4  316.26    7.30
  -5   6  10  254.19    6.17
  -5   6   9    9.43    1.03
  -5   6   8   40.97    2.87
  -5   6   8   30.72    2.08
  -5   6   7   68.86    4.24
  -5   6   6  110.13    5.38
  -5   6   6  117.46    6.05
   5  -6  -6  105.19    4.21
  -5   6   5  533.68   15.58
   5  -6  -5  507.68   12.10
  -5   6   4   23.56    3.16
  -5   6   4   19.00    2.78
   5  -6  -4   21.13    1.97
  -5   6   3  110.71    7.51
  -5   6   3  103.24    6.47
   5  -6  -3  103.66    4.63
  -5   6   2    0.93    0.95
  -5   6   2    2.47    1.00
   5  -6  -2    2.63    0.78
  -5   6   1  405.76   16.19
  -5   6   0  419.87   16.05
   5  -6   0  443.67   10.97
  -5   6  -1   93.21    6.56
   5  -6   1   93.05    4.12
  -5   6  -2  231.18    9.87
   5  -6   2  238.55    6.89
  -5   6  -3   23.30    2.67
   5  -6   3   22.14    1.84
   5  -6   3   21.24    1.70
   5  -6   4  105.68    4.04
   5  -6   5  175.46    5.27
   5  -6   6  157.35    5.03
   5  -6   6  162.29    4.69
   5  -6   7  164.37    4.43
  -5   5  11    2.56    0.59
  -5   5  10  140.43    4.95
  -5   5  10  138.95    5.30
  -5   5   9    6.93    1.32
  -5   5   8  158.81    6.72
  -5   5   8  142.64    6.72
  -5   5   7   33.60    2.62
  -5   5   7   24.88    2.90
  -5   5   6    1.35    0.78
  -5   5   6    2.89    1.19
  -5   5   6    4.20    1.26
   5  -5  -6    1.67    0.59
  -5   5   5  277.35   10.84
  -5   5   5  274.46   11.53
   5  -5  -5  253.13    7.96
  -5   5   4   12.20    2.48
   5  -5  -4    8.48    1.41
  -5   5   3  173.32   10.42
   5  -5  -3  148.17    6.16
   5  -5  -2  288.87    9.16
   5  -5  -1    8.43    1.44
  -5   5   1    6.89    2.66
  -5   5   0  387.27   18.27
  -5   5  -1    8.45    2.52
   5  -5   1    7.45    1.32
   5  -5   2  166.87    6.06
  -5   5  -2  150.92    9.35
  -5   5  -3  553.68   17.97
   5  -5   3  594.00   13.24
   5  -5   4   49.84    2.82
  -5   5  -4   56.24    4.57
   5  -5   4   47.80    2.71
   5  -5   5  105.82    3.93
   5  -5   6  137.33    5.01
   5  -5   7  157.98    5.19
   5  -5   8    6.60    0.93
   5  -5   8    8.93    1.04
   5  -5   9   26.58    1.55
  -5   4  12  389.39    8.48
  -5   4  12  466.53    9.34
  -5   4  11   71.64    3.36
  -5   4  11   83.80    3.88
  -5   4  10  256.78    7.62
  -5   4  10  267.88    8.70
  -5   4   9   75.10    4.28
  -5   4   9   80.38    5.09
  -5   4   8  187.71    6.31
  -5   4   8  212.86    9.59
  -5   4   7  921.59   22.12
  -5   4   7 1145.91   24.86
  -5   4   7 1091.36   22.14
  -5   4   7 1002.67   27.00
  -5   4   6   18.65    2.24
  -5   4   6   21.97    2.60
  -5   4   6   29.22    3.31
  -5   4   6   18.98    3.27
   5  -4  -6   25.61    2.21
  -5   4   5  649.74   17.72
  -5   4   5  590.45   17.01
  -5   4   5  672.24   18.97
  -5   4   5  532.05   17.93
   5  -4  -5  611.31   14.57
   5  -4  -5  595.30   14.49
  -5   4   4   61.02    5.20
  -5   4   4   58.30    5.10
  -5   4   4   55.93    5.27
  -5   4   4   52.32    4.46
   5  -4  -4   53.62    3.58
   5  -4  -4   56.89    3.73
  -5   4   3  221.48   11.15
  -5   4   3  218.60   11.08
   5  -4  -3  191.15    7.35
   5  -4  -3  200.24    7.53
  -5   4   2  263.35   13.52
   5  -4  -2  245.97    8.55
  -5   4   1   15.11    3.58
  -5   4   1   18.40    3.95
   5  -4  -1   17.46    2.08
  -5   4   0  764.73   27.65
  -5   4   0  789.87   27.82
  -5   4   0  744.68   21.16
  -5   4  -1   67.71    7.42
  -5   4  -1   71.52    7.50
   5  -4   1   91.72    4.71
   5  -4   1   88.14    4.66
  -5   4  -2   15.71    3.29
  -5   4  -2   18.45    3.54
   5  -4   2   22.34    2.21
   5  -4   2   21.44    2.22
  -5   4  -3   63.24    5.98
  -5   4  -3   54.09    5.58
   5  -4   3   68.62    3.82
   5  -4   3   69.54    3.88
  -5   4  -4   29.47    3.75
   5  -4   4   31.44    2.41
   5  -4   5   27.10    2.29
  -5   4  -5   20.95    2.90
   5  -4   5   21.10    1.96
   5  -4   5   20.01    1.78
   5  -4   6   26.23    2.15
   5  -4   6   24.73    2.08
   5  -4   7  334.84    8.43
   5  -4   7  349.33    9.30
   5  -4   8   47.13    2.32
   5  -4   8   42.88    2.66
   5  -4   9  208.79    5.91
   5  -4   9  215.40    6.18
   5  -4  10  121.00    3.92
  -5   3  12   97.43    3.86
  -5   3  12   96.34    3.68
  -5   3  11  167.75    6.39
  -5   3  10  189.28    7.95
  -5   3  10  216.82    7.97
  -5   3   9    6.60    1.63
  -5   3   9    6.05    1.26
  -5   3   9    8.79    1.74
  -5   3   9    4.90    1.38
  -5   3   8    0.44    0.83
  -5   3   8    3.09    1.01
  -5   3   8    2.13    0.72
  -5   3   8    2.18    1.03
  -5   3   8    2.78    1.20
  -5   3   7  298.22   12.06
  -5   3   7  259.44   11.62
  -5   3   6   15.53    2.51
  -5   3   6   15.41    2.41
   5  -3  -6   13.93    1.65
  -5   3   6   17.65    2.23
  -5   3   6   16.16    3.28
  -5   3   5  109.46    6.28
  -5   3   5  118.27    6.43
  -5   3   5  117.34    6.33
  -5   3   5  119.00    6.90
  -5   3   5  111.47    8.20
   5  -3  -5  126.02    5.38
  -5   3   4    6.04    1.41
   5  -3  -4    7.73    1.40
  -5   3   4   10.44    2.04
  -5   3   4    4.74    1.36
  -5   3   4    7.61    1.84
  -5   3   4    4.83    1.56
  -5   3   3  205.66    7.92
   5  -3  -3  211.25    7.87
  -5   3   3  217.17   10.09
  -5   3   3  210.85    9.86
  -5   3   3  207.10   10.01
  -5   3   3  187.62    8.96
   5  -3  -2   79.87    4.67
  -5   3   2   83.86    6.48
  -5   3   2   80.62    6.41
  -5   3   2   77.58    6.14
   5  -3  -1   84.49    4.69
  -5   3   1   42.04    4.48
   5  -3   0  878.50   19.74
  -5   3   0  808.92   26.17
  -5   3   0  814.58   26.04
  -5   3   0  909.08   22.90
   5  -3   1   82.59    4.65
  -5   3  -1   95.21    7.78
  -5   3  -1   88.16    7.55
   5  -3   2  104.94    5.15
  -5   3  -2   93.28    7.54
  -5   3  -3  201.08   10.75
  -5   3  -3  193.30   10.56
   5  -3   4  559.13   13.46
  -5   3  -4  527.70   17.84
  -5   3  -4  549.45   18.08
   5  -3   4  575.01   13.29
  -5   3  -5  688.45   19.62
   5  -3   5  678.73   14.73
   5  -3   5  668.43   14.73
   5  -3   6  106.07    4.97
   5  -3   6   96.47    4.00
   5  -3   7  224.57    7.35
   5  -3   7  225.84    6.94
   5  -3   7  208.20    7.32
   5  -3   8  156.99    5.65
   5  -3   8  157.65    5.98
   5  -3   8  166.43    5.96
   5  -3   9  108.17    4.12
   5  -3   9  105.44    4.61
   5  -3   9  110.99    4.49
   5  -3  10  264.26    6.49
   5  -3  10  257.81    7.57
   5  -3  10  264.80    7.14
   5  -3  11   38.60    2.05
   5  -3  12  233.61    5.64
  -5   2  12   41.67    2.55
  -5   2  12   41.18    2.28
  -5   2  11   76.18    4.30
  -5   2  11   74.26    3.80
  -5   2  11   66.64    3.00
  -5   2  10  256.31    9.88
  -5   2   9   77.61    5.94
  -5   2   9   79.05    5.52
  -5   2   9   72.95    3.41
  -5   2   9   78.88    5.04
  -5   2   8   47.90    5.34
  -5   2   8   45.91    4.69
  -5   2   8   44.73    3.55
  -5   2   8   45.43    3.06
  -5   2   8   51.44    4.36
  -5   2   7  213.44   11.87
  -5   2   7  212.11   11.45
  -5   2   7  236.15    8.15
  -5   2   6   58.65    5.59
  -5   2   6   44.42    4.91
  -5   2   6   54.46    4.26
  -5   2   6   52.23    3.75
  -5   2   6   60.90    5.49
  -5   2   5  376.76   13.90
   5  -2  -5  358.95   10.35
  -5   2   5  366.04   13.35
  -5   2   5  384.55   11.82
  -5   2   5  386.11   12.78
  -5   2   5  365.61   11.55
  -5   2   5  403.63   15.36
  -5   2   4  177.13    8.50
   5  -2  -4  176.31    6.88
  -5   2   4  162.53    7.69
  -5   2   4  180.11    7.91
  -5   2   4  177.46    8.29
  -5   2   4  180.47    9.49
   5  -2  -3   71.25    4.30
  -5   2   3   65.74    4.67
  -5   2   3   68.30    5.03
  -5   2   3   65.88    4.88
  -5   2   3   74.05    5.30
  -5   2   3   69.53    5.35
  -5   2   2 1101.53   23.61
   5  -2  -2 1070.52   22.89
  -5   2   2 1039.00   25.71
  -5   2   2 1083.37   25.84
  -5   2   2  998.97   25.08
  -5   2   2 1056.82   24.41
  -5   2   1   14.35    1.94
   5  -2  -1   15.04    1.99
  -5   2   1   19.91    2.81
  -5   2   0  378.61   14.67
  -5   2   0  388.05   14.63
  -5   2   0  405.87   13.14
  -5   2  -1    2.13    1.27
  -5   2  -1    0.80    0.77
  -5   2  -2  214.71   10.76
  -5   2  -2  201.90   10.39
   5  -2   3  217.44    7.59
  -5   2  -3  186.33    9.82
  -5   2  -3  190.19    9.83
   5  -2   4    0.56    0.43
  -5   2  -4    0.60    0.71
  -5   2  -4    1.34    0.94
   5  -2   5  308.49    8.96
  -5   2  -5  316.12   12.25
   5  -2   6   12.39    1.77
   5  -2   6   12.31    1.47
   5  -2   7  447.77   13.49
   5  -2   7  450.83   12.03
   5  -2   8  156.49    6.11
   5  -2   8  153.62    5.70
   5  -2   8  148.01    5.74
   5  -2   9   87.62    4.19
   5  -2   9   85.18    3.68
   5  -2   9   89.43    4.51
   5  -2   9   89.07    4.09
   5  -2  10   68.04    3.36
   5  -2  10   67.23    3.71
   5  -2  10   70.24    3.40
   5  -2  11   10.69    1.18
   5  -2  11    9.30    1.32
   5  -2  11   10.69    1.17
   5  -2  12  104.52    4.22
   5  -2  12   97.14    3.25
  -5   1  12  153.02    4.98
  -5   1  12  139.74    4.27
  -5   1  11  222.46    6.84
  -5   1  10   20.06    2.14
  -5   1  10   17.83    1.79
  -5   1   9  121.55    7.07
  -5   1   9  112.70    5.80
  -5   1   8   46.74    4.94
  -5   1   8   35.00    3.96
  -5   1   8   43.49    4.36
  -5   1   8   38.59    2.75
  -5   1   7  506.76   19.13
  -5   1   7  409.29   14.87
  -5   1   7  465.97   16.51
  -5   1   7  450.85   13.17
  -5   1   7  457.28   12.24
  -5   1   7  505.08   15.14
  -5   1   6   76.23    6.75
  -5   1   6   68.20    3.58
  -5   1   6   74.15    6.18
  -5   1   6   71.19    4.29
  -5   1   6   82.33    5.81
  -5   1   5  230.87   11.21
   5  -1  -5  219.74    7.53
  -5   1   5  224.87    7.09
  -5   1   5  223.50   10.50
  -5   1   5  229.44    9.01
  -5   1   5  221.96    8.32
  -5   1   5  247.53   10.78
  -5   1   4   16.85    2.70
   5  -1  -4   17.56    2.08
  -5   1   4   16.03    1.74
  -5   1   4   23.18    2.59
  -5   1   4   20.44    2.56
  -5   1   4   16.16    2.16
  -5   1   4   20.77    2.95
  -5   1   3   29.98    3.30
   5  -1  -3   27.23    2.69
  -5   1   3   25.63    2.84
  -5   1   3   24.84    2.85
  -5   1   3   28.51    3.29
  -5   1   2  635.03   16.70
   5  -1  -2  602.88   15.64
  -5   1   2  643.31   17.25
  -5   1   2  601.07   16.68
  -5   1   2  643.72   17.17
   5  -1  -1  154.11    6.77
  -5   1   1  147.88    6.70
  -5   1   1  140.94    7.42
  -5   1   1  156.01    7.68
  -5   1   1  150.07    7.07
  -5   1   1  147.15    6.75
  -5   1   0  258.19    8.80
   5  -1   0  267.42    9.24
  -5   1   0  257.75    9.31
  -5   1   0  242.12    8.48
   5  -1   1  282.47    9.48
  -5   1  -1  254.09   10.76
  -5   1  -1  261.01   10.90
   5  -1   2  440.98   12.24
  -5   1  -2  417.13   14.21
   5  -1   3 1231.18   24.86
  -5   1  -3 1122.75   27.83
   5  -1   4   99.52    4.96
  -5   1  -4   82.82    5.92
   5  -1   5  524.06   12.90
  -5   1  -5  484.40   15.56
   5  -1   6   61.25    4.29
   5  -1   6   63.78    3.96
   5  -1   6   61.52    3.47
   5  -1   7  568.99   15.50
   5  -1   8 1053.71   23.78
   5  -1   8 1065.30   21.79
   5  -1   9   31.56    2.44
   5  -1   9   31.14    2.31
   5  -1  10  394.81    9.64
   5  -1  10  386.32   10.95
   5  -1  10  398.83    9.74
   5  -1  11   16.10    1.62
   5  -1  11   13.21    1.23
   5  -1  11   13.12    1.65
   5  -1  12  407.80    9.40
   5  -1  12  392.42   10.12
   5  -1  13   14.81    1.25
   5  -1  13   18.10    1.35
  -5   0  12  292.88    6.86
  -5   0  11   93.94    4.15
  -5   0  11   91.31    3.66
  -5   0  10   43.78    3.29
  -5   0  10   42.65    3.61
  -5   0  10   39.21    2.79
  -5   0  10   36.84    2.36
  -5   0   9   72.76    4.88
  -5   0   9   68.92    5.33
  -5   0   9   69.65    4.19
  -5   0   9   63.35    3.60
  -5   0   9   66.64    3.16
  -5   0   8    9.56    2.04
  -5   0   8   10.72    1.81
  -5   0   7  533.30   12.82
  -5   0   7  527.79   13.07
  -5   0   6  312.89   13.01
  -5   0   6  315.00    9.26
  -5   0   6  318.25    9.81
  -5   0   5  280.46   12.07
  -5   0   5  251.97   10.89
  -5   0   5  251.43    8.11
  -5   0   5  249.12    8.72
  -5   0   5  265.01   10.46
  -5   0   4  356.75   13.08
   5   0  -4  318.85   10.06
  -5   0   4  319.52    9.57
  -5   0   4  323.06   10.75
  -5   0   4  311.10   10.08
  -5   0   4  346.08   12.05
  -5   0   3  193.39    8.87
   5   0  -3  176.95    7.42
  -5   0   3  190.14    7.05
  -5   0   3  188.45    7.88
  -5   0   3  220.51    8.03
  -5   0   3  215.35    8.94
  -5   0   2  856.91   20.39
   5   0  -2  797.19   19.21
  -5   0   2  800.81   18.10
  -5   0   2  785.91   19.16
  -5   0   2  776.00   18.59
  -5   0   2  817.43   20.03
  -5   0   1   59.48    4.19
   5   0  -1   55.83    4.11
  -5   0   1   52.22    3.65
  -5   0   1   53.40    4.17
  -5   0   1   50.26    3.75
  -5   0   1   48.27    3.63
  -5   0   1   54.54    3.99
  -5   0   0  359.63   10.88
  -5   0   0  349.34   10.64
  -5   0   0  337.65   10.55
  -5   0   0  343.57   10.61
  -5   0  -1  314.81   10.22
  -5   0  -1  311.82   11.44
  -5   0  -1  325.88    9.69
  -5   0  -2  137.48    6.48
  -5   0  -2  133.03    7.20
   5   0   3  109.17    5.72
  -5   0  -3  104.22    5.87
  -5   0  -3  106.40    6.38
   5   0   4    5.40    1.17
   5   0   4    7.31    1.42
  -5   0  -4    6.33    1.52
   5   0   5  385.83   11.40
   5   0   5  390.71   11.22
   5   0   6   12.27    1.85
   5   0   6   11.77    1.68
   5   0   6   11.61    1.61
   5   0   7  138.75    6.53
   5   0   7  138.29    5.89
   5   0   7  135.41    5.32
   5   0   8  157.38    7.13
   5   0   8  167.39    6.58
   5   0   8  162.56    6.43
   5   0   9   44.64    3.20
   5   0   9   47.14    3.16
   5   0   9   45.40    3.67
   5   0  10   82.08    4.20
   5   0  10   83.64    3.98
   5   0  11    2.61    0.68
   5   0  11    3.36    0.90
   5   0  12  120.45    4.04
   5   0  12  127.77    5.09
   5   0  13    1.47    0.55
   5   0  14   32.63    1.82
  -5  -1  11  182.43    5.16
  -5  -1  10    9.98    1.64
  -5  -1  10    9.71    1.35
  -5  -1  10   10.55    1.32
  -5  -1   9  348.69   10.30
  -5  -1   9  350.07   12.11
  -5  -1   9  330.19    9.43
  -5  -1   9  325.97    8.68
  -5  -1   9  321.89    8.04
  -5  -1   8   63.03    4.40
  -5  -1   8   62.50    5.59
  -5  -1   8   58.08    3.83
  -5  -1   8   56.04    3.47
  -5  -1   8   58.93    3.21
  -5  -1   8   50.38    3.02
  -5  -1   7  172.51    8.10
  -5  -1   7  134.57    7.71
  -5  -1   7  175.53   10.68
  -5  -1   7  162.08    6.20
  -5  -1   7  150.10    6.80
  -5  -1   7  149.57    6.30
  -5  -1   7  145.21    5.47
  -5  -1   6  231.56   10.03
  -5  -1   6  198.68    9.76
  -5  -1   6  236.58   11.73
  -5  -1   6  214.83    7.50
  -5  -1   6  208.55    8.45
  -5  -1   6  199.31    7.67
  -5  -1   6  183.68    6.37
  -5  -1   5   40.39    2.72
  -5  -1   5   46.13    4.33
  -5  -1   5   38.36    4.07
  -5  -1   5   48.75    4.78
  -5  -1   5   40.69    3.11
  -5  -1   5   37.33    3.00
  -5  -1   4  538.54   13.02
  -5  -1   4  643.48   17.79
  -5  -1   4  598.59   17.56
  -5  -1   4  633.46   17.79
   5   1  -4  544.90   14.67
  -5  -1   4  586.35   14.63
  -5  -1   4  590.17   16.20
  -5  -1   3  152.68    5.77
  -5  -1   3  169.62    6.90
  -5  -1   3  165.17    6.78
  -5  -1   3  167.88    7.64
  -5  -1   2  293.64    9.77
  -5  -1   2  295.41    9.99
  -5  -1   2  284.14    9.44
  -5  -1   2  312.35   10.50
  -5  -1   1   22.09    2.57
  -5  -1   1   16.26    2.19
  -5  -1   1   19.08    2.43
  -5  -1   1   19.05    2.20
  -5  -1   1   20.69    2.45
  -5  -1   0  213.90    8.40
  -5  -1   0  213.66    8.77
  -5  -1   0  208.80    7.72
  -5  -1   0  219.92    8.16
  -5  -1  -1  822.30   19.71
  -5  -1  -1  772.72   20.04
  -5  -1  -1  782.65   18.27
  -5  -1  -2    1.65    0.85
  -5  -1  -2    0.52    0.61
  -5  -1  -2    1.86    0.73
   5   1   3   71.01    3.65
  -5  -1  -3   65.89    4.78
  -5  -1  -3   71.12    4.93
   5   1   4   92.93    4.52
  -5  -1  -4   97.24    5.71
  -5  -1  -4   82.63    5.66
   5   1   5  695.09   16.42
   5   1   5  737.71   16.22
  -5  -1  -5  700.93   18.18
   5   1   6  198.17    7.50
   5   1   6  193.51    6.92
   5   1   7   65.74    4.24
   5   1   7   63.59    3.81
   5   1   7   71.40    4.09
   5   1   7   69.76    4.10
   5   1   8  447.52   11.82
   5   1   8  425.01   12.53
   5   1   9  136.83    5.75
   5   1   9  141.63    5.78
   5   1   9  137.18    6.46
   5   1  10  242.59    7.79
   5   1  10  239.92    7.56
   5   1  10  229.60    8.68
   5   1  11  168.30    6.09
   5   1  11  164.34    5.68
   5   1  11  153.55    6.10
   5   1  12  184.68    6.21
   5   1  12  188.83    5.73
   5   1  12  184.04    6.36
   5   1  13  130.35    4.18
   5   1  13  125.98    4.81
   5   1  13  133.17    4.80
   5   1  14   69.23    3.00
   5   1  15  198.28    5.00
  -5  -2   9  359.62    9.17
  -5  -2   9  357.72    8.44
  -5  -2   9  361.66    8.34
  -5  -2   9  341.84    8.99
  -5  -2   8   73.28    4.08
  -5  -2   8   72.83    5.14
  -5  -2   8   80.37    5.26
  -5  -2   8   69.15    3.79
  -5  -2   8   69.20    3.56
  -5  -2   8   71.43    3.42
  -5  -2   8   70.83    3.64
  -5  -2   7  104.92    5.44
  -5  -2   7   95.64    6.48
  -5  -2   7  107.12    5.24
  -5  -2   7  100.73    4.76
  -5  -2   7  106.66    4.62
  -5  -2   7  102.28    4.62
  -5  -2   6  489.93   12.57
  -5  -2   6  498.40   17.31
  -5  -2   6  530.42   14.14
  -5  -2   6  515.18   13.38
  -5  -2   6  520.98   12.97
  -5  -2   5   65.37    3.75
  -5  -2   5   73.66    4.97
  -5  -2   5   64.05    5.80
  -5  -2   5   77.29    5.84
  -5  -2   5   65.79    4.65
  -5  -2   5   64.61    4.04
  -5  -2   5   69.43    4.55
  -5  -2   5   66.54    4.16
  -5  -2   4  364.89   10.42
  -5  -2   4  401.70   12.69
  -5  -2   4  399.67   14.71
  -5  -2   4  408.50   13.21
  -5  -2   4  364.48   12.04
  -5  -2   4  365.53   11.20
  -5  -2   4  377.85   11.99
  -5  -2   3   34.95    2.83
  -5  -2   3   38.77    3.55
  -5  -2   3   41.39    4.16
  -5  -2   3   33.30    3.23
  -5  -2   3   34.82    3.10
  -5  -2   3   39.91    4.06
  -5  -2   3   34.53    3.08
  -5  -2   3   33.00    2.83
  -5  -2   3   36.27    3.12
  -5  -2   2  450.63   13.18
  -5  -2   2  482.73   14.34
  -5  -2   2  415.02   12.63
  -5  -2   2  412.94   12.50
  -5  -2   2  435.10   14.48
  -5  -2   2  430.34   13.01
  -5  -2   2  398.24   11.55
  -5  -2   2  437.62   12.87
  -5  -2   2  409.48   12.01
  -5  -2   1  463.37   13.64
  -5  -2   1  485.93   15.26
  -5  -2   1  476.09   14.39
  -5  -2   1  461.92   12.53
  -5  -2   1  492.83   13.62
  -5  -2   1  456.85   12.76
  -5  -2   0  151.11    7.57
  -5  -2   0  151.80    7.74
  -5  -2   0  134.72    5.99
  -5  -2   0  139.56    6.16
  -5  -2  -1 1198.98   27.16
  -5  -2  -1 1241.72   25.18
  -5  -2  -1 1259.43   25.11
  -5  -2  -2   38.76    3.64
  -5  -2  -2   38.53    2.94
  -5  -2  -2   37.99    2.83
  -5  -2  -3  187.00    8.93
  -5  -2  -3  161.68    7.97
   5   2   4   31.09    2.35
  -5  -2  -4   38.33    3.89
  -5  -2  -4   38.96    3.93
   5   2   4   31.54    2.37
   5   2   5  622.84   13.89
  -5  -2  -5  605.46   17.42
  -5  -2  -5  585.84   18.21
   5   2   5  590.42   14.13
   5   2   6  598.66   14.01
   5   2   6  617.02   14.71
  -5  -2  -6  618.34   17.16
   5   2   6  594.80   14.69
   5   2   7  259.04    8.14
   5   2   7  271.74    8.66
  -5  -2  -7  273.44    9.97
   5   2   7  247.10    8.67
   5   2   8  420.67   11.05
   5   2   8  426.22   11.44
   5   2   8  403.80   12.01
   5   2   9    5.40    1.10
   5   2   9    5.10    1.09
   5   2  10  193.80    6.64
   5   2  10  166.37    5.58
   5   2  11  133.81    5.34
   5   2  11  137.02    5.23
   5   2  12  160.95    5.73
   5   2  12  156.45    5.34
   5   2  12  151.40    5.52
   5   2  13  276.85    7.07
   5   2  13  271.45    7.52
   5   2  14    0.67    0.38
   5   2  15  218.41    5.61
   5   2  15  242.34    5.84
  -5  -3   9  204.02    7.26
  -5  -3   9  193.02    5.96
  -5  -3   8   43.18    3.66
  -5  -3   8   40.80    2.41
  -5  -3   8   43.50    2.75
  -5  -3   7    5.93    1.65
  -5  -3   7    8.90    1.34
  -5  -3   7    9.01    1.39
  -5  -3   7    8.00    1.19
  -5  -3   7    7.89    1.26
  -5  -3   6  110.69    5.03
  -5  -3   6  122.95    7.91
  -5  -3   6  109.36    5.94
  -5  -3   6  116.63    5.29
  -5  -3   6  116.68    5.06
  -5  -3   6  111.47    4.85
  -5  -3   5    6.52    1.24
  -5  -3   5   11.95    2.77
  -5  -3   5    6.46    1.51
  -5  -3   5    6.22    1.30
  -5  -3   5    5.82    1.67
  -5  -3   5    8.04    1.58
  -5  -3   5    7.15    1.26
  -5  -3   4  187.25    7.15
  -5  -3   4  177.49    8.08
  -5  -3   4  198.81    7.65
  -5  -3   4  193.23    9.47
  -5  -3   4  175.16    6.82
  -5  -3   3    1.06    0.68
  -5  -3   3    2.27    1.16
  -5  -3   3    0.88    0.72
  -5  -3   3    3.20    1.34
  -5  -3   3    0.93    0.58
  -5  -3   3    1.19    0.67
  -5  -3   3    0.57    0.42
  -5  -3   3    0.97    0.59
  -5  -3   2  143.33    7.65
  -5  -3   2  107.76    6.19
  -5  -3   2  123.09    6.26
  -5  -3   2  121.73    7.48
  -5  -3   2  122.80    6.56
  -5  -3   2   97.06    4.67
  -5  -3   2  154.91    6.44
  -5  -3   1  377.49   12.50
  -5  -3   1  388.60   12.46
  -5  -3   1  412.07   14.48
  -5  -3   1  434.04   13.99
  -5  -3   1  407.46   11.61
  -5  -3   0    1.56    0.82
  -5  -3   0    0.83    0.70
  -5  -3   0    4.57    1.46
  -5  -3   0    4.79    1.39
  -5  -3   0    3.12    1.11
  -5  -3  -1   97.90    6.37
  -5  -3  -1   87.67    5.60
  -5  -3  -1   87.90    4.60
  -5  -3  -2    4.08    1.30
  -5  -3  -2    5.78    1.78
  -5  -3  -2    5.17    1.13
   5   3   3  479.39   11.72
  -5  -3  -3  509.61   17.24
  -5  -3  -3  505.79   12.25
   5   3   4   60.51    3.48
  -5  -3  -4   64.23    5.52
   5   3   5  250.26    7.98
  -5  -3  -5  272.72   11.62
   5   3   6  528.58   13.11
  -5  -3  -6  554.27   17.12
   5   3   7    8.01    1.20
   5   3   7    7.47    1.31
  -5  -3  -7    8.73    1.89
   5   3   8  132.16    5.17
   5   3   8  133.78    5.55
  -5  -3  -8  131.15    6.80
   5   3   9  232.82    7.25
   5   3   9  228.96    7.50
   5   3  10  597.03   13.59
   5   3  10  598.33   13.83
   5   3  10  587.49   13.39
   5   3  11  349.52    9.32
   5   3  11  356.88    9.34
   5   3  11  325.25    8.87
   5   3  11  329.46    8.34
   5   3  12  155.01    5.19
   5   3  12  168.19    5.78
   5   3  13  496.46   10.98
   5   3  13  477.66   11.13
   5   3  14    2.96    0.64
   5   3  14    2.10    0.55
   5   3  14    2.06    0.52
   5   3  15  168.90    4.34
   5   3  15  173.22    4.66
  -5  -4   9  152.42    4.61
  -5  -4   8   81.87    4.23
  -5  -4   8   79.09    3.53
  -5  -4   7   79.92    4.85
  -5  -4   7   75.89    3.72
  -5  -4   6  187.38    6.63
  -5  -4   6  211.41    9.30
  -5  -4   6  188.18    7.65
  -5  -4   6  209.68    6.83
  -5  -4   6  192.52    6.43
  -5  -4   5    3.04    0.88
  -5  -4   5    1.93    1.15
  -5  -4   5    0.50    0.56
  -5  -4   5   -0.07    0.46
  -5  -4   4  575.47   14.48
  -5  -4   4  563.89   15.99
  -5  -4   4  585.45   13.98
  -5  -4   4  598.96   14.63
  -5  -4   4  585.90   17.95
  -5  -4   4  547.27   12.95
  -5  -4   4  572.20   14.06
  -5  -4   3   56.64    3.90
  -5  -4   3   49.21    4.13
  -5  -4   3   60.31    3.99
  -5  -4   3   45.61    4.60
  -5  -4   3   53.08    3.86
  -5  -4   3   50.20    3.14
  -5  -4   3   50.72    3.39
  -5  -4   2   12.74    1.96
  -5  -4   2   15.41    2.38
  -5  -4   2   15.32    2.13
  -5  -4   2   17.49    2.87
  -5  -4   2   14.90    2.31
  -5  -4   2   12.98    1.69
  -5  -4   2   13.49    1.91
  -5  -4   2   16.38    1.93
  -5  -4   1  233.11    9.83
  -5  -4   1  257.84    9.63
  -5  -4   1  263.77   11.48
  -5  -4   1  284.70   11.08
  -5  -4   1  253.53    8.68
  -5  -4   1  251.81    8.31
  -5  -4   0  114.45    6.67
  -5  -4   0  113.16    6.30
  -5  -4   0  121.22    7.71
  -5  -4   0  133.25    7.98
  -5  -4   0  128.58    5.78
  -5  -4   0  118.26    5.35
  -5  -4  -1  297.08   11.40
  -5  -4  -1  303.80   11.19
  -5  -4  -1  327.81   13.18
  -5  -4  -1  301.91    9.16
  -5  -4  -2  109.96    7.43
  -5  -4  -2  100.12    6.22
  -5  -4  -2  103.39    4.76
  -5  -4  -3  146.17    7.75
  -5  -4  -4  271.21   11.17
   5   4   5   62.88    3.36
  -5  -4  -5   68.62    6.22
  -5  -4  -5   57.33    5.07
   5   4   6  945.22   18.80
  -5  -4  -6  892.00   25.08
  -5  -4  -6  856.06   24.26
   5   4   7   25.26    2.19
  -5  -4  -7   30.07    3.73
  -5  -4  -7   28.92    3.95
   5   4   8  224.36    7.34
   5   4   8  250.32    7.63
  -5  -4  -8  253.28   10.46
   5   4   9   50.45    3.10
   5   4  10  111.04    4.68
   5   4  10  103.86    4.54
   5   4  10  103.63    4.30
   5   4  11  210.29    6.64
   5   4  11  200.95    6.18
   5   4  11  194.84    6.24
   5   4  12   44.57    2.71
   5   4  12   46.07    2.40
   5   4  12   42.02    2.56
   5   4  13  100.80    3.87
  -5  -4 -14    6.44    1.56
   5   4  14    5.58    0.77
   5   4  15  173.27    4.51
  -5  -4 -15  219.61    7.13
  -5  -5   8  135.97    4.19
  -5  -5   7    8.34    1.08
  -5  -5   6  119.19    5.26
  -5  -5   6  114.09    4.56
  -5  -5   5   22.84    2.43
  -5  -5   5   21.30    1.88
  -5  -5   4  268.60    9.62
  -5  -5   4  277.83    8.25
  -5  -5   3  143.29    7.02
  -5  -5   3  158.86    6.18
  -5  -5   3  144.96    6.14
  -5  -5   3  142.83    5.53
  -5  -5   3  150.14    5.94
  -5  -5   2   30.14    3.26
  -5  -5   2   28.70    2.66
  -5  -5   2   34.00    3.90
  -5  -5   2   32.91    3.21
  -5  -5   2   29.24    2.47
  -5  -5   2   32.65    2.69
  -5  -5   1  382.03   11.56
   5   5  -1  381.33   10.78
  -5  -5   1  400.28   14.53
  -5  -5   1  411.73   13.59
  -5  -5   1  374.54   10.75
  -5  -5   1  385.81   10.73
  -5  -5   0   86.69    5.90
  -5  -5   0   94.81    5.43
  -5  -5   0   93.00    6.74
  -5  -5   0   94.46    4.73
   5   5   0   90.23    4.74
  -5  -5  -1  830.56   22.46
  -5  -5  -1  899.50   21.43
   5   5   1  834.64   19.33
  -5  -5  -1  886.71   19.03
  -5  -5  -2  161.66    8.61
  -5  -5  -2  158.85    9.55
  -5  -5  -2  155.94    7.67
   5   5   2  152.65    6.49
  -5  -5  -2  154.23    6.02
  -5  -5  -3  183.40    8.60
  -5  -5  -3  177.21    6.32
  -5  -5  -4  127.06    7.23
  -5  -5  -5   95.79    6.42
   5   5   5  103.97    5.15
   5   5   6  457.14   12.27
   5   5   6  471.79   10.83
  -5  -5  -6  433.99   15.42
   5   5   7  164.18    5.60
   5   5   7  162.71    6.32
  -5  -5  -7  159.36    9.18
  -5  -5  -7  148.15    8.55
   5   5   8   76.70    3.68
  -5  -5  -8   74.72    5.72
  -5  -5  -8   67.74    5.79
   5   5   9  132.33    5.02
  -5  -5  -9  128.13    6.81
  -5  -5  -9  116.27    7.77
   5   5   9  131.39    5.38
   5   5  10   54.54    3.09
  -5  -5 -10   50.22    5.07
   5   5  10   56.68    3.19
  -5  -5 -11  163.35    9.30
   5   5  11  195.28    5.97
   5   5  12    1.04    0.46
  -5  -5 -12    0.57    0.68
   5   5  12    0.96    0.41
   5   5  13  301.16    7.61
  -5  -5 -13  305.05   11.15
   5   5  14    7.67    0.90
  -5  -5 -14    8.60    1.51
  -5  -6   6  252.73    6.43
  -5  -6   5   61.12    3.38
  -5  -6   5   59.61    2.95
  -5  -6   4  269.51    7.67
  -5  -6   4  267.75    8.55
  -5  -6   4  263.90    6.84
  -5  -6   3  184.64    6.43
  -5  -6   3  183.07    7.28
  -5  -6   3  181.74    5.79
  -5  -6   2   11.42    1.59
  -5  -6   2   11.36    1.88
  -5  -6   2   11.65    1.44
  -5  -6   2    9.63    1.55
  -5  -6   2   11.36    1.46
  -5  -6   1  207.52    7.70
  -5  -6   1  206.83    8.59
  -5  -6   1  197.44    6.93
  -5  -6   1  219.66    8.71
  -5  -6   1  212.82    7.16
  -5  -6   0   71.85    5.01
  -5  -6   0   67.48    4.01
  -5  -6   0   64.95    3.90
  -5  -6  -1   99.71    6.19
  -5  -6  -1   96.37    5.13
  -5  -6  -1  104.49    5.23
  -5  -6  -2  239.49   10.33
  -5  -6  -2  225.42    8.65
  -5  -6  -3   66.24    5.43
  -5  -6  -3   53.04    4.10
  -5  -6  -4  104.58    6.06
  -5  -6  -5    3.27    1.21
  -5  -6  -6  143.14    7.53
   5   6   6  159.16    6.01
  -5  -6  -7    5.14    1.48
   5   6   7    5.72    1.13
   5   6   8  121.96    4.49
  -5  -6  -8  121.58    7.36
  -5  -6  -8  123.18    7.04
   5   6   8  134.02    5.26
   5   6   9   12.20    1.37
  -5  -6  -9   18.50    2.50
  -5  -6  -9   13.11    2.30
   5   6   9   13.55    1.55
   5   6  10   65.50    3.16
  -5  -6 -10   58.59    4.68
   5   6  11   65.00    3.07
  -5  -6 -11   59.93    4.56
   5   6  11   63.20    3.01
   5   6  12   36.21    2.13
  -5  -6 -12   33.57    3.11
   5   6  12   37.48    2.09
   5   6  12   30.38    2.07
   5   6  13  237.86    6.04
  -5  -6 -13  247.17    7.89
   5   6  13  242.69    5.72
   5   6  14   20.60    1.22
  -5  -7   5  211.51    4.99
  -5  -7   4   31.43    2.03
  -5  -7   4   31.01    1.80
  -5  -7   3   95.23    3.67
  -5  -7   3  100.03    4.27
  -5  -7   2    3.70    0.81
  -5  -7   2    3.44    0.89
  -5  -7   1  207.08    6.53
  -5  -7   1  201.99    7.36
  -5  -7   1  185.99    5.27
  -5  -7   1  202.51    6.90
  -5  -7   1  210.50    6.37
  -5  -7   0   66.11    3.64
  -5  -7   0   61.29    4.01
  -5  -7   0   58.76    2.81
  -5  -7   0   62.77    4.13
  -5  -7   0   62.56    3.39
  -5  -7  -1   54.42    3.47
  -5  -7  -1   50.82    3.79
  -5  -7  -1   50.16    2.78
  -5  -7  -2  144.92    6.78
  -5  -7  -2  140.64    5.26
  -5  -7  -2  140.09    5.73
  -5  -7  -3   82.02    4.10
   5   7   3   80.67    3.30
  -5  -7  -3   83.47    4.45
  -5  -7  -4  213.90    7.37
   5   7   4  212.97    6.25
  -5  -7  -5    0.75    0.65
   5   7   5    1.86    0.60
  -5  -7  -6  488.91   13.10
   5   7   6  510.55   11.48
  -5  -7  -7  132.56    5.98
  -5  -7  -7  137.54    7.87
   5   7   7  147.43    5.07
  -5  -7  -8  241.56    8.31
  -5  -7  -8  227.90    9.48
   5   7   8  248.18    6.95
  -5  -7  -9  143.53    6.08
  -5  -7  -9  143.68    6.40
   5   7   9  160.58    5.15
  -5  -7 -10   10.30    1.48
   5   7  10   12.66    1.29
  -5  -7 -11  415.25   10.09
   5   7  12    8.43    0.90
   5   7  12    6.93    0.85
  -5  -8   2   76.10    2.77
  -5  -8   2   74.95    2.44
  -5  -8   1  145.79    4.13
  -5  -8   1  154.52    4.74
  -5  -8   0  102.65    3.53
  -5  -8   0   96.38    3.93
  -5  -8  -1  110.58    3.90
  -5  -8  -1  106.99    4.39
  -5  -8  -1  104.86    3.93
  -5  -8  -2   57.24    2.86
  -5  -8  -2   60.02    3.79
  -5  -8  -2   58.91    2.93
  -5  -8  -3   52.41    2.84
  -5  -8  -3   51.60    3.86
  -5  -8  -3   51.99    2.82
  -5  -8  -4  154.00    5.38
  -5  -8  -4  146.11    7.11
  -5  -8  -4  163.80    5.44
  -5  -8  -5   62.64    4.58
  -5  -8  -5   65.06    3.24
  -5  -8  -6   77.46    5.00
   5   8   6   79.29    2.96
  -5  -8  -6   81.45    3.63
  -5  -8  -7  340.23   10.86
   5   8   7  348.77    7.92
  -5  -8  -7  371.28    8.92
   5   8   8   25.90    1.66
  -5  -8  -8   26.55    1.84
   5   8   9    3.71    0.63
  -5  -8  -9    3.05    0.58
   5   8  10    0.65    0.32
   5   8  11  265.82    5.80
   5   9   4   90.29    3.04
   5   9   5   48.34    2.15
   5   9   6   18.32    1.25
  -6   6   7  115.57    3.97
  -6   6   6  198.59    5.98
  -6   6   6  170.59    4.72
  -6   6   5   13.14    1.59
  -6   6   5   14.03    1.42
  -6   6   4  254.98    7.73
  -6   6   3  135.62    4.99
   6  -6  -3  151.55    4.84
   6  -6  -2   17.14    1.54
  -6   6   1  207.17    8.99
   6  -6  -1  195.28    5.83
   6  -6   0   12.21    1.28
   6  -6   1  239.08    6.32
   6  -6   2   23.03    1.55
   6  -6   3  233.94    5.77
   6  -6   4   86.91    2.89
  -6   5   8    3.66    0.78
  -6   5   8    2.67    0.53
  -6   5   7   34.45    2.66
  -6   5   7   29.23    1.86
  -6   5   6  159.18    6.79
  -6   5   6  143.87    5.27
  -6   5   5    3.00    1.05
  -6   5   5    2.43    0.80
   6  -5  -5    3.23    0.69
  -6   5   4  240.37   10.17
   6  -5  -4  249.76    7.20
  -6   5   3    2.91    1.30
  -6   5   3    1.13    0.87
   6  -5  -3    1.42    0.60
  -6   5   2   63.33    4.56
   6  -5  -2   70.40    3.67
  -6   5   1   34.22    4.88
   6  -5  -1   37.42    2.66
  -6   5   0  307.23   14.27
  -6   5  -1  411.46   15.74
   6  -5   1  432.81   10.59
   6  -5   2    4.28    0.85
   6  -5   3  140.08    4.79
   6  -5   3  139.32    4.68
   6  -5   4   96.68    3.52
   6  -5   4   90.91    3.32
   6  -5   5  407.53    9.32
   6  -5   6  108.48    3.69
   6  -5   7   21.20    1.34
  -6   4  10    9.56    1.00
  -6   4  10    9.56    0.93
  -6   4   9  335.79    8.90
  -6   4   8   64.58    3.61
  -6   4   8   52.20    3.50
  -6   4   7  108.68    5.43
  -6   4   7  104.96    4.31
  -6   4   6  323.29   10.90
  -6   4   6  288.60    8.70
  -6   4   5   35.28    3.06
  -6   4   5   28.94    2.82
   6  -4  -5   33.30    2.40
  -6   4   4  148.06    8.82
   6  -4  -4  137.57    5.54
  -6   4   3   94.33    7.63
   6  -4  -3  113.81    5.15
  -6   4   2   76.59    6.90
   6  -4  -2   69.30    4.02
  -6   4   1  195.19    9.46
   6  -4  -1  221.12    7.69
  -6   4   0   70.65    7.84
  -6   4  -1  500.98   21.11
   6  -4   1  607.03   14.28
  -6   4  -2   24.22    3.99
   6  -4   2   35.07    2.69
   6  -4   3    1.31    0.60
   6  -4   4   87.53    4.25
   6  -4   4   81.54    3.69
   6  -4   5   13.24    1.50
   6  -4   5   11.64    1.21
   6  -4   6  232.53    6.59
   6  -4   6  251.21    7.10
   6  -4   7    7.83    0.91
   6  -4   7    9.48    1.15
   6  -4   8   99.09    3.48
   6  -4   9   14.30    1.02
  -6   3  11   61.47    2.38
  -6   3  10    7.08    1.00
  -6   3  10    9.25    1.18
  -6   3  10    6.47    0.89
  -6   3   9  223.94    7.58
  -6   3   9  276.59    8.51
  -6   3   8   96.75    3.77
  -6   3   8   91.67    5.47
  -6   3   7    7.51    1.51
  -6   3   7    7.01    1.45
  -6   3   7    5.25    1.06
  -6   3   7    5.98    1.65
  -6   3   6  475.21   14.26
  -6   3   6  641.53   16.48
  -6   3   6  593.35   14.28
  -6   3   6  509.16   18.51
  -6   3   5   35.42    3.16
  -6   3   5   39.69    3.90
  -6   3   5   40.18    3.35
  -6   3   5   32.43    3.99
   6  -3  -5   36.29    2.63
  -6   3   4  321.19   10.32
  -6   3   4  315.71   12.06
   6  -3  -4  348.61    9.89
  -6   3   3   32.46    4.08
  -6   3   3   33.78    3.28
   6  -3  -3   35.94    2.91
   6  -3  -2   70.39    4.38
  -6   3   2   83.13    6.67
  -6   3   2   73.56    6.29
  -6   3   2   64.39    5.87
   6  -3  -1  168.57    7.08
  -6   3   1  151.70    8.67
   6  -3   0   48.61    3.65
  -6   3   0   46.39    5.84
  -6   3   0   48.38    5.96
   6  -3   1  328.34   10.20
  -6   3  -1  300.20   15.27
   6  -3   2   61.36    3.94
  -6   3  -2   61.36    6.40
  -6   3  -2   47.82    5.79
   6  -3   3  460.30   11.96
   6  -3   4  123.30    5.11
   6  -3   5  125.81    5.53
   6  -3   5  116.32    4.65
   6  -3   6  265.92    7.98
   6  -3   6  233.35    6.47
   6  -3   7   27.96    2.19
   6  -3   7   28.56    2.03
   6  -3   7   24.51    2.07
   6  -3   7   26.80    2.11
   6  -3   8  183.90    5.61
   6  -3   8  188.34    5.68
   6  -3   9  154.51    4.49
   6  -3   9  158.04    4.71
   6  -3  10   73.03    2.33
   6  -3  10   65.50    2.33
  -6   2  11   49.17    2.33
  -6   2  10   70.58    3.67
  -6   2  10   69.89    3.38
  -6   2  10   63.66    2.78
  -6   2   9   92.61    5.21
  -6   2   9  105.24    5.00
  -6   2   8  138.09    7.59
  -6   2   8  138.34    4.91
  -6   2   7   13.45    2.61
  -6   2   7   16.47    1.82
  -6   2   6  323.19   10.89
  -6   2   6  304.47    9.56
  -6   2   6  309.06   13.15
  -6   2   5  167.81    8.57
  -6   2   5  181.22    8.39
  -6   2   5  173.36    7.32
  -6   2   5  180.27   10.09
  -6   2   4  142.01    7.46
   6  -2  -4  142.23    6.17
  -6   2   4  167.70    8.33
  -6   2   4  142.68    8.50
  -6   2   3   61.71    4.51
   6  -2  -3   55.94    3.91
  -6   2   3   57.50    4.81
  -6   2   3   54.43    4.92
  -6   2   3   60.06    4.53
  -6   2   3   54.57    4.78
   6  -2  -2   95.66    5.31
  -6   2   2  106.98    7.03
  -6   2   2   89.84    6.45
  -6   2   2   88.79    5.59
   6  -2  -1  957.73   22.09
  -6   2   1 1022.57   27.03
  -6   2   1  979.16   24.93
   6  -2   0   32.95    3.13
  -6   2   0   33.64    4.48
  -6   2   0   37.26    3.75
  -6   2  -1  547.97   19.87
   6  -2   2  217.07    8.21
  -6   2  -2  199.63   11.28
   6  -2   3  224.14    8.16
  -6   2  -3  203.98   11.15
   6  -2   4  291.31    9.15
  -6   2  -4  265.05   12.30
   6  -2   6  441.44   10.55
   6  -2   7   44.71    3.03
   6  -2   8  138.83    5.40
   6  -2   8  132.15    4.93
   6  -2   8  127.74    4.83
   6  -2   9   61.67    3.13
   6  -2   9   55.06    2.61
   6  -2   9   56.88    3.22
   6  -2   9   61.63    2.89
   6  -2  10   39.60    2.21
   6  -2  10   40.21    2.47
   6  -2  10   36.39    1.91
   6  -2  11  180.81    4.68
  -6   1  11  137.39    3.86
  -6   1  10   17.49    1.60
  -6   1  10   15.29    1.27
  -6   1   9   68.47    4.38
  -6   1   9   63.35    3.23
  -6   1   8  185.21    8.86
  -6   1   8  178.84    7.35
  -6   1   8  161.71    6.20
  -6   1   7    0.91    0.92
  -6   1   7    1.00    0.55
  -6   1   7    1.90    0.92
  -6   1   6  140.39    9.15
  -6   1   6  134.76    5.95
  -6   1   6  152.21    8.16
  -6   1   5  120.29    7.98
  -6   1   5  114.77    5.76
  -6   1   5  130.08    8.01
  -6   1   4  183.05    9.41
   6  -1  -4  160.58    6.70
  -6   1   4  173.59    8.12
  -6   1   4  183.81    9.53
  -6   1   3  115.89    6.95
   6  -1  -3  112.57    5.75
  -6   1   3  126.88    7.01
  -6   1   3  115.67    6.17
  -6   1   3  117.14    7.23
  -6   1   2    3.44    1.15
   6  -1  -2    2.86    1.01
  -6   1   2    2.40    1.07
  -6   1   2    1.11    0.78
   6  -1  -1  212.40    8.61
  -6   1   1  208.59    9.25
  -6   1   1  202.10    8.90
  -6   1   1  203.17    8.58
   6  -1   0   85.12    5.28
  -6   1   0   85.62    4.97
   6  -1   1  130.76    6.64
  -6   1  -1  132.47    8.41
   6  -1   2  373.11   11.84
  -6   1  -2  348.85   14.42
   6  -1   3    8.31    1.60
   6  -1   4  205.31    8.39
   6  -1   4  219.04    8.16
   6  -1   5   33.97    3.26
   6  -1   5   31.41    2.78
   6  -1   6  232.93    9.10
   6  -1   6  261.38    8.77
   6  -1   6  250.17    7.93
   6  -1   7    4.51    1.10
   6  -1   8  165.39    6.35
   6  -1   8  160.51    6.09
   6  -1   8  152.97    5.37
   6  -1   9   11.28    1.39
   6  -1  10   83.49    3.37
   6  -1  10   90.97    4.18
   6  -1  11  273.98    7.52
   6  -1  12   11.21    1.02
  -6   0  10  136.90    4.41
  -6   0  10  129.47    3.75
  -6   0   9   19.64    2.09
  -6   0   9   20.79    1.94
  -6   0   9   17.47    1.58
  -6   0   8  406.84   10.57
  -6   0   8  418.33    9.73
  -6   0   7   29.60    2.64
  -6   0   6  447.20   16.35
  -6   0   6  385.51   10.04
  -6   0   6  392.42   10.92
  -6   0   6  424.33   13.40
  -6   0   5  463.87   16.56
  -6   0   5  409.30   10.75
  -6   0   5  402.80   11.76
  -6   0   5  449.52   14.67
  -6   0   4   35.31    4.10
   6   0  -4   29.63    2.77
  -6   0   4   27.46    2.42
  -6   0   4   32.68    3.73
  -6   0   3  308.71   12.19
   6   0  -3  275.13    9.89
  -6   0   3  288.89    8.97
  -6   0   3  296.81   10.18
  -6   0   3  300.79   11.85
  -6   0   2   21.02    2.88
   6   0  -2   21.43    2.68
  -6   0   2   23.53    2.41
  -6   0   2   22.23    2.61
  -6   0   2   23.87    3.05
   6   0  -1  267.92   10.35
  -6   0   1  282.78    9.30
  -6   0   1  274.22   10.03
  -6   0   1  279.45   10.51
   6   0   0   69.95    5.02
  -6   0   0   84.25    4.86
  -6   0   0   77.72    5.07
  -6   0   0   77.45    4.96
   6   0   1  629.76   17.51
  -6   0  -1  607.59   16.92
  -6   0  -2  360.20   11.86
  -6   0  -2  362.90   12.01
   6   0   3   58.31    4.43
  -6   0  -3   57.69    4.48
  -6   0  -3   47.87    3.94
   6   0   4   46.54    3.56
   6   0   4   52.89    4.08
  -6   0  -4   50.77    4.36
   6   0   5   45.17    3.59
   6   0   5   49.26    3.57
   6   0   5   46.40    3.66
  -6   0  -5   47.83    4.44
   6   0   6  323.35   10.04
   6   0   6  324.41    9.98
   6   0   7   37.67    3.36
   6   0   7   42.98    3.24
   6   0   8  382.42   10.84
   6   0   8  362.09   10.62
   6   0   9  728.59   16.59
   6   0   9  727.54   16.37
   6   0  10   31.70    2.37
   6   0  10   27.11    2.08
   6   0  11  441.30   10.28
   6   0  11  435.09    9.64
   6   0  12   10.39    1.13
   6   0  12   10.09    0.92
   6   0  12    9.71    1.19
  -6  -1   9    8.92    1.04
  -6  -1   8  141.00    5.88
  -6  -1   8  136.31    5.40
  -6  -1   8  130.65    4.86
  -6  -1   8  133.03    4.47
  -6  -1   7   25.92    2.78
  -6  -1   7   22.26    2.38
  -6  -1   7   20.61    2.07
  -6  -1   7   20.51    1.86
  -6  -1   6   53.15    4.51
  -6  -1   6   47.36    3.04
  -6  -1   5  307.03    9.24
  -6  -1   5  320.87   11.28
  -6  -1   5  304.86   10.06
  -6  -1   4   25.67    2.46
  -6  -1   4   25.91    3.16
  -6  -1   4   23.61    2.68
   6   1  -3    8.87    1.70
  -6  -1   3    5.86    1.29
  -6  -1   3    6.05    1.62
  -6  -1   3    5.68    1.45
   6   1  -2  561.48   16.54
  -6  -1   2  599.96   15.57
  -6  -1   2  603.09   15.87
  -6  -1   2  647.83   17.63
  -6  -1   2  627.45   16.44
   6   1  -1  367.60   12.96
  -6  -1   1  368.47   11.73
  -6  -1   1  375.00   11.71
  -6  -1   1  386.83   12.67
  -6  -1   1  389.20   12.09
  -6  -1   0   41.70    3.69
  -6  -1   0   37.77    3.37
  -6  -1   0   46.53    3.91
  -6  -1  -1  112.74    6.33
  -6  -1  -1  103.40    5.66
  -6  -1  -1  116.25    5.74
  -6  -1  -2  163.59    7.97
  -6  -1  -2  156.60    7.01
  -6  -1  -3   95.17    6.20
  -6  -1  -3   88.58    5.01
   6   1   4  408.21   11.59
  -6  -1  -4  430.22   14.86
   6   1   5   44.57    3.24
   6   1   5   46.51    3.93
  -6  -1  -5   43.45    4.63
   6   1   6  607.13   14.72
   6   1   6  656.70   16.25
  -6  -1  -6  617.05   20.09
   6   1   7   41.92    3.12
   6   1   7   37.84    3.10
   6   1   7   36.97    3.06
   6   1   7   32.78    2.98
   6   1   8  162.13    6.37
   6   1   8  157.14    6.40
   6   1   9  204.94    7.13
  -6  -1  -9  278.68   14.36
   6   1  10  272.25    8.06
   6   1  10  269.49    7.89
   6   1  11  186.49    5.99
   6   1  11  177.20    5.62
   6   1  11  171.85    6.08
   6   1  12    0.63    0.41
   6   1  12    0.56    0.35
   6   1  12    0.84    0.41
   6   1  13   71.91    2.53
   6   1  13   77.14    2.98
   6   1  14  169.61    4.14
  -6  -2   8  176.38    5.16
  -6  -2   8  167.49    4.89
  -6  -2   7   21.78    1.96
  -6  -2   7   21.54    1.78
  -6  -2   6   42.40    2.87
  -6  -2   6   48.15    3.19
  -6  -2   6   44.21    2.83
  -6  -2   5  366.51   10.21
  -6  -2   5  372.04   11.33
  -6  -2   4    0.82    0.46
  -6  -2   4    0.78    0.56
  -6  -2   4    1.25    0.90
  -6  -2   3  296.23    8.39
  -6  -2   3  317.94    9.78
  -6  -2   3  325.65   10.07
  -6  -2   2   55.00    3.56
  -6  -2   2   58.54    4.20
  -6  -2   2   59.87    4.20
  -6  -2   1  877.20   21.38
  -6  -2   1  937.62   22.73
  -6  -2   1  888.91   20.26
  -6  -2   1  921.53   20.99
  -6  -2   0 1706.98   36.86
  -6  -2   0 1745.89   33.48
  -6  -2   0 1784.57   33.84
  -6  -2  -1  240.55    9.98
  -6  -2  -1  240.96    8.65
  -6  -2  -1  258.29    8.86
  -6  -2  -2  324.61   12.13
  -6  -2  -2  332.56   13.18
  -6  -2  -2  318.65   10.04
  -6  -2  -2  326.24    9.90
  -6  -2  -3   11.53    2.35
  -6  -2  -3   10.46    2.17
  -6  -2  -3   10.98    1.62
   6   2   4  204.19    6.92
  -6  -2  -4  220.53   10.39
  -6  -2  -4  226.03   10.37
   6   2   5  364.59   10.21
  -6  -2  -5  384.36   14.85
   6   2   5  393.97   11.23
  -6  -2  -5  406.33   14.01
   6   2   6   87.96    4.40
   6   2   6   92.92    4.89
  -6  -2  -6   92.31    7.24
   6   2   7  300.21    8.96
   6   2   7  328.99   10.69
   6   2   7  298.33    9.44
  -6  -2  -7  314.57   14.67
   6   2   8   75.47    3.96
   6   2   8   82.98    4.38
  -6  -2  -8   82.46    7.81
   6   2   9   81.95    4.01
   6   2   9   84.77    4.22
  -6  -2  -9   89.41    8.62
   6   2  10   73.09    3.61
   6   2  10   71.52    3.63
  -6  -2 -10   76.98    8.48
   6   2  10   67.84    3.09
   6   2  11  245.96    7.01
   6   2  11  227.43    7.06
   6   2  12    3.30    0.72
   6   2  12    4.59    0.80
   6   2  12    3.58    0.72
  -6  -2 -12    3.18    1.35
   6   2  13    8.82    0.94
  -6  -2 -13   10.59    1.78
   6   2  13    9.29    1.03
   6   2  14  104.87    3.14
  -6  -3   7  195.81    5.62
  -6  -3   6   16.02    1.70
  -6  -3   6   15.53    1.54
  -6  -3   6   13.15    1.42
  -6  -3   5  356.86    9.34
  -6  -3   4   12.09    1.57
  -6  -3   4   15.31    1.77
  -6  -3   3  254.93    8.26
  -6  -3   3  273.80    9.00
  -6  -3   3  258.48    8.41
  -6  -3   2    8.49    1.49
  -6  -3   2   11.09    1.90
  -6  -3   2    9.39    1.77
  -6  -3   2    9.03    1.53
  -6  -3   1    1.58    1.03
  -6  -3   1    1.36    0.81
  -6  -3   0  541.23   16.95
  -6  -3   0  465.26   13.19
  -6  -3  -1   50.51    5.04
  -6  -3  -1   43.40    3.35
  -6  -3  -2  144.23    7.78
  -6  -3  -2  147.07    9.15
  -6  -3  -2  149.01    6.21
   6   3   3   71.21    3.77
  -6  -3  -3   73.57    5.63
   6   3   4  188.84    6.68
  -6  -3  -4  194.40    9.64
  -6  -3  -4  173.84    9.92
   6   3   5   24.56    2.33
  -6  -3  -5   30.65    3.91
  -6  -3  -5   32.35    3.98
   6   3   6  388.68   10.68
  -6  -3  -6  383.96   15.42
  -6  -3  -6  397.54   14.27
   6   3   7  311.26    9.16
  -6  -3  -7  303.92   14.05
  -6  -3  -7  309.42   11.65
   6   3   8    2.33    0.66
   6   3   8    2.42    0.82
  -6  -3  -8    2.81    1.55
   6   3   9  256.01    7.31
   6   3   9  267.31    7.92
  -6  -3  -9  259.57   14.05
   6   3  10  138.54    4.91
   6   3  10  147.09    5.29
  -6  -3 -10  144.74   10.80
   6   3  10  140.65    4.98
   6   3  11  391.26    9.49
   6   3  11  408.11    9.58
   6   3  12  129.51    4.39
   6   3  12  117.39    4.10
  -6  -3 -13   62.82    4.62
   6   3  13   50.48    2.30
   6   3  14  133.04    3.55
  -6  -3 -14  139.42    5.30
  -6  -4   7  115.49    3.74
  -6  -4   6   18.39    1.54
  -6  -4   5   17.18    1.65
  -6  -4   5   19.37    1.79
  -6  -4   4    1.29    0.56
  -6  -4   4    1.48    0.63
  -6  -4   4    1.31    0.56
  -6  -4   3  199.79    6.99
  -6  -4   3  191.57    7.96
  -6  -4   3  197.82    7.19
  -6  -4   3  200.09    6.83
  -6  -4   2   86.15    4.62
  -6  -4   2   83.77    5.33
  -6  -4   2   84.97    4.77
  -6  -4   2   90.66    5.17
  -6  -4   2   82.69    3.81
  -6  -4   2   89.23    4.42
  -6  -4   1   38.49    3.24
  -6  -4   1   38.61    3.73
  -6  -4   1   39.49    3.40
  -6  -4   1   47.53    4.13
  -6  -4   1   39.48    2.79
  -6  -4   1   40.09    3.00
  -6  -4   0  613.35   16.90
  -6  -4   0  631.33   15.10
  -6  -4  -1   38.50    3.70
  -6  -4  -1   47.21    5.08
  -6  -4  -1   44.92    3.15
  -6  -4  -2  154.01    7.88
  -6  -4  -2  151.84    5.97
  -6  -4  -3   72.88    5.50
  -6  -4  -3   78.04    7.26
  -6  -4  -4   87.23    6.24
  -6  -4  -4  103.21    8.17
   6   4   5  487.01   11.42
  -6  -4  -5  475.41   16.36
   6   4   6  100.12    4.28
  -6  -4  -6   95.66    6.94
  -6  -4  -6   97.09    7.07
   6   4   7  237.02    7.18
  -6  -4  -7  234.92   11.54
  -6  -4  -7  248.09   10.72
   6   4   8   12.29    1.47
  -6  -4  -8   16.15    2.40
  -6  -4  -8    9.79    2.46
   6   4   9  193.34    6.17
  -6  -4  -9  184.51   10.63
   6   4  10  122.93    4.55
   6   4  10  116.50    4.48
   6   4  11   55.24    2.82
   6   4  11   51.80    2.52
   6   4  12   72.26    3.09
   6   4  13   33.02    1.80
   6   4  14  102.42    2.94
  -6  -5   6    1.08    0.37
  -6  -5   5  310.82    7.62
  -6  -5   4    1.10    0.50
  -6  -5   4    0.14    0.29
  -6  -5   3  152.46    5.52
  -6  -5   3  145.38    6.23
  -6  -5   3  141.52    5.26
  -6  -5   3  148.59    5.36
  -6  -5   2   95.63    4.54
  -6  -5   2   89.47    5.11
  -6  -5   2   92.85    4.42
  -6  -5   2   94.45    4.67
  -6  -5   2   85.26    3.72
  -6  -5   2   92.41    4.25
  -6  -5   1   37.13    2.95
  -6  -5   1   38.69    3.57
  -6  -5   1   37.00    2.94
  -6  -5   1   39.95    3.48
  -6  -5   1   33.55    2.45
  -6  -5   1   38.36    2.74
  -6  -5   0  266.20    9.10
  -6  -5   0  252.12    8.04
  -6  -5   0  254.69    8.06
  -6  -5  -1    3.73    1.14
  -6  -5  -1    2.91    0.85
  -6  -5  -2   68.89    4.76
  -6  -5  -2   62.36    3.55
  -6  -5  -3   33.02    3.45
  -6  -5  -3   36.61    5.32
  -6  -5  -4   22.70    2.99
  -6  -5  -4   19.72    3.95
  -6  -5  -5  138.14    7.64
  -6  -5  -5  158.59   10.39
  -6  -5  -6   25.38    3.26
  -6  -5  -6   26.94    3.99
   6   5   7   30.69    2.03
  -6  -5  -7   32.38    3.75
  -6  -5  -7   33.69    3.92
   6   5   8    2.19    0.59
  -6  -5  -8    1.98    0.92
  -6  -5  -8    2.04    1.13
   6   5   9  166.14    5.25
  -6  -5  -9  157.43    8.62
   6   5   9  170.76    5.77
   6   5  10  265.81    7.00
   6   5  10  280.35    7.29
  -6  -5 -11    5.21    1.53
   6   5  11    4.69    0.75
   6   5  12  114.97    3.76
   6   5  12  114.15    3.43
   6   5  13    1.13    0.33
  -6  -5 -13    0.74    0.52
  -6  -6   5  156.84    4.05
  -6  -6   4   17.20    1.32
  -6  -6   3   14.57    1.21
  -6  -6   2  146.11    5.58
  -6  -6   2  144.21    4.70
  -6  -6   1   13.15    1.43
  -6  -6   1   12.58    1.61
  -6  -6   1   14.10    1.41
  -6  -6   0  457.75   11.50
  -6  -6   0  476.45   11.25
  -6  -6  -1   15.21    1.82
  -6  -6  -1   20.08    2.78
  -6  -6  -1   16.65    1.77
  -6  -6  -2  179.94    6.92
  -6  -6  -2  185.88    6.68
   6   6   2  167.61    5.32
  -6  -6  -3   79.29    4.61
  -6  -6  -4   56.61    4.03
  -6  -6  -4   70.09    7.05
  -6  -6  -5  137.91    6.71
  -6  -6  -5  154.32   10.07
   6   6   5  147.43    5.31
  -6  -6  -6  104.22    5.86
  -6  -6  -6  117.56    8.03
   6   6   6  114.82    4.60
  -6  -6  -7  610.37   16.82
  -6  -6  -7  624.52   18.67
  -6  -6  -8  156.89    7.31
   6   6   8  172.25    5.47
  -6  -6  -9  133.17    6.61
   6   6   9  149.51    4.88
   6   6  10   74.36    2.74
  -6  -6 -10   78.01    4.71
  -6  -6 -11   62.24    3.85
   6   6  11   63.77    2.53
  -6  -6 -12  162.89    5.63
   6   6  12  170.28    4.16
  -6  -7   3  104.44    2.95
  -6  -7   2  154.14    4.26
  -6  -7   1    0.49    0.31
  -6  -7   0   62.77    2.92
  -6  -7   0   59.86    2.64
  -6  -7  -1   26.44    1.99
  -6  -7  -1   21.18    1.49
  -6  -7  -1   28.10    2.45
  -6  -7  -1   25.80    1.84
  -6  -7  -2   65.70    3.41
  -6  -7  -2   62.89    2.86
  -6  -7  -2   71.17    3.29
  -6  -7  -3   96.53    4.41
  -6  -7  -3   94.97    3.81
  -6  -7  -4   27.73    2.06
  -6  -7  -4   29.03    3.42
   6   7   4   24.86    1.53
  -6  -7  -5  175.64    5.85
   6   7   5  159.25    4.74
  -6  -7  -5  173.88    6.05
  -6  -7  -6   42.07    2.73
  -6  -7  -6   46.01    4.12
   6   7   6   44.57    2.24
  -6  -7  -7  208.52    6.59
  -6  -7  -7  193.18    7.97
   6   7   7  208.15    5.58
  -6  -7  -8  186.16    6.15
   6   7   8  204.02    5.36
  -6  -7  -9    4.16    0.81
   6   7   9    4.44    0.68
  -6  -7 -10   18.49    1.44
   6   7  10   25.37    1.46
  -6  -8  -1  110.16    3.05
  -6  -8  -2   66.42    2.42
  -6  -8  -3   93.39    3.10
  -6  -8  -4   38.31    1.95
  -6  -8  -4   38.37    1.95
  -6  -8  -5  251.15    6.20
  -6  -8  -5  260.33    6.19
  -6  -8  -6  134.68    4.11
  -6  -8  -6  145.55    4.13
  -6  -8  -7  129.11    3.98
  -6  -8  -7  165.19    4.21
  -7   5   5  256.10    6.03
  -7   5   4   31.75    2.06
  -7   5   2   32.52    2.56
  -7   5   1  191.00    7.12
  -7   5   0  237.20    8.29
   7  -5   1  104.41    3.56
  -7   5  -1  113.83    5.08
   7  -5   2  266.55    6.21
  -7   5  -2  292.43    7.71
   7  -5   3   23.22    1.25
   7  -5   3   29.95    1.60
   7  -5   4   68.95    2.36
  -7   4   7   31.60    1.91
  -7   4   6   52.26    2.42
  -7   4   5  192.97    6.04
   7  -4  -4   36.72    2.10
  -7   4   3  146.00    6.10
   7  -4  -3  117.66    4.39
  -7   4   2   83.92    5.05
   7  -4  -2   78.89    3.63
  -7   4   1   52.74    4.37
   7  -4  -1   44.55    2.74
  -7   4   0  170.76    8.77
   7  -4   0  162.62    5.62
   7  -4   1   53.73    2.94
  -7   4  -2   65.50    4.95
   7  -4   2   75.71    3.37
   7  -4   3  316.18    8.09
   7  -4   3  304.48    7.45
   7  -4   4   16.83    1.45
   7  -4   5   46.57    2.22
   7  -4   5   54.17    2.45
   7  -4   6  151.39    3.88
   7  -4   6  160.95    4.25
  -7   3   8   39.94    2.10
  -7   3   8   52.38    2.36
  -7   3   7  464.09    9.32
  -7   3   7  502.97   10.97
  -7   3   6   38.44    2.36
  -7   3   6   25.31    2.40
  -7   3   5  221.30    6.94
  -7   3   5  159.11    6.20
   7  -3  -4    7.50    1.09
  -7   3   3   75.00    4.60
   7  -3  -3   65.01    3.45
  -7   3   2   53.22    4.19
   7  -3  -2   45.67    3.00
  -7   3   1   53.69    4.53
   7  -3  -1   45.77    3.09
  -7   3   0  686.25   20.00
   7  -3   0  682.27   15.54
  -7   3  -1   36.53    4.29
  -7   3  -2   15.94    2.86
   7  -3   2   19.85    1.93
  -7   3  -3    2.70    1.12
   7  -3   3    1.37    0.56
   7  -3   4  195.08    6.00
   7  -3   5    5.23    0.79
   7  -3   6   54.34    2.79
   7  -3   6   51.33    2.55
   7  -3   6   55.28    2.64
   7  -3   7  151.70    4.41
   7  -3   7  153.91    4.24
   7  -3   8   12.27    0.95
  -7   2   9   14.54    1.00
  -7   2   8    1.78    0.66
  -7   2   7  158.10    6.55
  -7   2   7  169.07    5.75
  -7   2   6    9.49    1.26
  -7   2   6    8.42    1.88
  -7   2   5  177.62    6.40
  -7   2   5  143.42    7.78
  -7   2   4    4.41    1.43
   7  -2  -4    3.28    0.79
  -7   2   3  277.08    9.38
  -7   2   3  213.57    8.48
  -7   2   2  130.47    6.68
  -7   2   1   31.15    3.39
  -7   2   0  415.76   14.23
  -7   2  -1    5.89    1.68
  -7   2  -2   44.64    4.46
  -7   2  -3  185.21    8.71
   7  -2   4  187.31    7.10
   7  -2   5  401.04   10.61
   7  -2   5  360.84    9.26
   7  -2   6   70.73    3.70
   7  -2   6   73.40    3.71
   7  -2   7  149.99    5.06
   7  -2   7  150.52    4.67
   7  -2   8   58.04    2.51
   7  -2   8   60.37    2.89
   7  -2   8   54.89    2.27
   7  -2   9   71.42    2.71
   7  -2  10  118.04    3.08
  -7   1   9    6.66    0.71
  -7   1   8    2.54    0.80
  -7   1   8    0.84    0.28
  -7   1   7  157.42    6.32
  -7   1   7  147.92    5.29
  -7   1   6   13.16    2.15
  -7   1   6    9.07    1.50
  -7   1   5  138.97    7.80
  -7   1   5  138.43    6.20
  -7   1   4   39.85    4.14
  -7   1   3   39.03    3.32
  -7   1   3   43.39    4.11
  -7   1   2  479.12   13.86
  -7   1   2  452.32   13.79
  -7   1   1    0.88    0.64
  -7   1   1    0.55    1.04
  -7   1   0  254.94   10.18
  -7   1   0  247.57    9.14
  -7   1  -1   14.38    2.40
  -7   1  -2  413.97   13.81
  -7   1  -3  160.29    7.64
   7  -1   4   32.94    2.91
   7  -1   5  156.08    6.37
   7  -1   6  146.60    5.88
   7  -1   7  681.41   15.19
   7  -1   7  695.08   15.23
   7  -1   8  182.55    5.91
   7  -1   8  175.58    5.67
   7  -1   9  160.13    4.99
   7  -1   9  154.18    4.62
   7  -1   9  150.76    5.14
   7  -1  10   57.03    2.44
   7  -1  10   53.94    2.04
  -7   0   8   41.55    2.09
  -7   0   8   34.36    1.61
  -7   0   7  304.26    8.59
  -7   0   7  271.29    6.86
  -7   0   6   21.90    2.50
  -7   0   6   18.04    1.92
  -7   0   5  131.65    6.87
  -7   0   5  119.24    5.49
  -7   0   4    7.08    1.34
  -7   0   4    7.13    2.02
  -7   0   4    6.05    1.47
  -7   0   3  103.31    5.37
  -7   0   3  121.26    7.01
  -7   0   3  106.89    5.88
  -7   0   2  305.93    8.47
  -7   0   2  299.16   10.20
  -7   0   2  306.59   10.86
  -7   0   1    5.04    1.03
  -7   0   1    5.61    1.39
  -7   0   1    3.87    1.34
  -7   0   0  130.38    5.47
  -7   0   0  120.35    6.45
  -7   0   0  126.17    6.31
  -7   0  -1   66.13    3.97
  -7   0  -1   63.52    4.66
  -7   0  -2   83.36    5.28
  -7   0  -3  260.17    9.46
   7   0   4   17.58    2.09
   7   0   5  176.73    6.81
   7   0   6   36.78    2.85
   7   0   6   39.12    3.07
   7   0   7  146.37    5.74
   7   0   7  158.13    6.08
   7   0   8  303.02    8.44
   7   0   9   13.38    1.42
   7   0   9   11.81    1.30
   7   0  10  146.89    4.62
   7   0  10  147.15    4.39
   7   0  11   23.33    1.45
   7   0  11   24.00    1.31
  -7  -1   8    1.57    0.51
  -7  -1   8    2.11    0.37
  -7  -1   7  203.60    5.72
  -7  -1   7  198.69    5.27
  -7  -1   6   84.34    3.87
  -7  -1   6   84.63    3.55
  -7  -1   5  208.84    6.15
  -7  -1   5  214.18    7.21
  -7  -1   4  311.26    8.49
  -7  -1   4  328.28    9.95
  -7  -1   3   25.49    2.22
  -7  -1   3   30.49    2.89
  -7  -1   2  311.33    9.26
  -7  -1   2  295.85    9.70
  -7  -1   2  312.79   10.43
  -7  -1   1    6.71    1.35
  -7  -1   1    7.16    1.46
  -7  -1   1    5.99    1.58
  -7  -1   0  300.29    9.91
  -7  -1   0  290.21   10.03
  -7  -1   0  294.62    9.95
  -7  -1  -1  284.91   10.05
  -7  -1  -1  275.27    9.78
  -7  -1  -1  286.56    9.31
   7   1   2   77.66    4.18
  -7  -1  -2   90.40    5.51
  -7  -1  -2   80.41    4.82
   7   1   3  127.05    5.49
  -7  -1  -3  124.05    5.83
   7   1   4   27.26    2.44
  -7  -1  -4   32.21    3.60
   7   1   5  370.19   10.50
   7   1   5  396.76   11.35
   7   1   6    8.01    1.31
   7   1   6    7.75    1.41
  -7  -1  -6    6.75    1.81
   7   1   7  184.65    6.50
   7   1   7  190.95    6.88
   7   1   8  169.09    5.87
   7   1   8  178.66    6.22
   7   1   9   94.22    3.89
   7   1   9   94.30    3.98
   7   1  10  220.79    6.08
   7   1  11    2.91    0.57
   7   1  11    3.16    0.56
   7   1  12  121.34    3.16
   7   1  12  116.18    3.31
  -7  -2   7  102.28    3.21
  -7  -2   6   27.91    1.80
  -7  -2   5   57.95    2.94
  -7  -2   5   61.98    3.30
  -7  -2   4  188.57    6.27
  -7  -2   4  202.96    6.94
  -7  -2   4  197.22    6.48
  -7  -2   3    2.93    0.84
  -7  -2   3    5.49    1.44
  -7  -2   2  206.68    7.41
  -7  -2   2  206.63    7.81
  -7  -2   1    5.66    1.29
  -7  -2   1   10.39    1.89
  -7  -2   0  311.04   10.55
  -7  -2   0  329.73   10.28
  -7  -2  -1  297.74   10.68
  -7  -2  -1  309.45    9.63
  -7  -2  -2   29.60    3.31
   7   2   2   26.05    2.29
  -7  -2  -2   30.08    2.60
   7   2   3   10.08    1.50
  -7  -2  -3    8.90    2.00
   7   2   4    2.19    0.76
  -7  -2  -4    0.14    0.75
  -7  -2  -5  429.02   15.32
   7   2   5  414.42   11.24
   7   2   6   36.65    2.48
   7   2   6   37.78    2.83
  -7  -2  -6   37.73    4.46
   7   2   7  110.13    4.37
   7   2   7  113.63    4.88
  -7  -2  -7  106.79    7.71
   7   2   8  154.13    5.16
   7   2   8  154.01    5.56
   7   2   9   49.64    2.59
   7   2   9   52.95    2.87
   7   2  10    8.89    1.02
   7   2  10    9.13    1.10
   7   2  11    9.88    1.01
  -7  -2 -11   10.72    1.68
   7   2  11    9.35    0.93
   7   2  12   91.60    2.74
  -7  -3   6  198.44    5.12
  -7  -3   5   14.77    1.36
  -7  -3   4  125.48    4.67
  -7  -3   4  120.98    4.51
  -7  -3   3    4.03    0.90
  -7  -3   3    4.21    1.24
  -7  -3   3    3.52    0.84
  -7  -3   2  220.27    7.54
  -7  -3   2  229.91    7.73
  -7  -3   2  227.21    7.24
  -7  -3   1  254.75    7.69
  -7  -3   1  260.92    8.82
  -7  -3   1  270.34    8.72
  -7  -3   1  265.65    8.20
  -7  -3   0    0.34    0.47
  -7  -3   0    1.10    0.80
  -7  -3   0    2.26    1.15
  -7  -3   0    0.89    0.58
  -7  -3  -1  348.45   11.60
  -7  -3  -1  340.23    9.81
  -7  -3  -2   25.67    3.01
  -7  -3  -2   26.02    2.30
  -7  -3  -3  136.77    7.43
   7   3   4   11.28    1.37
  -7  -3  -4   15.17    2.62
   7   3   5  236.28    7.15
  -7  -3  -5  250.12   11.10
   7   3   6  234.14    7.06
  -7  -3  -6  233.42   11.15
   7   3   7   97.05    4.13
  -7  -3  -7  112.33    7.68
   7   3   8  225.04    6.60
  -7  -3  -8  230.47   11.67
   7   3   9    2.20    0.62
  -7  -3  -9    4.02    1.74
   7   3  10  304.41    7.48
  -7  -3 -10  348.04   13.92
   7   3  11   87.01    3.16
  -7  -3 -11  113.14    6.25
   7   3  12  216.65    5.23
  -7  -3 -12  253.77    7.55
  -7  -4   4  137.37    4.43
  -7  -4   4  134.68    4.37
  -7  -4   3    0.27    0.26
  -7  -4   3    1.17    0.48
  -7  -4   3    0.61    0.40
  -7  -4   2   77.57    3.49
  -7  -4   2   77.93    3.60
  -7  -4   1   86.66    4.00
  -7  -4   1   86.63    3.96
  -7  -4   0   44.86    3.02
  -7  -4   0   43.35    2.80
  -7  -4  -1   63.42    3.35
  -7  -4  -1   69.31    3.60
  -7  -4  -2    9.15    1.26
  -7  -4  -3  302.39   13.46
  -7  -4  -4   28.44    3.92
  -7  -4  -5  263.82   11.64
   7   4   6  233.83    6.20
   7   4   7   47.15    2.43
   7   4   8   79.65    3.21
   7   4   9   65.96    2.80
   7   4   9   65.87    3.01
   7   4  10  297.24    6.90
   7   4  10  285.95    6.74
  -7  -4 -11  291.25   10.25
  -7  -4 -12   21.90    1.98
   7   4  12   16.53    1.02
  -7  -5   3    4.16    0.66
  -7  -5   3    5.34    0.70
  -7  -5   2   15.60    1.33
  -7  -5   2   15.04    1.38
  -7  -5   1   42.27    2.46
  -7  -5   1   44.21    2.58
  -7  -5   0  160.39    5.59
  -7  -5   0  163.62    5.79
  -7  -5  -1  164.20    6.03
  -7  -5  -1  157.77    6.11
  -7  -5  -1  158.41    5.18
  -7  -5  -2   14.01    1.84
  -7  -5  -2   13.20    1.50
  -7  -5  -3   46.24    3.50
  -7  -5  -4   16.79    2.20
  -7  -5  -4   16.68    3.09
  -7  -5  -5  115.35    6.12
  -7  -5  -5  127.21    7.99
  -7  -5  -6  402.97   12.69
  -7  -5  -6  406.38   13.89
  -7  -5  -7   17.28    2.41
  -7  -5  -8  118.45    6.35
   7   5   9    9.54    0.85
   7   5   9   11.65    1.12
  -7  -5 -10  109.99    5.60
   7   5  10  116.01    3.40
  -7  -5 -11   51.57    3.20
  -7  -6   2   17.27    1.09
  -7  -6   1  194.78    4.91
  -7  -6   1  173.27    4.57
  -7  -6   0   16.24    1.35
  -7  -6   0   14.49    1.22
  -7  -6  -1  318.92    7.88
  -7  -6  -1  313.58    7.68
  -7  -6  -1  310.33    7.07
  -7  -6  -2   57.16    3.02
  -7  -6  -2   59.49    2.98
  -7  -6  -2   58.12    2.68
  -7  -6  -3  103.48    4.36
  -7  -6  -3   99.36    4.18
  -7  -6  -3  106.39    3.94
  -7  -6  -4   90.03    4.15
  -7  -6  -4   92.18    3.87
   7   6   4   83.41    3.09
  -7  -6  -5   26.87    2.27
   7   6   5   24.62    1.63
  -7  -6  -6  152.64    5.85
  -7  -6  -6  151.84    7.00
   7   6   6  151.82    4.51
  -7  -6  -7   27.47    2.35
   7   6   7   29.16    1.72
  -7  -6  -8   27.71    2.31
   7   6   8   29.93    1.66
  -7  -6  -9   25.82    2.10
   7   6   9   28.76    1.50
  -7  -6 -10   11.43    1.21
   7   6  10   11.51    0.83
  -7  -7  -3   77.73    2.59
  -7  -7  -4   36.28    1.77
  -7  -7  -5   15.80    1.19
  -7  -7  -6   89.19    3.28
   8  -4  -1    0.57    0.26
   8  -4   0  147.22    3.94
  -8   3   3   23.62    1.81
  -8   3   2   38.37    2.67
  -8   3   1   59.29    3.76
  -8   3   0   31.77    2.98
   8  -3   1  210.35    5.93
  -8   3  -1  162.03    6.50
   8  -3   2   12.76    1.27
  -8   3  -2    9.85    1.14
   8  -3   3   14.03    1.22
   8  -3   4    4.07    0.64
   8  -3   4    3.11    0.56
   8  -3   4    4.34    0.56
  -8   2   5   12.84    1.29
  -8   2   4  121.12    4.11
  -8   2   4   90.96    4.12
  -8   2   3    2.07    0.63
  -8   2   3    0.96    0.77
  -8   2   2  102.46    4.78
  -8   2   1   54.46    3.69
   8  -2  -1   50.14    2.73
  -8   2   0   94.31    5.28
   8  -2   0  102.88    4.13
   8  -2   1  195.79    6.56
   8  -2   1  196.27    6.03
   8  -2   2   15.89    1.67
  -8   2  -2   14.70    1.85
   8  -2   2   16.08    1.55
   8  -2   3  300.42    7.91
   8  -2   3  273.01    7.19
   8  -2   4   62.14    3.00
   8  -2   4   63.30    3.09
   8  -2   5  144.84    4.47
   8  -2   5  126.70    3.57
   8  -2   6  242.68    5.88
   8  -2   6  246.27    5.75
   8  -2   7   15.62    1.01
  -8   1   6  112.34    3.41
  -8   1   6  115.02    3.05
  -8   1   5   29.75    2.03
  -8   1   4  129.52    5.05
  -8   1   3   47.13    2.83
  -8   1   3   41.42    3.16
  -8   1   2   33.69    2.61
  -8   1   2   27.04    2.49
  -8   1   1  527.89   13.55
  -8   1   0    4.23    1.11
   8  -1   1  251.62    7.76
  -8   1  -1  243.26    8.72
   8  -1   2  106.34    4.61
  -8   1  -2  100.25    5.00
   8  -1   3  154.99    5.59
   8  -1   4  177.06    5.86
   8  -1   4  187.81    6.29
   8  -1   5    4.34    0.84
   8  -1   5    2.52    0.68
   8  -1   6  187.42    5.46
   8  -1   6  192.75    5.61
   8  -1   7   18.41    1.34
   8  -1   8   40.33    1.74
   8  -1   8   41.09    1.67
  -8   0   6  141.12    3.83
  -8   0   6  139.55    3.49
  -8   0   5   33.34    2.05
  -8   0   4  155.03    5.40
  -8   0   3   65.22    3.71
  -8   0   2    7.19    1.54
  -8   0   1   81.68    4.22
  -8   0   1   75.29    4.00
  -8   0   0    3.32    0.93
   8   0   1  105.13    4.29
  -8   0  -1  117.03    5.38
   8   0   2   60.97    3.21
  -8   0  -2   62.35    3.66
   8   0   3   25.77    2.07
   8   0   3   30.51    2.47
   8   0   4   92.96    3.98
   8   0   4  100.65    4.46
   8   0   5    2.88    0.68
   8   0   5    2.98    0.77
   8   0   6  110.46    4.04
   8   0   6  116.12    4.35
   8   0   7   18.08    1.40
   8   0   7   17.49    1.47
   8   0   8  311.85    6.97
   8   0   8  330.50    7.19
   8   0   9   31.94    1.43
  -8  -1   5  189.54    5.11
  -8  -1   4    5.40    1.10
  -8  -1   4    3.42    0.66
  -8  -1   3    8.59    1.43
  -8  -1   3    4.86    0.85
  -8  -1   2    4.16    1.22
  -8  -1   1   76.37    3.98
  -8  -1   0   44.61    2.88
   8   1   1  117.83    4.27
   8   1   2   78.61    3.64
   8   1   3   63.67    3.36
   8   1   4   17.38    1.48
   8   1   4   21.82    1.93
   8   1   5    0.31    0.27
   8   1   5    0.82    0.45
   8   1   6  122.81    4.06
   8   1   6  134.07    4.68
   8   1   7    6.79    0.83
   8   1   7    6.87    0.94
   8   1   8  121.17    3.56
   8   1   8  137.18    4.08
   8   1   9  273.06    6.06
  -8  -2   5   98.54    2.87
  -8  -2   4   64.65    2.55
  -8  -2   3   40.42    1.97
  -8  -2   3   43.61    2.28
  -8  -2   2  292.19    7.19
  -8  -2   2  299.56    7.67
  -8  -2   1  443.47   10.10
  -8  -2   1  440.13   10.43
  -8  -2   0   10.34    1.34
  -8  -2   0    9.51    1.29
  -8  -2  -1  173.22    6.10
  -8  -2  -1  162.16    5.63
  -8  -2  -2  108.72    4.91
  -8  -2  -2   89.84    3.82
  -8  -2  -3   87.02    4.54
   8   2   3   60.30    2.76
  -8  -2  -4  312.55    9.49
   8   2   4  230.08    6.47
   8   2   5   41.07    2.34
  -8  -2  -5   48.36    3.63
   8   2   6  310.83    7.57
   8   2   7   31.58    1.87
   8   2   8  106.57    3.46
   8   2   9   68.83    2.45
   8   2  10   45.60    1.70
  -8  -3   4    5.61    0.62
  -8  -3   3   57.08    2.30
  -8  -3   3   64.69    2.50
  -8  -3   2   24.59    1.63
  -8  -3   2   24.10    1.62
  -8  -3   1  131.40    4.44
  -8  -3   1  120.09    4.16
  -8  -3   0  450.07   10.49
  -8  -3   0  421.30    9.76
  -8  -3  -1   96.72    4.33
  -8  -3  -1   84.67    3.48
  -8  -3  -2  153.36    6.02
  -8  -3  -3    2.68    0.89
  -8  -3  -4   51.66    3.70
  -8  -3  -5   27.18    2.80
   8   3   6   73.77    2.68
  -8  -3  -6   94.49    5.39
   8   3   7   78.36    2.74
  -8  -3  -7   98.88    5.58
   8   3   8   93.51    2.88
   8   3   8   78.67    2.89
   8   3   9   50.57    1.89
  -8  -4   2   12.08    0.97
  -8  -4   1   33.20    1.84
  -8  -4   0  152.89    4.80
  -8  -4  -1   57.47    2.96
  -8  -4  -2   45.57    2.82
  -8  -4  -3    6.68    1.17
  -8  -4  -4  180.25    6.61
  -8  -4  -5   36.09    2.89
  -8  -4  -6  207.75    7.57
  -8  -4  -7  146.81    6.25
  -8  -4  -8    1.78    0.75
   8   4   8    1.62    0.38
  -8  -5   0  197.87    4.74
  -8  -5  -1   15.98    1.22
  -8  -5  -2   72.86    2.97
  -8  -5  -3   30.74    1.95
   8   5   3   23.24    1.28
  -8  -5  -4   33.15    2.14
   8   5   4   24.74    1.45
   8   5   5  163.69    4.29
  -8  -5  -6   14.91    1.19
   8   5   6   11.75    0.97
   8   5   7   35.35    1.58
   0   0   0    0.00    0.00


TITL tf-7-132-insol in P-1
REM P-1 (#2 in standard setting)
CELL 1.54184   7.208503   8.157150  13.674774  74.9852  82.8961  84.5092
ZERR    2.00   0.000182   0.000205   0.000341   0.0022   0.0021   0.0021
LATT  1
SFAC C H N O Se
UNIT 32.00 30.00 6.00 8.00 2.00
TREF
HKLF 4
END
_computing_structure_solution     'SHELXT 2018/2 (Sheldrick, 2018)'
;
_shelx_hkl_checksum                47160
_olex2_submission_special_instructions  'No special instructions were received'
_oxdiff_exptl_absorpt_empirical_details
;
Empirical correction (ABSPACK) includes:
- Absorption correction using spherical harmonics
- Frame scaling
;
_oxdiff_exptl_absorpt_empirical_full_max  1.544
_oxdiff_exptl_absorpt_empirical_full_min  0.691
