data_tf-7-132-insol-dmap
_audit_creation_date               2021-01-29
_audit_creation_method
;
Olex2 1.3
(compiled 2020.11.12 svn.r5f609507 for OlexSys, GUI svn.r6226)
;
_shelx_SHELXL_version_number       '2018/3'
_audit_contact_author_address      ?
_audit_contact_author_email        ?
_audit_contact_author_name         ''
_audit_contact_author_phone        ?
_publ_contact_author_id_orcid      ?
_publ_section_references
;
Dolomanov, O.V., Bourhis, L.J., Gildea, R.J, Howard, J.A.K. & Puschmann, H.
 (2009), J. Appl. Cryst. 42, 339-341.

Sheldrick, G.M. (2015). Acta Cryst. A71, 3-8.

Sheldrick, G.M. (2015). Acta Cryst. C71, 3-8.
;
_chemical_name_common              ?
_chemical_name_systematic          ?
_chemical_formula_moiety           'C20 H18 N4 O3 Se'
_chemical_formula_sum              'C20 H18 N4 O3 Se'
_chemical_formula_weight           441.34
_chemical_melting_point            ?
_chemical_oxdiff_formula           C20H18N4O3Se
_chemical_oxdiff_usercomment       'ex dmf'
loop_
  _atom_type_symbol
  _atom_type_description
  _atom_type_scat_dispersion_real
  _atom_type_scat_dispersion_imag
  _atom_type_scat_source
 'C' 'C' 0.0181 0.0091 'International Tables Vol C Tables 4.2.6.8 and 6.1.1.4'
 'H' 'H' 0.0000 0.0000 'International Tables Vol C Tables 4.2.6.8 and 6.1.1.4'
 'N' 'N' 0.0311 0.0180 'International Tables Vol C Tables 4.2.6.8 and 6.1.1.4'
 'O' 'O' 0.0492 0.0322 'International Tables Vol C Tables 4.2.6.8 and 6.1.1.4'
 'Se' 'Se' -0.7943 1.1372
 'International Tables Vol C Tables 4.2.6.8 and 6.1.1.4'

_shelx_space_group_comment
;
The symmetry employed for this shelxl refinement is uniquely defined
by the following loop, which should always be used as a source of
symmetry information in preference to the above space-group names.
They are only intended as comments.
;
_space_group_crystal_system        'triclinic'
_space_group_IT_number             2
_space_group_name_H-M_alt          'P -1'
_space_group_name_Hall             '-P 1'
loop_
  _space_group_symop_operation_xyz
 'x, y, z'
 '-x, -y, -z'

_cell_length_a                     9.3390(2)
_cell_length_b                     9.5875(2)
_cell_length_c                     11.9936(2)
_cell_angle_alpha                  109.209(2)
_cell_angle_beta                   108.248(2)
_cell_angle_gamma                  98.648(2)
_cell_volume                       923.85(4)
_cell_formula_units_Z              2
_cell_measurement_reflns_used      8140
_cell_measurement_temperature      100.01(10)
_cell_measurement_theta_max        76.4280
_cell_measurement_theta_min        4.2460
_shelx_estimated_absorpt_T_max     0.753
_shelx_estimated_absorpt_T_min     0.265
_exptl_absorpt_coefficient_mu      3.012
_exptl_absorpt_correction_T_max    1.000
_exptl_absorpt_correction_T_min    0.271
_exptl_absorpt_correction_type     gaussian
_exptl_absorpt_process_details
;
CrysAlisPro 1.171.40.67a (Rigaku Oxford Diffraction, 2019)
Numerical absorption correction based on gaussian integration over
			a multifaceted crystal model
Empirical absorption correction using spherical harmonics,
 implemented in SCALE3 ABSPACK scaling algorithm.
;
_exptl_absorpt_special_details     ?
_exptl_crystal_colour              'light yellow'
_exptl_crystal_density_diffrn      1.587
_exptl_crystal_density_meas        ?
_exptl_crystal_density_method      ?
_exptl_crystal_description         needle
_exptl_crystal_F_000               448
loop_
  _exptl_crystal_face_index_h
  _exptl_crystal_face_index_k
  _exptl_crystal_face_index_l
  _exptl_crystal_face_perp_dist
 0 0 1 0.0547
 0 0 -1 0.0456
 0 1 -1 0.0849
 0 -1 1 0.0954
 0 1 0 0.0669
 0 -1 0 0.0903
 2 -2 1 0.2087
 2 0 -1 0.3094
 -2 0 -1 0.2139
 -3 6 -1 0.1496
 -6 0 4 0.2817
 3 1 3 0.1570
 0 -3 7 0.0660
 2 -3 6 0.1260
 -3 3 -5 0.1498

_exptl_crystal_size_max            0.6
_exptl_crystal_size_mid            0.185
_exptl_crystal_size_min            0.1
loop_
  _exptl_oxdiff_crystal_face_indexfrac_h
  _exptl_oxdiff_crystal_face_indexfrac_k
  _exptl_oxdiff_crystal_face_indexfrac_l
  _exptl_oxdiff_crystal_face_x
  _exptl_oxdiff_crystal_face_y
  _exptl_oxdiff_crystal_face_z
 0.0009 -0.0010 1.0002 -0.0752 -0.1249 0.0231
 -0.0009 0.0010 -1.0002 0.0752 0.1249 -0.0231
 0.0002 1.0012 -0.9993 0.1508 -0.0181 -0.0962
 -0.0002 -1.0012 0.9993 -0.1508 0.0181 0.0962
 0.0010 1.0002 0.0008 0.0755 -0.1430 -0.0732
 -0.0010 -1.0002 -0.0008 -0.0755 0.1430 0.0732
 2.0000 -2.0026 0.9980 -0.4344 0.0679 -0.1122
 2.0003 -0.0002 -1.0007 -0.1328 0.0317 -0.3046
 -2.0021 0.0022 -0.9996 0.2833 0.2181 0.2585
 -2.7680 5.8644 -0.8070 0.7922 -0.6075 -0.0573
 -5.9355 0.4775 3.8877 0.3614 -0.2771 0.8903
 3.1717 1.4345 3.1688 -0.4588 -0.7491 -0.4779
 -0.0965 -3.3603 7.3267 -0.7940 -0.4314 0.4282
 2.4272 -2.5258 5.7976 -0.8785 -0.4773 -0.0232
 -2.8559 2.9472 -5.3583 0.9220 0.3822 0.0629

_exptl_transmission_factor_max     ?
_exptl_transmission_factor_min     ?
_diffrn_reflns_av_R_equivalents    0.0342
_diffrn_reflns_av_unetI/netI       0.0316
_diffrn_reflns_Laue_measured_fraction_full  0.996
_diffrn_reflns_Laue_measured_fraction_max  0.970
_diffrn_reflns_limit_h_max         10
_diffrn_reflns_limit_h_min         -11
_diffrn_reflns_limit_k_max         10
_diffrn_reflns_limit_k_min         -12
_diffrn_reflns_limit_l_max         15
_diffrn_reflns_limit_l_min         -14
_diffrn_reflns_number              10552
_diffrn_reflns_point_group_measured_fraction_full  0.996
_diffrn_reflns_point_group_measured_fraction_max  0.970
_diffrn_reflns_theta_full          67.684
_diffrn_reflns_theta_max           77.154
_diffrn_reflns_theta_min           4.236
_diffrn_ambient_environment        N~2~
_diffrn_ambient_temperature        100.01(10)
_diffrn_detector                   'Hybrid Pixel Array Detector'
_diffrn_detector_area_resol_mean   10.0000
_diffrn_detector_type              HyPix
_diffrn_measured_fraction_theta_full  0.996
_diffrn_measured_fraction_theta_max  0.970
_diffrn_measurement_details
;
List of Runs (angles in degrees, time in seconds):

  # Type    Start    End  Width  t~exp~   \w     \q     \k     \f   Frames
--------------------------------------------------------------------------
  1  \w   -120.00 -86.00   0.50    0.05    --  -48.20 -57.00 150.00   68
  2  \w   -120.00 -83.00   0.50    0.05    --  -48.20 -57.00  60.00   74
  3  \w   -120.00 -83.00   0.50    0.05    --  -48.20 -57.00  90.00   74
  4  \w   -115.00 -83.00   0.50    0.05    --  -48.20 -57.00 120.00   64
  5  \w    -61.00  11.00   0.50    0.05    --  -48.20  57.00-150.00  144
  6  \w   -120.00 -89.00   0.50    0.05    --  -48.20-125.00  60.00   62
  7  \w     34.00  92.00   0.50    0.05    --   48.20-125.00  60.00  116
  8  \w     45.00  94.00   0.50    0.05    --   48.20-125.00-120.00   98
  9  \w    -26.00  10.00   0.50    0.05    --   48.20 -19.00 -30.00   72
 10  \w     68.00 106.00   0.50    0.06    --  107.75 -94.00  30.00   76
 11  \w     36.00  62.00   0.50    0.06    --  107.75 -94.00  30.00   52
 12  \w     35.00 106.00   0.50    0.06    --  107.75 -94.00 -90.00  142
 13  \w    120.00 172.00   0.50    0.06    --  107.75 125.00-120.00  104
 14  \w     38.00 103.00   0.50    0.06    --  107.75 -94.00-180.00  130
 15  \w     72.00 112.00   0.50    0.06    --  107.75-125.00-180.00   80
 16  \w     46.00  93.00   0.50    0.06    --  107.75 -94.00-120.00   94
 17  \w     99.00 177.00   0.50    0.06    --  107.75  45.00  90.00  156
 18  \w     38.00 123.00   0.50    0.06    --  107.75 -77.00  30.00  170
 19  \w     78.00 105.00   0.50    0.06    --  107.75 -94.00 -30.00   54
 20  \w     36.00  62.00   0.50    0.06    --  107.75-125.00-180.00   52
 21  \w    145.00 175.00   0.50    0.06    --  107.75  30.00 -60.00   60
 22  \w     98.00 178.00   0.50    0.06    --  107.75  45.00-150.00  160
 23  \w    103.00 138.00   0.50    0.06    --  107.75  30.00 -60.00   70
 24  \w     39.00  73.00   0.50    0.06    --  107.75 -94.00 -30.00   68
 25  \w     45.00 101.00   0.50    0.06    --  107.75 -94.00   0.00  112
 26  \w     94.00 160.00   0.50    0.06    --  107.75  15.00 -90.00  132
 27  \w     48.00 105.00   0.50    0.06    --  107.75 -95.00 -60.63  114
 28  \w     95.00 160.00   0.50    0.06    --  107.75 125.00 -60.00  130
 29  \w     40.00  71.00   0.50    0.06    --  107.75 -97.00-135.73   62
 30  \w     78.00 105.00   0.50    0.06    --  107.75 -97.00-135.73   54
 31  \w     97.00 161.00   0.50    0.06    --  107.75  15.00  30.00  128
 32  \w     35.00  69.00   0.50    0.06    --  107.75 -61.00  30.00   68
 33  \w     95.00 178.00   0.50    0.06    --  107.75  45.00 -30.00  166
;
_diffrn_measurement_device         'four-circle diffractometer'
_diffrn_measurement_device_type    'XtaLAB Synergy, Dualflex, HyPix'
_diffrn_measurement_method         '\w scans'
_diffrn_orient_matrix_type        
 'CrysAlisPro convention (1999,Acta A55,543-557)'
_diffrn_orient_matrix_UB_11        -0.1039387000
_diffrn_orient_matrix_UB_12        0.0757050000
_diffrn_orient_matrix_UB_13        -0.0750231000
_diffrn_orient_matrix_UB_21        -0.0466807000
_diffrn_orient_matrix_UB_22        -0.1428361000
_diffrn_orient_matrix_UB_23        -0.1250072000
_diffrn_orient_matrix_UB_31        -0.1407306000
_diffrn_orient_matrix_UB_32        -0.0730219000
_diffrn_orient_matrix_UB_33        0.0231055000
_diffrn_radiation_monochromator    mirror
_diffrn_radiation_probe            x-ray
_diffrn_radiation_type             'Cu K\a'
_diffrn_radiation_wavelength       1.54184
_diffrn_source                     'micro-focus sealed X-ray tube'
_diffrn_source_type                'PhotonJet (Cu) X-ray Source'
_reflns_Friedel_coverage           0.000
_reflns_Friedel_fraction_full      .
_reflns_Friedel_fraction_max       .
_reflns_number_gt                  3698
_reflns_number_total               3789
_reflns_odcompleteness_completeness  98.51
_reflns_odcompleteness_iscentric   1
_reflns_odcompleteness_theta       75.12
_reflns_special_details
;
 Reflections were merged by SHELXL according to the crystal
 class for the calculation of statistics and refinement.
 
 _reflns_Friedel_fraction is defined as the number of unique
 Friedel pairs measured divided by the number that would be
 possible theoretically, ignoring centric projections and
 systematic absences.
;
_reflns_threshold_expression       'I > 2\s(I)'
_computing_cell_refinement         'CrysAlisPro 1.171.40.67a (Rigaku OD, 2019)'
_computing_data_collection         'CrysAlisPro 1.171.40.67a (Rigaku OD, 2019)'
_computing_data_reduction          'CrysAlisPro 1.171.40.67a (Rigaku OD, 2019)'
_computing_molecular_graphics      'Olex2 1.3 (Dolomanov et al., 2009)'
_computing_publication_material    'Olex2 1.3 (Dolomanov et al., 2009)'
_computing_structure_refinement    'SHELXL 2018/3 (Sheldrick, 2015)'
_computing_structure_solution      'SHELXT 2018/2 (Sheldrick, 2018)'
_refine_diff_density_max           0.681
_refine_diff_density_min           -0.698
_refine_diff_density_rms           0.074
_refine_ls_extinction_coef         0.0012(3)
_refine_ls_extinction_expression  
 'Fc^*^=kFc[1+0.001xFc^2^\l^3^/sin(2\q)]^-1/4^'
_refine_ls_extinction_method       'SHELXL-2018/3 (Sheldrick 2018)'
_refine_ls_goodness_of_fit_ref     1.075
_refine_ls_hydrogen_treatment      constr
_refine_ls_matrix_type             full
_refine_ls_number_parameters       256
_refine_ls_number_reflns           3789
_refine_ls_number_restraints       0
_refine_ls_R_factor_all            0.0317
_refine_ls_R_factor_gt             0.0310
_refine_ls_restrained_S_all        1.075
_refine_ls_shift/su_max            0.001
_refine_ls_shift/su_mean           0.000
_refine_ls_structure_factor_coef   Fsqd
_refine_ls_weighting_details      
 'w=1/[\s^2^(Fo^2^)+(0.0460P)^2^+0.6523P] where P=(Fo^2^+2Fc^2^)/3'
_refine_ls_weighting_scheme        calc
_refine_ls_wR_factor_gt            0.0832
_refine_ls_wR_factor_ref           0.0838
_refine_special_details            ?
_olex2_refinement_description
;
1. Fixed Uiso
 At 1.2 times of:
  All C(H) groups
 At 1.5 times of:
  All C(H,H,H) groups
2.a Aromatic/amide H refined with riding coordinates:
 C3(H3), C4(H4), C5(H5), C6(H6), C9(H9), C10(H10), C12(H12), C13(H13),
 C14(H14), C15(H15), C17(H17), C18(H18)
2.b Idealised Me refined as rotating group:
 C19(H19A,H19B,H19C), C20(H20A,H20B,H20C)
;
_atom_sites_solution_hydrogens     geom
_atom_sites_solution_primary       dual
_atom_sites_solution_secondary     ?
loop_
  _atom_site_label
  _atom_site_type_symbol
  _atom_site_fract_x
  _atom_site_fract_y
  _atom_site_fract_z
  _atom_site_U_iso_or_equiv
  _atom_site_adp_type
  _atom_site_occupancy
  _atom_site_site_symmetry_order
  _atom_site_calc_flag
  _atom_site_refinement_flags_posn
  _atom_site_refinement_flags_adp
  _atom_site_refinement_flags_occupancy
  _atom_site_disorder_assembly
  _atom_site_disorder_group
 Se01 Se 0.54373(2) 0.72115(2) 0.44817(2) 0.01769(10) Uani 1 1 d . . . . .
 O1 O 0.12445(16) 0.43002(17) 0.37181(14) 0.0230(3) Uani 1 1 d . . . . .
 O2 O 0.26157(19) 0.8338(2) 0.99822(16) 0.0326(4) Uani 1 1 d . . . . .
 O3 O 0.51471(18) 0.87580(18) 1.07208(14) 0.0283(3) Uani 1 1 d . . . . .
 N1 N 0.36090(18) 0.62291(19) 0.47926(16) 0.0180(3) Uani 1 1 d . . . . .
 N2 N 0.3854(2) 0.8291(2) 0.98272(17) 0.0227(4) Uani 1 1 d . . . . .
 N3 N 0.73342(19) 0.8092(2) 0.39135(16) 0.0201(3) Uani 1 1 d . . . . .
 N4 N 1.07985(19) 0.9343(2) 0.26312(17) 0.0203(3) Uani 1 1 d . . . . .
 C1 C 0.4101(2) 0.5964(2) 0.27259(18) 0.0185(4) Uani 1 1 d . . . . .
 C2 C 0.2687(2) 0.5038(2) 0.25714(19) 0.0188(4) Uani 1 1 d . . . . .
 C3 C 0.1568(2) 0.4083(2) 0.1350(2) 0.0215(4) Uani 1 1 d . . . . .
 H3 H 0.063199 0.346324 0.125254 0.026 Uiso 1 1 calc R U . . .
 C4 C 0.1862(2) 0.4063(2) 0.0282(2) 0.0254(4) Uani 1 1 d . . . . .
 H4 H 0.112074 0.343706 -0.053702 0.031 Uiso 1 1 calc R U . . .
 C5 C 0.3279(3) 0.4991(2) 0.0443(2) 0.0253(4) Uani 1 1 d . . . . .
 H5 H 0.347031 0.497683 -0.027515 0.030 Uiso 1 1 calc R U . . .
 C6 C 0.4406(2) 0.5931(2) 0.16528(19) 0.0218(4) Uani 1 1 d . . . . .
 H6 H 0.535082 0.653116 0.174665 0.026 Uiso 1 1 calc R U . . .
 C7 C 0.2410(2) 0.5127(2) 0.37379(19) 0.0187(4) Uani 1 1 d . . . . .
 C8 C 0.3642(2) 0.6667(2) 0.60345(18) 0.0169(4) Uani 1 1 d . . . . .
 C9 C 0.5101(2) 0.7323(2) 0.70781(19) 0.0196(4) Uani 1 1 d . . . . .
 H9 H 0.602235 0.741743 0.692878 0.023 Uiso 1 1 calc R U . . .
 C10 C 0.5185(2) 0.7829(2) 0.83236(19) 0.0212(4) Uani 1 1 d . . . . .
 H10 H 0.615187 0.825953 0.901261 0.025 Uiso 1 1 calc R U . . .
 C11 C 0.3794(2) 0.7681(2) 0.85225(18) 0.0188(4) Uani 1 1 d . . . . .
 C12 C 0.2334(2) 0.7025(2) 0.75146(19) 0.0191(4) Uani 1 1 d . . . . .
 H12 H 0.141877 0.692588 0.767286 0.023 Uiso 1 1 calc R U . . .
 C13 C 0.2260(2) 0.6523(2) 0.62720(19) 0.0185(4) Uani 1 1 d . . . . .
 H13 H 0.128728 0.608567 0.558909 0.022 Uiso 1 1 calc R U . . .
 C14 C 0.7344(2) 0.9201(2) 0.3458(2) 0.0212(4) Uani 1 1 d . . . . .
 H14 H 0.655070 0.968564 0.343019 0.025 Uiso 1 1 calc R U . . .
 C15 C 0.8466(2) 0.9655(2) 0.30326(19) 0.0206(4) Uani 1 1 d . . . . .
 H15 H 0.841055 1.041899 0.271685 0.025 Uiso 1 1 calc R U . . .
 C16 C 0.9705(2) 0.8958(2) 0.30750(18) 0.0183(4) Uani 1 1 d . . . . .
 C17 C 0.9705(2) 0.7826(2) 0.3592(2) 0.0219(4) Uani 1 1 d . . . . .
 H17 H 1.050269 0.734406 0.366660 0.026 Uiso 1 1 calc R U . . .
 C18 C 0.8526(2) 0.7441(2) 0.3985(2) 0.0223(4) Uani 1 1 d . . . . .
 H18 H 0.854968 0.669065 0.431713 0.027 Uiso 1 1 calc R U . . .
 C19 C 1.0657(3) 1.0385(3) 0.1978(2) 0.0263(4) Uani 1 1 d . . . . .
 H19A H 0.960795 1.007139 0.134551 0.039 Uiso 1 1 calc R U . . .
 H19B H 1.139185 1.035627 0.156860 0.039 Uiso 1 1 calc R U . . .
 H19C H 1.087691 1.141328 0.259002 0.039 Uiso 1 1 calc R U . . .
 C20 C 1.2113(2) 0.8674(3) 0.2749(2) 0.0253(4) Uani 1 1 d . . . . .
 H20A H 1.262887 0.881288 0.362278 0.038 Uiso 1 1 calc R U . . .
 H20B H 1.284528 0.917471 0.249283 0.038 Uiso 1 1 calc R U . . .
 H20C H 1.173035 0.759472 0.220772 0.038 Uiso 1 1 calc R U . . .

loop_
  _atom_site_aniso_label
  _atom_site_aniso_U_11
  _atom_site_aniso_U_22
  _atom_site_aniso_U_33
  _atom_site_aniso_U_23
  _atom_site_aniso_U_13
  _atom_site_aniso_U_12
 Se01 0.01361(13) 0.01973(14) 0.01709(13) 0.00612(9) 0.00559(9) 0.00119(8)
 O1 0.0161(7) 0.0256(7) 0.0215(7) 0.0057(6) 0.0073(5) -0.0017(6)
 O2 0.0298(8) 0.0406(9) 0.0254(8) 0.0081(7) 0.0156(7) 0.0059(7)
 O3 0.0287(8) 0.0299(8) 0.0182(7) 0.0078(6) 0.0035(6) 0.0025(6)
 N1 0.0130(7) 0.0208(8) 0.0188(8) 0.0069(7) 0.0071(6) 0.0015(6)
 N2 0.0259(9) 0.0216(8) 0.0191(8) 0.0079(7) 0.0089(7) 0.0029(7)
 N3 0.0153(7) 0.0226(8) 0.0198(8) 0.0074(7) 0.0064(6) 0.0018(6)
 N4 0.0181(8) 0.0224(8) 0.0230(8) 0.0108(7) 0.0098(7) 0.0054(6)
 C1 0.0180(9) 0.0169(9) 0.0187(9) 0.0055(7) 0.0062(7) 0.0050(7)
 C2 0.0177(9) 0.0189(9) 0.0182(9) 0.0063(7) 0.0068(7) 0.0040(7)
 C3 0.0177(9) 0.0211(9) 0.0213(10) 0.0056(8) 0.0065(8) 0.0019(8)
 C4 0.0232(10) 0.0263(10) 0.0175(10) 0.0026(8) 0.0051(8) 0.0017(8)
 C5 0.0277(10) 0.0266(10) 0.0200(10) 0.0070(8) 0.0113(8) 0.0043(9)
 C6 0.0217(9) 0.0218(9) 0.0195(9) 0.0066(8) 0.0084(8) 0.0026(8)
 C7 0.0153(9) 0.0209(9) 0.0190(9) 0.0072(7) 0.0062(7) 0.0056(7)
 C8 0.0170(9) 0.0163(9) 0.0173(9) 0.0064(7) 0.0074(7) 0.0038(7)
 C9 0.0146(9) 0.0222(9) 0.0215(10) 0.0082(8) 0.0074(7) 0.0042(7)
 C10 0.0168(9) 0.0220(9) 0.0197(9) 0.0067(8) 0.0035(7) 0.0029(7)
 C11 0.0224(9) 0.0178(9) 0.0167(9) 0.0070(7) 0.0087(7) 0.0046(7)
 C12 0.0168(9) 0.0193(9) 0.0219(9) 0.0085(8) 0.0089(7) 0.0034(7)
 C13 0.0145(8) 0.0193(9) 0.0185(9) 0.0069(7) 0.0043(7) 0.0024(7)
 C14 0.0176(9) 0.0204(9) 0.0240(10) 0.0084(8) 0.0072(8) 0.0039(7)
 C15 0.0195(9) 0.0191(9) 0.0231(10) 0.0096(8) 0.0076(8) 0.0042(7)
 C16 0.0161(9) 0.0181(9) 0.0152(8) 0.0038(7) 0.0037(7) 0.0009(7)
 C17 0.0192(9) 0.0263(10) 0.0241(10) 0.0131(8) 0.0093(8) 0.0082(8)
 C18 0.0197(9) 0.0247(10) 0.0244(10) 0.0132(8) 0.0080(8) 0.0050(8)
 C19 0.0239(10) 0.0291(11) 0.0337(11) 0.0190(9) 0.0150(9) 0.0060(8)
 C20 0.0202(10) 0.0305(11) 0.0294(11) 0.0129(9) 0.0130(8) 0.0094(8)

_geom_special_details
;
 All esds (except the esd in the dihedral angle between two l.s. planes)
 are estimated using the full covariance matrix.  The cell esds are taken
 into account individually in the estimation of esds in distances, angles
 and torsion angles; correlations between esds in cell parameters are only
 used when they are defined by crystal symmetry.  An approximate (isotropic)
 treatment of cell esds is used for estimating esds involving l.s. planes.
;
loop_
  _geom_bond_atom_site_label_1
  _geom_bond_atom_site_label_2
  _geom_bond_distance
  _geom_bond_site_symmetry_2
  _geom_bond_publ_flag
 Se01 N1 2.0219(16) . ?
 Se01 N3 2.2361(17) . ?
 Se01 C1 1.9157(19) . ?
 O1 C7 1.235(2) . ?
 O2 N2 1.233(2) . ?
 O3 N2 1.232(2) . ?
 N1 C7 1.359(3) . ?
 N1 C8 1.397(2) . ?
 N2 C11 1.458(3) . ?
 N3 C14 1.345(3) . ?
 N3 C18 1.349(3) . ?
 N4 C16 1.349(3) . ?
 N4 C19 1.455(3) . ?
 N4 C20 1.458(3) . ?
 C1 C2 1.397(3) . ?
 C1 C6 1.394(3) . ?
 C2 C3 1.396(3) . ?
 C2 C7 1.479(3) . ?
 C3 H3 0.9300 . ?
 C3 C4 1.387(3) . ?
 C4 H4 0.9300 . ?
 C4 C5 1.397(3) . ?
 C5 H5 0.9300 . ?
 C5 C6 1.387(3) . ?
 C6 H6 0.9300 . ?
 C8 C9 1.405(3) . ?
 C8 C13 1.403(3) . ?
 C9 H9 0.9300 . ?
 C9 C10 1.382(3) . ?
 C10 H10 0.9300 . ?
 C10 C11 1.387(3) . ?
 C11 C12 1.388(3) . ?
 C12 H12 0.9300 . ?
 C12 C13 1.382(3) . ?
 C13 H13 0.9300 . ?
 C14 H14 0.9300 . ?
 C14 C15 1.375(3) . ?
 C15 H15 0.9300 . ?
 C15 C16 1.416(3) . ?
 C16 C17 1.416(3) . ?
 C17 H17 0.9300 . ?
 C17 C18 1.374(3) . ?
 C18 H18 0.9300 . ?
 C19 H19A 0.9600 . ?
 C19 H19B 0.9600 . ?
 C19 H19C 0.9600 . ?
 C20 H20A 0.9600 . ?
 C20 H20B 0.9600 . ?
 C20 H20C 0.9600 . ?

loop_
  _geom_angle_atom_site_label_1
  _geom_angle_atom_site_label_2
  _geom_angle_atom_site_label_3
  _geom_angle
  _geom_angle_site_symmetry_1
  _geom_angle_site_symmetry_3
  _geom_angle_publ_flag
 N1 Se01 N3 173.54(6) . . ?
 C1 Se01 N1 82.55(8) . . ?
 C1 Se01 N3 91.20(7) . . ?
 C7 N1 Se01 115.83(13) . . ?
 C7 N1 C8 123.92(16) . . ?
 C8 N1 Se01 120.24(12) . . ?
 O2 N2 C11 118.52(17) . . ?
 O3 N2 O2 123.26(18) . . ?
 O3 N2 C11 118.21(17) . . ?
 C14 N3 Se01 124.33(14) . . ?
 C14 N3 C18 117.18(17) . . ?
 C18 N3 Se01 118.45(13) . . ?
 C16 N4 C19 120.73(17) . . ?
 C16 N4 C20 120.63(17) . . ?
 C19 N4 C20 118.58(17) . . ?
 C2 C1 Se01 113.44(14) . . ?
 C6 C1 Se01 126.65(15) . . ?
 C6 C1 C2 119.90(18) . . ?
 C1 C2 C7 117.89(17) . . ?
 C3 C2 C1 120.61(18) . . ?
 C3 C2 C7 121.49(18) . . ?
 C2 C3 H3 120.2 . . ?
 C4 C3 C2 119.53(19) . . ?
 C4 C3 H3 120.2 . . ?
 C3 C4 H4 120.2 . . ?
 C3 C4 C5 119.54(19) . . ?
 C5 C4 H4 120.2 . . ?
 C4 C5 H5 119.3 . . ?
 C6 C5 C4 121.4(2) . . ?
 C6 C5 H5 119.3 . . ?
 C1 C6 H6 120.5 . . ?
 C5 C6 C1 119.00(19) . . ?
 C5 C6 H6 120.5 . . ?
 O1 C7 N1 126.65(18) . . ?
 O1 C7 C2 123.36(18) . . ?
 N1 C7 C2 109.98(16) . . ?
 N1 C8 C9 119.03(17) . . ?
 N1 C8 C13 121.92(17) . . ?
 C13 C8 C9 119.01(17) . . ?
 C8 C9 H9 119.5 . . ?
 C10 C9 C8 120.92(18) . . ?
 C10 C9 H9 119.5 . . ?
 C9 C10 H10 120.8 . . ?
 C9 C10 C11 118.50(18) . . ?
 C11 C10 H10 120.7 . . ?
 C10 C11 N2 119.36(17) . . ?
 C10 C11 C12 122.10(18) . . ?
 C12 C11 N2 118.48(17) . . ?
 C11 C12 H12 120.5 . . ?
 C13 C12 C11 119.06(18) . . ?
 C13 C12 H12 120.5 . . ?
 C8 C13 H13 119.8 . . ?
 C12 C13 C8 120.41(17) . . ?
 C12 C13 H13 119.8 . . ?
 N3 C14 H14 118.3 . . ?
 N3 C14 C15 123.48(19) . . ?
 C15 C14 H14 118.3 . . ?
 C14 C15 H15 120.0 . . ?
 C14 C15 C16 119.98(18) . . ?
 C16 C15 H15 120.0 . . ?
 N4 C16 C15 121.55(18) . . ?
 N4 C16 C17 122.55(18) . . ?
 C15 C16 C17 115.89(18) . . ?
 C16 C17 H17 120.1 . . ?
 C18 C17 C16 119.88(18) . . ?
 C18 C17 H17 120.1 . . ?
 N3 C18 C17 123.55(19) . . ?
 N3 C18 H18 118.2 . . ?
 C17 C18 H18 118.2 . . ?
 N4 C19 H19A 109.5 . . ?
 N4 C19 H19B 109.5 . . ?
 N4 C19 H19C 109.5 . . ?
 H19A C19 H19B 109.5 . . ?
 H19A C19 H19C 109.5 . . ?
 H19B C19 H19C 109.5 . . ?
 N4 C20 H20A 109.5 . . ?
 N4 C20 H20B 109.5 . . ?
 N4 C20 H20C 109.5 . . ?
 H20A C20 H20B 109.5 . . ?
 H20A C20 H20C 109.5 . . ?
 H20B C20 H20C 109.5 . . ?

loop_
  _geom_torsion_atom_site_label_1
  _geom_torsion_atom_site_label_2
  _geom_torsion_atom_site_label_3
  _geom_torsion_atom_site_label_4
  _geom_torsion
  _geom_torsion_site_symmetry_1
  _geom_torsion_site_symmetry_2
  _geom_torsion_site_symmetry_3
  _geom_torsion_site_symmetry_4
  _geom_torsion_publ_flag
 Se01 N1 C7 O1 173.98(16) . . . . ?
 Se01 N1 C7 C2 -6.0(2) . . . . ?
 Se01 N1 C8 C9 -23.3(2) . . . . ?
 Se01 N1 C8 C13 154.34(15) . . . . ?
 Se01 N3 C14 C15 -175.44(15) . . . . ?
 Se01 N3 C18 C17 176.15(16) . . . . ?
 Se01 C1 C2 C3 178.72(15) . . . . ?
 Se01 C1 C2 C7 -0.3(2) . . . . ?
 Se01 C1 C6 C5 -177.88(16) . . . . ?
 O2 N2 C11 C10 170.37(19) . . . . ?
 O2 N2 C11 C12 -6.9(3) . . . . ?
 O3 N2 C11 C10 -8.5(3) . . . . ?
 O3 N2 C11 C12 174.22(18) . . . . ?
 N1 C8 C9 C10 177.38(18) . . . . ?
 N1 C8 C13 C12 -177.35(17) . . . . ?
 N2 C11 C12 C13 176.32(17) . . . . ?
 N3 C14 C15 C16 -0.8(3) . . . . ?
 N4 C16 C17 C18 -177.53(19) . . . . ?
 C1 C2 C3 C4 -0.5(3) . . . . ?
 C1 C2 C7 O1 -175.82(19) . . . . ?
 C1 C2 C7 N1 4.2(2) . . . . ?
 C2 C1 C6 C5 1.0(3) . . . . ?
 C2 C3 C4 C5 0.5(3) . . . . ?
 C3 C2 C7 O1 5.2(3) . . . . ?
 C3 C2 C7 N1 -174.79(18) . . . . ?
 C3 C4 C5 C6 0.2(3) . . . . ?
 C4 C5 C6 C1 -1.0(3) . . . . ?
 C6 C1 C2 C3 -0.3(3) . . . . ?
 C6 C1 C2 C7 -179.31(18) . . . . ?
 C7 N1 C8 C9 155.18(18) . . . . ?
 C7 N1 C8 C13 -27.1(3) . . . . ?
 C7 C2 C3 C4 178.49(19) . . . . ?
 C8 N1 C7 O1 -4.6(3) . . . . ?
 C8 N1 C7 C2 175.39(17) . . . . ?
 C8 C9 C10 C11 -0.2(3) . . . . ?
 C9 C8 C13 C12 0.3(3) . . . . ?
 C9 C10 C11 N2 -176.34(17) . . . . ?
 C9 C10 C11 C12 0.9(3) . . . . ?
 C10 C11 C12 C13 -0.9(3) . . . . ?
 C11 C12 C13 C8 0.3(3) . . . . ?
 C13 C8 C9 C10 -0.4(3) . . . . ?
 C14 N3 C18 C17 -1.6(3) . . . . ?
 C14 C15 C16 N4 178.06(19) . . . . ?
 C14 C15 C16 C17 -1.1(3) . . . . ?
 C15 C16 C17 C18 1.6(3) . . . . ?
 C16 C17 C18 N3 -0.3(3) . . . . ?
 C18 N3 C14 C15 2.1(3) . . . . ?
 C19 N4 C16 C15 -6.0(3) . . . . ?
 C19 N4 C16 C17 173.10(19) . . . . ?
 C20 N4 C16 C15 176.59(18) . . . . ?
 C20 N4 C16 C17 -4.3(3) . . . . ?

_shelx_res_file
;
TITL tf-7-132-insol-dmap_a.res in P-1
    tf-7-132-insol-dmap.res
    created by SHELXL-2018/3 at 13:22:17 on 29-Jan-2021
REM Old TITL tf-7-132-insol-dmap in P-1
REM SHELXT solution in P-1: R1 0.067, Rweak 0.008, Alpha 0.070
REM <I/s> 0.000 for 0 systematic absences, Orientation as input
REM Formula found by SHELXT: C21 N3 O3 Se
CELL 1.54184 9.339 9.5875 11.9936 109.209 108.248 98.648
ZERR 2 0.0002 0.0002 0.0002 0.002 0.002 0.002
LATT 1
SFAC C H N O Se
UNIT 40 36 8 6 2

L.S. 4 0 0
PLAN  5
SIZE 0.1 0.185 0.6
CONF
BOND
list 4
fmap 2 53
MORE -1
BOND $H
ACTA
REM <olex2.extras>
REM <HklSrc "%.\\tf-7-132-insol-dmap.hkl">
REM </olex2.extras>

WGHT    0.046000    0.652300
EXTI    0.001211
FVAR       0.56115
SE01  5    0.543734    0.721153    0.448166    11.00000    0.01361    0.01973 =
         0.01709    0.00612    0.00559    0.00119
O1    4    0.124450    0.430017    0.371805    11.00000    0.01612    0.02559 =
         0.02151    0.00570    0.00733   -0.00165
O2    4    0.261574    0.833831    0.998217    11.00000    0.02977    0.04058 =
         0.02544    0.00809    0.01562    0.00587
O3    4    0.514705    0.875799    1.072082    11.00000    0.02874    0.02989 =
         0.01822    0.00782    0.00352    0.00249
N1    3    0.360898    0.622910    0.479256    11.00000    0.01298    0.02084 =
         0.01881    0.00686    0.00709    0.00153
N2    3    0.385423    0.829127    0.982722    11.00000    0.02593    0.02164 =
         0.01913    0.00791    0.00892    0.00290
N3    3    0.733425    0.809222    0.391350    11.00000    0.01529    0.02257 =
         0.01984    0.00744    0.00645    0.00178
N4    3    1.079852    0.934343    0.263121    11.00000    0.01815    0.02245 =
         0.02295    0.01085    0.00978    0.00544
C1    1    0.410105    0.596421    0.272594    11.00000    0.01803    0.01687 =
         0.01867    0.00554    0.00619    0.00503
C2    1    0.268686    0.503829    0.257137    11.00000    0.01771    0.01889 =
         0.01822    0.00635    0.00677    0.00405
C3    1    0.156793    0.408258    0.134955    11.00000    0.01768    0.02106 =
         0.02126    0.00556    0.00647    0.00186
AFIX  43
H3    2    0.063199    0.346324    0.125254    11.00000   -1.20000
AFIX   0
C4    1    0.186189    0.406321    0.028150    11.00000    0.02321    0.02634 =
         0.01750    0.00264    0.00514    0.00174
AFIX  43
H4    2    0.112074    0.343706   -0.053702    11.00000   -1.20000
AFIX   0
C5    1    0.327871    0.499055    0.044349    11.00000    0.02769    0.02661 =
         0.02005    0.00696    0.01132    0.00426
AFIX  43
H5    2    0.347031    0.497683   -0.027515    11.00000   -1.20000
AFIX   0
C6    1    0.440581    0.593124    0.165279    11.00000    0.02165    0.02180 =
         0.01952    0.00663    0.00837    0.00257
AFIX  43
H6    2    0.535082    0.653116    0.174665    11.00000   -1.20000
AFIX   0
C7    1    0.241006    0.512682    0.373787    11.00000    0.01529    0.02090 =
         0.01904    0.00716    0.00619    0.00561
C8    1    0.364185    0.666722    0.603454    11.00000    0.01701    0.01626 =
         0.01733    0.00639    0.00739    0.00382
C9    1    0.510070    0.732284    0.707809    11.00000    0.01459    0.02220 =
         0.02147    0.00822    0.00745    0.00425
AFIX  43
H9    2    0.602235    0.741743    0.692878    11.00000   -1.20000
AFIX   0
C10   1    0.518485    0.782916    0.832361    11.00000    0.01685    0.02198 =
         0.01972    0.00665    0.00354    0.00285
AFIX  43
H10   2    0.615187    0.825953    0.901261    11.00000   -1.20000
AFIX   0
C11   1    0.379411    0.768076    0.852252    11.00000    0.02236    0.01782 =
         0.01672    0.00701    0.00867    0.00465
C12   1    0.233410    0.702537    0.751456    11.00000    0.01684    0.01927 =
         0.02191    0.00846    0.00891    0.00335
AFIX  43
H12   2    0.141877    0.692588    0.767286    11.00000   -1.20000
AFIX   0
C13   1    0.225955    0.652257    0.627201    11.00000    0.01448    0.01931 =
         0.01851    0.00686    0.00429    0.00242
AFIX  43
H13   2    0.128728    0.608567    0.558909    11.00000   -1.20000
AFIX   0
C14   1    0.734423    0.920058    0.345841    11.00000    0.01760    0.02044 =
         0.02400    0.00838    0.00718    0.00393
AFIX  43
H14   2    0.655070    0.968564    0.343019    11.00000   -1.20000
AFIX   0
C15   1    0.846576    0.965460    0.303259    11.00000    0.01950    0.01913 =
         0.02314    0.00965    0.00756    0.00419
AFIX  43
H15   2    0.841055    1.041899    0.271685    11.00000   -1.20000
AFIX   0
C16   1    0.970460    0.895788    0.307504    11.00000    0.01607    0.01805 =
         0.01516    0.00384    0.00367    0.00089
C17   1    0.970525    0.782585    0.359246    11.00000    0.01916    0.02635 =
         0.02412    0.01312    0.00932    0.00820
AFIX  43
H17   2    1.050269    0.734406    0.366660    11.00000   -1.20000
AFIX   0
C18   1    0.852556    0.744088    0.398463    11.00000    0.01974    0.02465 =
         0.02440    0.01319    0.00800    0.00498
AFIX  43
H18   2    0.854968    0.669065    0.431713    11.00000   -1.20000
AFIX   0
C19   1    1.065675    1.038462    0.197832    11.00000    0.02392    0.02911 =
         0.03368    0.01898    0.01497    0.00603
AFIX 137
H19A  2    0.960795    1.007139    0.134551    11.00000   -1.50000
H19B  2    1.139185    1.035627    0.156860    11.00000   -1.50000
H19C  2    1.087691    1.141328    0.259002    11.00000   -1.50000
AFIX   0
C20   1    1.211304    0.867428    0.274867    11.00000    0.02017    0.03048 =
         0.02938    0.01285    0.01302    0.00936
AFIX 137
H20A  2    1.262887    0.881288    0.362278    11.00000   -1.50000
H20B  2    1.284528    0.917471    0.249283    11.00000   -1.50000
H20C  2    1.173035    0.759472    0.220772    11.00000   -1.50000
AFIX   0
HKLF 4




REM  tf-7-132-insol-dmap_a.res in P-1
REM wR2 = 0.0838, GooF = S = 1.075, Restrained GooF = 1.075 for all data
REM R1 = 0.0310 for 3698 Fo > 4sig(Fo) and 0.0317 for all 3789 data
REM 256 parameters refined using 0 restraints

END

WGHT      0.0460      0.6523

REM Highest difference peak  0.681,  deepest hole -0.698,  1-sigma level  0.074
Q1    1   0.4858  0.6373  0.3569  11.00000  0.05    0.68
Q2    1   0.4314  0.6422  0.4628  11.00000  0.05    0.55
Q3    1   0.6037  0.8131  0.5308  11.00000  0.05    0.54
Q4    1   0.5802  0.8511  0.5048  11.00000  0.05    0.48
Q5    1   0.2069  0.4767  0.1985  11.00000  0.05    0.38
;
_shelx_res_checksum                36455
_shelx_hkl_file
;
   0   0   1 1055.46   28.93
   0   0   1 1125.24   28.85
   0   0   2   34.00    1.70
   0   0   3  483.89   14.23
   0   0   4   27.67    2.02
   0   0   5  148.29    6.33
   0   0   5  156.23    6.42
   0   0   6   12.05    1.64
   0   0   6   10.74    1.56
   0   0   6   13.33    1.11
   0   0   7  367.84   13.36
   0   0   7  350.91   13.30
   0   0  -7  351.16   12.39
   0   0   8    4.26    1.24
   0   0  -8    4.03    1.05
   0   0   9    1.37    0.85
   0   0  -9    1.63    0.79
   0   0  10  237.96   10.61
   0   0  10  228.64    8.28
   0   0 -10  241.20    9.94
   0   0 -10  237.79    9.80
   0   0 -11  290.54   10.91
   0   0 -11  272.38   10.49
   0   0 -12   85.98    4.14
   0   0 -12   89.19    4.46
   0   0 -13   62.53    2.84
   0   1 -13   83.82    3.75
   0   1 -13   72.54    3.24
   0   1 -12    1.82    0.65
   0   1 -12    1.21    0.60
   0  -1  11   41.12    3.14
   0   1 -11   37.78    3.13
   0   1 -11   36.81    3.14
   0  -1  10  176.41    9.03
   0  -1  10  185.80    7.95
   0   1 -10  187.18    8.33
   0  -1   9   41.01    3.83
   0  -1   9   37.47    2.93
   0   1  -9   36.04    3.15
   0  -1   8   67.72    3.63
   0  -1   8   73.35    4.95
   0  -1   8   69.23    3.93
   0   1  -8   76.13    4.41
   0  -1   7  165.87    7.60
   0  -1   7  161.25    6.13
   0  -1   6  700.89   21.70
   0  -1   5 1661.66   46.69
   0  -1   5 1719.25   46.74
   0  -1   4  829.11   23.62
   0   1  -3  303.11    9.10
   0  -1   3  291.88    9.14
   0   1  -2  468.84   12.75
   0  -1   2  436.76   12.71
   0  -1   1   12.22    0.71
   0  -1   0  175.73    4.78
   0  -1   0  165.96    5.00
   0   1   1  622.51   16.47
   0  -1  -1  600.19   16.17
   0   1   2 3203.71   84.47
   0   1   3 1446.75   39.39
   0   1   4  155.57    6.38
   0   1   5  405.47   13.68
   0   1   5  395.10   11.17
   0   1   6  289.54   11.27
   0   1   6  301.75   11.34
   0   1   7  173.90    8.47
   0   1   7  178.49    8.39
   0   1   7  182.53    7.50
   0  -1  -7  179.91    7.80
   0   1   8  427.33   16.00
   0   1   8  426.67   16.26
   0   1   8  432.12   14.83
   0  -1  -8  432.19   15.18
   0  -1  -8  424.47   15.14
   0   1   9    4.93    1.32
   0  -1  -9    5.54    1.33
   0  -1  -9    3.45    1.07
   0   1  10   21.55    1.94
   0  -1 -10   23.31    2.46
   0  -1 -10   22.86    2.50
   0  -1 -11   53.42    3.40
   0  -1 -11   56.37    3.68
   0  -1 -12  136.53    5.31
   0  -1 -12  120.32    4.72
   0   2 -13   80.15    3.73
   0   2 -13   78.15    3.90
   0   2 -12   88.01    4.71
   0   2 -12   85.69    4.75
   0  -2  11  176.95    7.58
   0   2 -11  180.97    8.04
   0  -2  10  146.86    6.69
   0   2 -10  151.47    7.26
   0  -2   9  239.15   10.75
   0  -2   9  240.26    9.20
   0  -2   9  236.40    9.25
   0  -2   9  236.08    9.01
   0   2  -9  228.62    9.54
   0  -2   8   59.19    3.50
   0  -2   8   57.26    4.34
   0  -2   8   53.43    3.39
   0  -2   8   57.57    3.40
   0   2  -8   64.98    3.92
   0  -2   7    1.12    0.46
   0  -2   7    0.87    0.59
   0  -2   6   90.75    4.81
   0   2  -5    0.60    0.37
   0   2  -4  995.15   27.75
   0   2  -3  286.27    8.94
   0  -2   2  188.10    6.04
   0  -2   1   29.56    1.52
   0  -2   1   29.45    1.33
   0  -2   0  941.90   24.12
   0  -2   0  851.14   23.54
   0   2   1 2697.79   71.15
   0   2   2 2130.01   41.88
   0   2   2 2180.85   42.59
   0   2   3  357.29   11.49
   0   2   4  632.25   19.94
   0   2   4  644.69   19.46
   0   2   5  374.44   13.57
   0   2   6  318.32   12.36
   0   2   6  303.80   11.08
   0  -2  -6  317.27   11.55
   0   2   7  841.10   27.57
   0   2   7  860.35   27.84
   0  -2  -7  891.93   26.91
   0   2   8  199.42    9.79
   0   2   8  201.00    9.49
   0  -2  -8  197.41    8.85
   0   2   9  190.94    7.66
   0  -2  -9  187.03    8.44
   0   2  10   53.45    3.13
   0  -2 -10   51.87    3.56
   0  -2 -11   36.02    2.39
   0   3 -14   21.17    1.40
   0   3 -13   88.19    4.18
   0   3 -13   87.06    4.28
   0  -3  12    5.45    1.05
   0  -3  12    4.68    0.94
   0   3 -12    5.18    1.15
   0  -3  11   22.01    2.95
   0  -3  11   25.86    2.36
   0   3 -11   23.08    2.51
   0  -3  10    6.97    1.40
   0  -3  10    4.32    1.37
   0  -3  10    6.39    1.33
   0  -3  10    6.29    1.17
   0   3 -10    6.86    1.39
   0  -3   9  250.57    9.94
   0  -3   9  247.90    9.17
   0  -3   9  247.78    9.54
   0  -3   8  650.16   20.04
   0  -3   8  648.91   20.34
   0  -3   7  128.23    5.69
   0   3  -6    8.98    1.26
   0  -3   5    9.28    1.29
   0   3  -5    6.66    1.03
   0  -3   4 1410.28   38.61
   0   3  -4 1376.21   38.40
   0  -3   3  309.95    9.96
   0  -3   2  848.17   23.89
   0  -3   2  860.09   23.51
   0  -3   1 2699.12   70.01
   0  -3   1 2584.97   69.36
   0  -3   0    2.32    0.32
   0  -3   0    2.41    0.56
   0   3   1  345.75   10.57
   0   3   2  308.67    9.84
   0   3   2  313.34   10.43
   0   3   3 3238.67   87.09
   0   3   4  747.66   22.94
   0   3   5  248.91   10.13
   0  -3  -5  256.66   10.04
   0  -3  -5  258.82   10.02
   0  -3  -6   26.63    2.74
   0  -3  -6   28.99    2.85
   0   3   7    1.92    0.88
   0  -3  -7    1.49    0.82
   0   3   8    0.28    0.50
   0   3   8   -0.09    0.39
   0  -3  -8    0.24    0.66
   0   3   9    6.63    1.16
   0  -3  -9    5.23    1.21
   0   3  10  110.92    4.68
   0  -3 -10  108.35    5.03
   0   4 -14   96.83    3.67
   0   4 -14  109.93    3.99
   0  -4  13   68.53    3.50
   0   4 -13   81.90    3.99
   0  -4  12  284.33    9.81
   0   4 -12  268.67   10.42
   0  -4  11  133.43    7.81
   0  -4  11  129.39    5.85
   0   4 -11  127.80    6.50
   0  -4  10  435.50   17.26
   0  -4  10  455.91   16.30
   0  -4  10  449.38   14.66
   0  -4  10  449.60   15.34
   0  -4   9   19.45    2.35
   0  -4   9   14.70    1.68
   0  -4   9   15.21    1.82
   0  -4   8   73.84    4.51
   0  -4   8   65.92    3.80
   0  -4   8   70.60    3.79
   0  -4   8   71.61    3.74
   0   4  -7  106.55    5.45
   0  -4   7  121.23    5.78
   0  -4   7  124.68    6.47
   0  -4   6  123.84    6.12
   0   4  -6  116.28    5.49
   0  -4   5   30.76    2.39
   0   4  -5   28.39    2.34
   0  -4   4    2.06    0.60
   0  -4   4    1.61    0.59
   0  -4   3  890.74   25.82
   0  -4   3  949.54   26.42
   0  -4   2   24.43    1.69
   0  -4   2   26.76    1.99
   0  -4   1  871.39   24.19
   0  -4   1  860.51   24.87
   0  -4   0  134.28    4.39
   0  -4   0  160.80    5.98
   0   4   1  219.71    7.70
   0   4   2    4.26    0.80
   0   4   2    3.70    0.94
   0   4   3    8.58    1.48
   0   4   4   31.45    2.98
   0  -4  -4   37.09    3.12
   0  -4  -4   36.28    3.07
   0   4   5  211.70    9.55
   0  -4  -5  227.83    9.67
   0  -4  -5  227.92    9.69
   0  -4  -6  361.33   13.77
   0  -4  -6  359.44   13.83
   0   4   7  395.72   15.77
   0   4   7  456.34   15.06
   0  -4  -7  435.31   15.89
   0  -4  -7  445.32   15.81
   0   4   8  171.70    7.32
   0  -4  -8  163.26    7.70
   0  -4  -8  173.72    7.99
   0   4   9  145.73    5.96
   0  -4  -9  137.22    6.11
   0  -4  -9  140.54    6.37
   0   4  10   20.24    1.39
   0  -4 -10   19.38    1.60
   0   5 -14    8.99    0.90
   0   5 -14    8.83    0.87
   0  -5  13    0.48    0.39
   0   5 -13    0.48    0.40
   0  -5  12    2.80    0.70
   0   5 -12    2.57    0.86
   0  -5  11   30.68    2.74
   0  -5  11   26.50    2.22
   0   5 -11   25.75    2.67
   0  -5  10  106.44    5.25
   0  -5  10   94.05    5.21
   0  -5  10   95.30    4.70
   0  -5  10   95.69    6.13
   0  -5   9  309.79   11.67
   0  -5   9  335.02   12.92
   0  -5   9  301.81   10.62
   0  -5   9  311.89   11.20
   0  -5   8  440.99   15.74
   0  -5   8  433.38   14.32
   0  -5   8  420.42   13.81
   0  -5   8  437.83   14.33
   0   5  -7   25.26    2.40
   0  -5   7   25.69    2.88
   0  -5   7   24.91    2.56
   0  -5   7   21.51    2.00
   0  -5   7   21.46    1.95
   0   5  -6  873.18   26.82
   0  -5   6  863.23   26.98
   0  -5   5    9.91    1.45
   0  -5   5   14.22    1.85
   0  -5   4    8.28    1.34
   0  -5   4    8.95    1.30
   0  -5   3  204.68    7.74
   0  -5   3  212.29    8.21
   0  -5   2  367.20   11.96
   0  -5   2  378.38   12.66
   0  -5   1  259.69    8.35
   0  -5   1  292.81   10.05
   0   5   0  143.33    6.01
   0   5   1  533.13   16.62
   0   5   2  494.83   17.22
   0   5   2  505.27   16.22
   0  -5  -2  532.96   17.23
   0  -5  -2  517.18   16.94
   0   5   3  113.79    6.27
   0  -5  -3  110.12    5.37
   0  -5  -3  117.92    6.22
   0  -5  -3  114.07    6.07
   0   5   4  262.48   11.12
   0  -5  -4  254.06   10.81
   0  -5  -4  271.99   11.11
   0   5   5  221.75    9.06
   0  -5  -5  210.51    9.68
   0  -5  -5  208.61    9.61
   0  -5  -6   93.06    5.71
   0  -5  -6   88.48    5.60
   0  -5  -7   -0.11    0.54
   0  -5  -7    0.23    0.47
   0   5   8   65.45    3.69
   0  -5  -8   63.89    3.86
   0  -5  -8   57.68    3.63
   0   5   9   34.47    2.08
   0  -5  -9   32.68    2.13
   0  -6  14   30.04    1.75
   0   6 -14   34.42    1.75
   0  -6  13  107.48    4.96
   0   6 -13  111.99    4.89
   0   6 -12  134.71    6.26
   0  -6  11  127.82    5.28
   0  -6  11  124.22    5.91
   0  -6  10  178.18    8.08
   0  -6  10  182.60    7.07
   0  -6  10  197.77    8.08
   0  -6  10  190.26    8.09
   0  -6  10  192.29    9.63
   0  -6   9   35.00    3.25
   0  -6   9   38.97    4.04
   0  -6   9   38.00    3.05
   0  -6   9   35.59    2.52
   0  -6   9   37.68    2.93
   0  -6   8   35.37    3.52
   0  -6   8   32.28    3.54
   0  -6   8   29.29    2.25
   0  -6   8   32.34    2.73
   0  -6   8   31.19    2.56
   0  -6   7   58.21    4.44
   0  -6   7   63.65    4.80
   0  -6   7   51.00    3.47
   0  -6   7   58.20    3.45
   0  -6   7   58.76    3.74
   0  -6   6  174.05    8.27
   0   6  -6  171.13    7.95
   0  -6   6  188.61    8.72
   0  -6   6  181.33    6.96
   0  -6   6  192.00    7.45
   0  -6   6  186.44    7.44
   0  -6   6  167.36    7.21
   0  -6   5  673.39   21.09
   0  -6   5  599.35   20.39
   0  -6   5  661.49   19.44
   0  -6   5  608.18   19.25
   0  -6   4  186.90    8.10
   0  -6   4  186.65    7.36
   0  -6   3 1081.90   31.09
   0  -6   3  992.52   30.09
   0  -6   2   58.54    3.93
   0  -6   2   52.50    2.88
   0   6  -1  293.78   10.74
   0   6   0  148.09    6.27
   0   6   0  149.43    6.65
   0  -6   0  154.96    6.88
   0  -6   0  155.30    6.22
   0  -6   0  147.44    6.44
   0   6   1   48.15    3.24
   0   6   1   47.07    3.30
   0  -6  -1   46.61    3.51
   0  -6  -1   48.02    3.33
   0   6   2    7.44    1.61
   0  -6  -2    8.23    1.54
   0  -6  -2   10.34    1.79
   0  -6  -2    7.55    1.37
   0   6   3   43.55    3.37
   0   6   3   40.79    3.75
   0  -6  -3   38.53    3.50
   0  -6  -3   37.24    3.12
   0  -6  -3   38.51    3.63
   0   6   4  262.16   10.40
   0   6   4  239.31   10.86
   0   6   4  241.99   11.54
   0  -6  -4  264.14   11.04
   0  -6  -4  268.12   10.31
   0  -6  -4  265.50   11.25
   0   6   5   15.41    2.02
   0  -6  -5   18.48    2.41
   0  -6  -5   15.67    1.92
   0  -6  -5   15.95    2.25
   0   6   6   66.30    4.06
   0  -6  -6   59.35    4.08
   0  -6  -6   51.49    3.30
   0  -6  -7  252.61    9.38
   0  -6  -8   87.05    3.74
   0  -7  14    2.38    0.45
   0  -7  13   58.30    3.23
   0   7 -13   54.56    3.01
   0  -7  12   15.38    1.62
   0   7 -12   17.32    1.89
   0  -7  11   87.92    4.87
   0  -7  11   92.72    4.83
   0  -7  10  140.27    7.05
   0  -7  10  139.48    6.79
   0  -7  10  144.16    6.50
   0  -7   9  256.16   11.09
   0  -7   9  245.49   11.97
   0  -7   9  282.84   12.55
   0  -7   9  264.72   10.55
   0  -7   9  282.21   10.18
   0  -7   8  406.59   15.80
   0  -7   8  359.04   15.25
   0  -7   8  378.14   13.63
   0  -7   8  382.40   13.00
   0  -7   7  407.99   15.84
   0  -7   7  372.21   15.49
   0  -7   7  417.13   14.21
   0  -7   7  400.47   13.28
   0  -7   7  394.38   13.84
   0  -7   6   69.90    5.12
   0  -7   6   76.84    5.37
   0  -7   6   76.04    4.46
   0  -7   6   73.32    3.90
   0  -7   6   68.14    4.18
   0  -7   6   69.15    4.66
   0  -7   5   57.56    4.43
   0  -7   5   70.97    5.02
   0  -7   5   75.71    4.27
   0  -7   5   62.36    3.47
   0  -7   5   67.25    4.05
   0  -7   5   58.37    4.29
   0  -7   5   67.02    3.97
   0  -7   4   15.94    1.96
   0  -7   4   15.22    2.20
   0  -7   4   13.51    1.43
   0  -7   4   16.41    1.88
   0  -7   4   13.26    1.69
   0  -7   3   14.49    2.14
   0  -7   3   11.80    1.52
   0  -7   3   11.79    1.57
   0  -7   2  109.89    5.43
   0  -7   2  118.95    5.53
   0   7  -1    8.35    1.48
   0  -7   1    6.48    1.17
   0  -7   1    7.99    1.32
   0   7   0  128.35    6.13
   0   7   0  128.42    6.39
   0  -7   0  129.21    6.69
   0  -7   0  141.80    6.10
   0  -7   0  129.72    6.20
   0   7   1  192.84    8.24
   0   7   1  188.98    8.16
   0   7   1  196.95    9.36
   0  -7  -1  194.92    8.78
   0  -7  -1  190.44    8.12
   0   7   2  263.68   10.36
   0   7   2  248.25   11.13
   0  -7  -2  255.81   10.73
   0  -7  -2  254.28   10.00
   0   7   3  112.22    5.94
   0   7   3  101.98    6.34
   0  -7  -3  109.95    6.23
   0  -7  -3  108.11    5.56
   0   7   4  142.60    6.77
   0  -7  -4  144.73    7.05
   0  -7  -4  125.18    5.92
   0   7   5   58.34    3.76
   0  -7  -5   55.00    3.75
   0   7   6   19.82    1.89
   0  -7  -6   20.46    1.90
   0   7   7   43.12    2.33
   0   8 -13   53.63    2.69
   0  -8  12   25.80    2.12
   0   8 -12   32.68    2.40
   0  -8  11   36.10    2.85
   0  -8  11   40.33    3.06
   0  -8  11   42.68    2.86
   0  -8  10    3.16    1.04
   0  -8  10    2.29    0.74
   0  -8  10    2.08    0.82
   0  -8   9    4.24    0.96
   0  -8   9    4.82    1.23
   0  -8   8   13.79    2.42
   0  -8   8   12.00    2.33
   0  -8   8   15.04    1.75
   0  -8   8   14.93    2.09
   0  -8   7   91.99    6.33
   0  -8   7   87.94    4.51
   0  -8   7   88.94    5.48
   0  -8   7   89.23    5.05
   0  -8   6  244.13   10.49
   0  -8   6  273.18   11.90
   0  -8   6  267.86   10.45
   0  -8   6  247.51    9.07
   0  -8   6  243.23   10.78
   0  -8   6  244.66   10.13
   0  -8   6  260.40    9.99
   0  -8   5  459.05   15.35
   0  -8   5  412.95   15.09
   0  -8   5  442.92   16.83
   0  -8   5  421.88   13.83
   0  -8   5  479.65   15.50
   0  -8   5  431.67   14.87
   0  -8   5  443.57   16.30
   0  -8   5  450.27   15.34
   0  -8   4  517.53   17.54
   0  -8   4  514.82   18.72
   0  -8   4  524.43   16.91
   0  -8   4  483.18   16.66
   0  -8   4  532.01   17.26
   0   8  -3  309.79   12.02
   0  -8   3  299.44   10.75
   0  -8   3  306.52   11.28
   0  -8   3  281.65   10.89
   0   8  -2  110.38    6.12
   0  -8   2  112.25    5.70
   0   8  -1   17.89    2.22
   0  -8   1   17.91    2.05
   0  -8   1   19.37    2.11
   0   8   0   16.83    2.48
   0   8   0   15.15    1.92
   0  -8   0   17.87    1.92
   0  -8   0   15.29    1.89
   0   8   1    4.35    1.29
   0   8   1    5.24    1.19
   0  -8  -1    5.70    1.13
   0   8   2   16.05    2.01
   0  -8  -2   17.60    2.23
   0  -8  -2   15.29    1.75
   0  -8  -2   16.52    2.14
   0   8   3   54.43    3.68
   0  -8  -3   53.36    3.76
   0   8   4  167.09    6.92
   0  -8  -5   11.23    1.23
   0   8   5   14.68    1.44
   0  -9  12   72.03    3.50
   0  -9  12   70.06    3.51
   0  -9  11  142.24    6.05
   0  -9  11  145.82    5.61
   0  -9  11  133.31    5.84
   0  -9  11  156.67    6.45
   0  -9  10   76.66    4.73
   0  -9  10   87.86    4.87
   0  -9  10   84.28    4.04
   0  -9   9  212.84    9.48
   0  -9   9  229.39    9.28
   0  -9   9  203.55    7.75
   0  -9   8   42.44    2.76
   0  -9   7  111.15    5.03
   0  -9   7  130.59    6.57
   0  -9   7  116.97    6.44
   0  -9   6   20.56    2.84
   0  -9   6   21.83    2.47
   0  -9   6   22.55    2.80
   0  -9   6   20.25    2.17
   0  -9   5   15.52    2.03
   0  -9   5   15.16    2.42
   0  -9   5   12.90    1.86
   0  -9   5   15.60    1.89
   0  -9   5   14.97    2.03
   0  -9   5   15.29    2.41
   0  -9   4  357.56   13.42
   0   9  -4  351.12   13.70
   0  -9   4  358.70   12.64
   0  -9   4  364.49   12.66
   0  -9   4  331.36   14.12
   0  -9   4  385.14   13.41
   0   9  -3    9.96    1.71
   0  -9   3   13.73    2.09
   0  -9   3    9.56    1.50
   0  -9   3   11.41    2.19
   0  -9   3   10.48    1.65
   0  -9   2  169.77    8.24
   0  -9   2  159.27    7.17
   0  -9   2  154.76    6.86
   0  -9   1   92.96    4.78
   0  -9   1   98.18    6.12
   0  -9   1   86.79    4.63
   0  -9   0  339.92   13.18
   0   9   1   50.16    3.24
   0  -9  -1   55.28    3.91
   0   9   2   61.56    3.45
   0   9   3   22.31    1.76
   0  -9  -3   24.47    2.12
   0  -9  -4   70.91    3.09
   0 -10  11    4.85    0.80
   0 -10  11    3.66    0.80
   0 -10  10   73.62    4.15
   0 -10  10   84.16    4.34
   0 -10   9   68.84    4.33
   0 -10   8   47.72    3.79
   0 -10   8   50.74    3.59
   0 -10   7   57.59    3.85
   0 -10   7   50.49    3.78
   0 -10   6   73.20    4.30
   0 -10   6   64.97    4.62
   0 -10   5   24.94    2.35
   0 -10   5   20.45    2.11
   0 -10   5   25.40    2.92
   0 -10   5   19.01    1.89
   0 -10   4  249.47    9.79
   0 -10   4  244.57    8.79
   0 -10   4  234.37   10.56
   0 -10   3  114.73    6.09
   0 -10   3  128.85    6.98
   0 -10   2   60.50    4.18
   0 -10   1   30.14    2.83
   0 -10   1   33.04    3.11
   0 -10   0   45.31    3.33
   0 -10   0   47.25    3.32
   0 -10  -1   37.52    2.65
   0 -10  -1   33.24    2.29
   0 -11  10    0.85    0.37
   0 -11  10    0.33    0.29
   0 -11   9  128.92    5.30
   0 -11   9  112.91    4.90
   0 -11   8   34.45    2.41
   0 -11   7    0.93    0.63
   0 -11   6    0.94    0.54
   0 -11   5    2.75    0.79
   0 -11   5    2.24    0.85
   0 -11   4   13.91    1.44
   0 -11   4   16.48    2.02
   0 -11   3   78.97    4.03
   0 -11   3  101.38    5.06
   0 -11   2  284.15    9.61
   0 -11   1  197.69    7.16
   0 -11   1  215.21    7.40
   1 -11   0   32.13    2.06
   1 -11   0   35.32    2.18
   1 -11   1  275.12    9.53
   1 -11   1  303.67   10.18
   1 -11   2   63.45    3.48
   1 -11   2   76.52    4.26
   1 -11   3   74.50    3.81
   1 -11   3   98.51    5.06
   1 -11   4   91.52    5.08
   1 -11   5  147.79    6.70
   1 -11   6    0.89    0.63
   1 -11   7   -0.09    0.45
   1 -11   7    0.52    0.45
   1 -11   8   24.94    2.21
   1 -11   8   22.04    1.91
   1 -11   9   23.75    1.90
   1 -11   9   21.77    1.79
   1 -10  -2   41.92    2.72
   1 -10  -1  113.06    5.42
   1 -10  -1  108.66    5.23
   1 -10   0   21.95    2.34
   1 -10   0   23.14    2.46
   1 -10   1    3.97    1.09
   1 -10   1    2.72    0.73
   1 -10   2   43.88    3.45
   1 -10   2   43.05    3.78
   1 -10   2   43.35    2.98
   1 -10   3   34.53    3.02
   1 -10   3   37.68    2.83
   1 -10   3   38.26    3.57
   1 -10   4  152.98    6.89
   1 -10   4  164.16    6.94
   1 -10   4  166.16    8.12
   1 -10   5   64.52    3.91
   1 -10   5   63.84    4.60
   1 -10   5   65.93    3.93
   1 -10   6  262.73    9.96
   1 -10   6  258.71    9.68
   1 -10   6  255.93   10.39
   1 -10   7  175.74    7.31
   1 -10   7  143.33    6.73
   1 -10   8   78.93    4.46
   1 -10   8   71.55    3.46
   1 -10   9   26.28    2.51
   1 -10   9   31.06    2.01
   1 -10  10   23.50    2.01
   1 -10  10   23.76    1.63
   1 -10  10   25.56    2.16
   1 -10  11    6.09    0.90
   1  -9  -4   30.33    2.21
  -1   9   4   32.24    2.12
  -1   9   3    2.83    0.75
  -1   9   2    7.02    1.23
   1  -9  -2    7.11    1.11
   1  -9  -2    8.28    1.45
  -1   9   1  117.98    5.73
   1  -9  -1  115.17    5.52
  -1   9   0   81.03    4.54
   1  -9   1  129.46    6.06
  -1   9  -2  155.33    7.72
   1  -9   2  153.56    7.16
   1  -9   3   36.93    3.31
  -1   9  -3   35.04    3.45
   1  -9   3   35.04    2.73
   1  -9   3   40.44    3.32
   1  -9   3   38.57    3.16
   1  -9   4  250.39    9.79
  -1   9  -4  241.89   10.67
   1  -9   4  228.48    8.41
   1  -9   4  245.99    9.40
   1  -9   4  229.21   10.51
   1  -9   4  249.23    9.75
   1  -9   5   20.54    2.77
   1  -9   5   16.17    2.05
   1  -9   5   16.17    1.68
   1  -9   5   17.89    2.47
   1  -9   5   18.75    2.17
   1  -9   6    3.38    1.19
   1  -9   6    3.57    0.84
   1  -9   6    5.20    1.20
   1  -9   6    4.13    1.07
   1  -9   6    3.57    1.14
   1  -9   7   56.09    3.42
   1  -9   7   53.74    3.78
   1  -9   8  198.82    7.67
   1  -9   9  202.07    9.05
   1  -9   9  216.68    8.09
   1  -9   9  233.22    9.10
   1  -9  10  115.48    5.70
   1  -9  10  132.25    5.42
   1  -9  10  126.63    5.91
   1  -9  11   80.08    4.15
   1  -9  11   93.02    4.04
   1  -9  12   58.46    2.86
   1  -9  12   49.64    2.59
   1  -8  -6   68.04    3.05
  -1   8   6   86.26    3.60
  -1   8   5    0.84    0.49
   1  -8  -5    1.39    0.60
  -1   8   4   91.26    5.01
   1  -8  -4   94.66    5.20
   1  -8  -4   87.76    4.41
  -1   8   3  143.02    7.02
   1  -8  -3  158.00    7.58
   1  -8  -3  146.75    6.67
  -1   8   2   37.77    3.27
   1  -8  -2   39.04    3.50
   1  -8  -2   33.91    2.98
  -1   8   1  138.22    6.86
  -1   8   1  131.80    6.83
  -1   8   1  134.39    7.67
   1  -8  -1  148.45    7.49
   1  -8  -1  146.54    6.92
  -1   8   0    0.74    0.59
  -1   8   0    0.16    0.51
  -1   8   0    0.53    0.48
   1  -8   0    1.20    0.72
  -1   8  -1    5.46    1.36
  -1   8  -1    5.16    1.11
   1  -8   1    5.67    1.17
   1  -8   1    6.07    1.31
  -1   8  -2    1.19    0.76
   1  -8   2    3.01    0.91
   1  -8   3  182.71    9.00
   1  -8   3  184.40    7.09
   1  -8   3  186.26    7.48
   1  -8   3  189.25    8.20
   1  -8   4 1033.08   31.20
   1  -8   4 1037.40   28.99
   1  -8   4  936.29   28.06
   1  -8   4  939.67   29.44
   1  -8   4  969.97   29.30
   1  -8   5  120.34    6.82
   1  -8   5  129.52    7.35
   1  -8   5  134.81    6.20
   1  -8   5  119.02    5.49
   1  -8   5  119.21    6.13
   1  -8   6  178.44    9.17
   1  -8   6  160.47    8.61
   1  -8   6  172.03    7.15
   1  -8   6  195.17    7.97
   1  -8   6  182.10    7.92
   1  -8   6  164.50    7.96
   1  -8   7  256.46   11.69
   1  -8   7  234.09   11.18
   1  -8   7  259.89    9.49
   1  -8   7  244.95   10.01
   1  -8   8   42.64    3.04
   1  -8   8   40.27    3.27
   1  -8   8   39.34    4.07
   1  -8   8   33.78    3.75
   1  -8   9    6.31    1.33
   1  -8   9    6.89    1.23
   1  -8  10    4.62    1.09
   1  -8  10    4.87    1.02
   1  -8  10    4.56    1.07
   1  -8  11  126.26    5.46
   1  -8  11  117.58    5.47
   1  -8  12    0.44    0.34
  -1   8 -12    1.24    0.53
   1  -8  13   35.61    2.05
  -1   8 -13   38.95    2.05
  -1   7   7   47.15    2.81
   1  -7  -7   49.21    2.91
  -1   7   6   48.39    3.32
   1  -7  -6   52.55    3.51
   1  -7  -6   42.82    2.77
  -1   7   5   40.39    3.32
   1  -7  -5   42.74    3.56
   1  -7  -5   41.87    3.12
  -1   7   4   31.70    3.04
   1  -7  -4   29.27    3.10
   1  -7  -4   35.56    3.05
  -1   7   3   43.54    3.63
  -1   7   3   45.61    4.13
   1  -7  -3   47.75    4.00
   1  -7  -3   47.70    3.69
  -1   7   2  219.29    9.46
  -1   7   2  208.51   10.11
   1  -7  -2  242.68   10.22
   1  -7  -2  226.00    9.47
  -1   7   1  161.16    7.54
  -1   7   1  163.72    8.46
  -1   7   1  165.89    7.79
   1  -7  -1  186.43    8.39
   1  -7  -1  172.46    7.77
  -1   7   0  410.51   14.14
  -1   7   0  423.11   14.80
   1  -7   0  448.67   15.13
   1  -7   0  410.31   14.35
   1  -7   0  387.54   13.62
  -1   7  -1   84.13    4.63
  -1   7  -1   99.00    5.51
   1  -7   1   91.27    4.29
   1  -7   1   93.57    5.04
   1  -7   1   94.32    4.84
   1  -7   2  224.97    9.38
   1  -7   2  194.41    7.42
   1  -7   2  211.93    7.57
   1  -7   2  201.45    8.33
   1  -7   2  206.46    8.26
   1  -7   3  167.73    8.00
   1  -7   3  160.00    7.22
   1  -7   3  159.14    6.35
   1  -7   3  167.61    6.63
   1  -7   3  166.18    7.11
   1  -7   4  129.58    6.87
   1  -7   4  111.67    6.07
   1  -7   4  130.19    5.64
   1  -7   4  123.21    5.33
   1  -7   4  125.56    5.97
   1  -7   4  116.69    5.84
   1  -7   5    1.19    0.59
   1  -7   5    2.25    0.93
   1  -7   5    0.97    0.58
   1  -7   5    2.30    0.73
   1  -7   5    2.70    0.72
   1  -7   5    2.75    0.84
  -1   7  -6   81.76    5.62
   1  -7   6   80.08    5.27
   1  -7   6   87.54    5.79
   1  -7   6   83.47    4.37
   1  -7   6   83.72    4.75
   1  -7   7  125.82    7.12
   1  -7   7  135.22    7.68
  -1   7  -7  129.23    7.14
   1  -7   7  134.36    6.00
   1  -7   7  121.35    5.62
   1  -7   7  134.17    6.18
   1  -7   7  129.64    6.39
   1  -7   8   49.23    3.54
   1  -7   8   47.04    3.31
   1  -7   8   46.00    3.04
   1  -7   8   52.27    4.40
   1  -7   8   46.14    4.42
   1  -7   9  388.89   14.42
   1  -7   9  428.48   15.97
   1  -7   9  400.63   16.20
   1  -7   9  430.64   13.99
   1  -7   9  379.04   12.96
   1  -7   9  405.32   14.00
   1  -7  10  206.08    8.36
   1  -7  10  197.80    7.40
   1  -7  11  194.20    7.66
  -1   7 -12   16.95    1.80
   1  -7  13    5.22    0.82
  -1   7 -13    5.40    0.83
   1  -6  -9    6.47    0.73
  -1   6   8  172.59    6.68
   1  -6  -7  143.26    6.17
  -1   6   6  142.79    7.02
   1  -6  -6  147.66    6.88
  -1   6   5  112.44    6.13
  -1   6   5  116.35    7.03
   1  -6  -5  104.88    6.32
   1  -6  -5  103.01    6.11
   1  -6  -5  109.13    5.99
  -1   6   4   94.68    5.59
  -1   6   4   93.20    6.28
  -1   6   4   97.36    6.17
   1  -6  -4   96.00    5.99
   1  -6  -4  102.22    6.02
  -1   6   3   81.17    5.02
  -1   6   3   81.22    5.50
   1  -6  -3   90.64    5.54
   1  -6  -3   89.33    5.44
   1  -6  -3   89.88    5.25
  -1   6   2  226.89    9.21
  -1   6   2  217.71    9.16
  -1   6   2  233.97   10.11
   1  -6  -2  230.14    9.68
   1  -6  -2  239.56    9.46
  -1   6   1    8.62    1.40
  -1   6   1    9.30    1.49
   1  -6  -1   10.40    1.64
   1  -6  -1    8.69    1.42
  -1   6   0    6.38    1.22
   1  -6   0    7.94    1.36
   1  -6   0    7.48    1.24
   1  -6   1   55.84    3.76
   1  -6   2    1.08    0.58
   1  -6   2    2.50    0.65
   1  -6   3  733.24   22.44
   1  -6   3  695.18   21.31
   1  -6   4  239.15    9.29
   1  -6   4  269.73   10.29
   1  -6   4  248.35    9.16
   1  -6   5  432.17   14.89
   1  -6   5  442.81   13.95
   1  -6   5  415.43   14.38
   1  -6   5  452.96   14.58
   1  -6   6  171.22    8.22
  -1   6  -6  153.85    7.79
   1  -6   6  147.07    7.22
   1  -6   6  165.48    6.60
   1  -6   6  160.19    6.51
   1  -6   7   29.97    3.33
  -1   6  -7   30.01    3.10
   1  -6   7   29.95    2.95
   1  -6   7   31.20    2.51
   1  -6   7   32.07    2.53
   1  -6   7   30.07    2.41
   1  -6   8   30.44    3.49
   1  -6   8   25.14    2.83
   1  -6   8   26.65    2.30
   1  -6   8   26.47    2.40
   1  -6   9    3.99    1.36
   1  -6   9    3.44    1.12
   1  -6   9    3.12    0.89
   1  -6   9    3.51    0.87
   1  -6  10   10.76    2.13
   1  -6  10    8.89    1.78
   1  -6  10   11.06    1.43
   1  -6  10    9.70    1.54
   1  -6  10   10.07    1.51
   1  -6  11  425.21   14.04
   1  -6  11  401.00   13.11
  -1   6 -11  411.06   14.41
   1  -6  12   61.05    3.08
  -1   6 -12   63.07    3.80
   1  -6  13   98.54    4.29
  -1   6 -13  105.07    4.49
  -1   5   9  130.67    5.23
   1  -5  -9  112.40    4.73
  -1   5   8   45.03    3.19
   1  -5  -8   37.97    2.95
  -1   5   7    2.41    0.85
   1  -5  -7    1.95    0.85
  -1   5   6   24.30    3.06
   1  -5  -6   30.85    3.10
  -1   5   5    0.16    0.52
  -1   5   5    0.72    0.62
  -1   5   5    0.45    0.43
  -1   5   4   50.02    4.08
  -1   5   4   54.93    3.79
   1  -5  -4   48.44    3.82
  -1   5   3    4.61    1.16
  -1   5   3    4.78    1.06
   1  -5  -3    6.92    1.34
  -1   5   2 1102.21   32.55
  -1   5   2 1141.36   33.46
   1  -5  -2 1145.00   33.01
  -1   5   1  327.67   11.33
  -1   5   0 1263.53   35.74
   1  -5   1  738.94   22.11
   1  -5   1  738.31   20.96
   1  -5   2  390.59   12.12
   1  -5   2  395.05   12.98
   1  -5   3  293.32    9.90
   1  -5   3  315.14   10.77
   1  -5   4  171.50    6.79
   1  -5   4  185.31    7.59
   1  -5   5  334.90   12.16
  -1   5  -5  313.92   12.13
  -1   5  -6   10.44    1.70
   1  -5   6    7.45    1.27
   1  -5   6   10.52    1.79
   1  -5   6    7.00    1.08
   1  -5   7   32.98    3.35
  -1   5  -7   31.21    2.98
   1  -5   7   30.11    2.27
   1  -5   7   28.75    2.33
   1  -5   8  119.66    6.20
   1  -5   8  124.57    7.27
   1  -5   8  120.08    5.33
   1  -5   8  107.11    5.24
   1  -5   8  113.83    5.47
   1  -5   9  298.03   11.61
   1  -5   9  281.44   12.69
   1  -5   9  271.97   10.09
   1  -5   9  291.42   10.61
   1  -5   9  284.11   10.26
   1  -5  10   30.26    3.18
   1  -5  10   36.93    3.98
   1  -5  10   34.86    2.89
   1  -5  10   34.62    2.68
   1  -5  11  190.36    7.89
   1  -5  11  183.14    7.34
  -1   5 -11  189.46    8.31
   1  -5  12   53.34    3.00
  -1   5 -12   46.42    3.28
   1  -5  13    0.19    0.27
   1  -5  13    0.21    0.26
  -1   5 -13    0.90    0.44
   1  -4 -11   11.67    0.97
  -1   4  10   22.96    1.74
   1  -4 -10   23.12    2.04
  -1   4   9   33.87    2.64
   1  -4  -9   32.62    2.62
   1  -4  -9   31.08    2.87
  -1   4   8  101.52    5.39
   1  -4  -8   99.81    5.91
   1  -4  -8   96.31    5.50
  -1   4   7  429.41   16.47
  -1   4   7  475.99   17.64
  -1   4   7  495.59   16.37
   1  -4  -7  491.04   17.31
   1  -4  -7  487.20   16.78
  -1   4   6  634.63   22.40
  -1   4   6  678.35   21.06
   1  -4  -6  664.89   21.98
   1  -4  -6  645.96   21.42
  -1   4   5  226.71   10.27
  -1   4   5  225.67    9.80
   1  -4  -5  224.99    9.38
  -1   4   4  712.03   22.38
   1  -4  -4  688.61   21.70
  -1   4   3   56.70    3.70
  -1   4   3   50.34    3.18
  -1   4   2    1.32    0.61
  -1   4   2    1.59    0.57
  -1   4   1  332.00   10.86
   1  -4   0  155.54    5.84
   1  -4   0  149.88    4.94
   1  -4   1  520.50   15.43
   1  -4   1  510.47   14.59
   1  -4   2   13.01    1.34
   1  -4   3  730.19   21.45
   1  -4   4  612.01   18.91
  -1   4  -5  238.39    9.39
   1  -4   5  248.47    9.42
  -1   4  -6   83.25    4.78
   1  -4   6   79.63    4.84
  -1   4  -7   69.91    4.43
   1  -4   7   70.96    4.79
   1  -4   7   63.08    3.53
   1  -4   7   60.87    3.51
   1  -4   8   52.13    4.32
   1  -4   8   48.39    3.47
   1  -4   8   49.49    3.17
   1  -4   8   44.37    2.83
   1  -4   8   49.50    3.21
   1  -4   9   -0.17    0.48
   1  -4   9    1.11    0.60
   1  -4   9    1.54    0.64
   1  -4   9    0.55    0.51
   1  -4  10  260.41   11.85
   1  -4  10  247.97   10.33
   1  -4  10  255.90    9.89
   1  -4  10  254.47    9.56
  -1   4 -10  251.21   10.40
   1  -4  11   37.66    2.81
  -1   4 -11   41.38    3.34
   1  -4  12  286.97    9.71
  -1   4 -12  265.89   10.19
  -1   4 -13   78.73    3.76
  -1   4 -13   77.75    3.75
   1  -3 -11  103.94    4.69
  -1   3  10  182.55    6.99
   1  -3 -10  180.42    7.81
   1  -3 -10  172.63    7.09
  -1   3   9   66.20    3.99
   1  -3  -9   64.06    4.55
   1  -3  -9   64.26    4.23
  -1   3   8    2.19    0.88
  -1   3   8    3.48    1.19
  -1   3   8    4.31    1.04
   1  -3  -8    3.15    1.08
   1  -3  -8    5.22    1.37
  -1   3   7   17.32    2.46
  -1   3   7   13.15    2.01
  -1   3   7   19.84    2.13
   1  -3  -7   12.88    1.91
   1  -3  -7   16.53    2.23
  -1   3   6   56.42    4.39
   1  -3  -6   61.84    4.19
   1  -3  -6   54.14    3.80
  -1   3   5  390.53   14.22
  -1   3   5  419.30   14.83
   1  -3  -5  414.35   14.12
  -1   3   4  447.09   15.01
  -1   3   3  322.81   10.84
  -1   3   3  305.99   10.27
  -1   3   2  305.15    9.92
  -1   3   2  317.68   10.35
  -1   3   1  396.82   12.00
   1  -3   0   20.73    1.42
   1  -3   1 7662.88  200.39
   1  -3   2   46.15    2.41
   1  -3   3   59.93    3.04
  -1   3  -4  121.16    5.40
   1  -3   5  466.97   15.13
  -1   3  -5  450.11   14.88
   1  -3   6 1424.55   41.11
  -1   3  -6 1414.83   40.54
   1  -3   7  725.24   22.64
   1  -3   7  653.54   20.26
   1  -3   7  690.53   20.32
   1  -3   8  328.65   11.56
   1  -3   8  324.03   11.55
   1  -3   9    4.90    1.07
   1  -3   9    5.16    1.08
   1  -3   9    5.21    1.11
  -1   3  -9    5.82    1.34
   1  -3  10   28.55    2.55
   1  -3  10   31.12    2.73
  -1   3 -10   32.29    3.01
   1  -3  11  106.54    5.32
  -1   3 -11  114.63    5.97
   1  -3  12    1.88    0.65
  -1   3 -12    2.16    0.77
  -1   3 -13    0.45    0.34
  -1   3 -13    0.48    0.36
   1  -2 -12    0.96    0.44
   1  -2 -11   63.42    3.85
   1  -2 -11   58.02    3.28
  -1   2  10  111.64    5.19
   1  -2 -10  113.92    5.70
   1  -2 -10  116.84    6.22
  -1   2   9  509.39   18.13
  -1   2   9  513.42   16.88
   1  -2  -9  539.73   17.76
   1  -2  -9  549.45   18.37
  -1   2   8   70.73    5.24
  -1   2   8   71.25    4.85
  -1   2   8   78.91    4.29
   1  -2  -8   66.85    4.43
   1  -2  -8   64.61    4.59
  -1   2   7  110.31    6.11
  -1   2   7  113.98    6.51
   1  -2  -7  117.41    6.09
   1  -2  -7  120.14    5.93
  -1   2   6  154.96    7.33
   1  -2  -6  148.10    6.77
  -1   2   5  107.74    5.55
  -1   2   4  568.96   17.39
  -1   2   4  538.31   17.04
  -1   2   3   41.70    2.54
  -1   2   2  473.78   13.63
  -1   2   2  459.07   13.82
  -1   2   1   32.92    1.71
   1  -2   0 2415.74   63.57
   1  -2   1 9999.00  260.45
   1  -2   2  379.21   11.25
   1  -2   3 1873.27   49.40
  -1   2  -3 1773.06   49.57
  -1   2  -4  343.36   11.36
   1  -2   4  346.78   11.34
   1  -2   5  369.35   12.44
  -1   2  -5  357.55   12.19
   1  -2   7   19.12    1.78
   1  -2   7   19.29    1.82
   1  -2   8  676.84   20.00
   1  -2   8  651.36   20.13
   1  -2   8  663.85   20.16
  -1   2  -8  630.30   20.79
   1  -2   9  145.13    6.47
   1  -2   9  169.32    8.64
   1  -2   9  156.59    6.83
   1  -2   9  147.44    6.70
  -1   2  -9  148.78    7.29
   1  -2  10   25.04    2.44
  -1   2 -10   31.04    2.96
   1  -2  11   71.88    4.16
  -1   2 -11   68.62    4.40
  -1   2 -12  191.98    7.57
  -1   2 -12  186.40    7.52
  -1   2 -13   94.96    3.95
  -1   2 -13   87.65    3.72
   1  -1 -13   41.53    2.07
   1  -1 -12  180.46    6.85
   1  -1 -12  153.16    5.83
   1  -1 -11   30.63    2.56
   1  -1 -11   37.08    3.03
  -1   1  10   12.01    1.47
   1  -1 -10   10.44    1.74
   1  -1 -10    9.94    1.60
  -1   1   9   57.25    4.40
  -1   1   9   59.52    3.54
   1  -1  -9   57.56    4.02
   1  -1  -9   56.86    4.20
  -1   1   8    8.20    1.69
  -1   1   8   10.30    1.75
   1  -1  -8    9.99    1.55
   1  -1  -8   10.32    1.65
  -1   1   7  121.15    6.44
  -1   1   7  121.47    6.15
   1  -1  -7  121.11    5.75
  -1   1   6   78.87    4.37
  -1   1   6   70.09    4.32
  -1   1   5  867.04   24.40
  -1   1   5  981.34   26.59
  -1   1   4  138.39    5.28
  -1   1   4  147.23    5.53
  -1   1   3 2291.38   58.63
  -1   1   3 2184.89   58.46
  -1   1   3 2145.50   57.37
  -1   1   2    2.47    0.43
  -1   1   2    3.06    0.32
  -1   1   1 1972.29   51.96
   1  -1   0  316.14    8.58
   1  -1   1  341.54    9.67
   1  -1   2  485.54   13.95
   1  -1   2  484.59   13.70
   1  -1   3  661.92   19.73
   1  -1   3  671.54   19.49
   1  -1   4  339.40   10.79
   1  -1   4  318.90   10.92
   1  -1   5  389.66   12.98
   1  -1   6  341.11   12.33
   1  -1   7  551.60   17.03
  -1   1  -7  559.71   17.88
   1  -1   8  886.26   28.08
  -1   1  -8  848.40   26.52
   1  -1   9  174.20    9.04
  -1   1  -9  177.07    8.17
   1  -1  10    9.53    1.90
  -1   1 -10    7.88    1.54
  -1   1 -11    8.72    1.45
  -1   1 -11    9.62    1.51
  -1   1 -12    1.00    0.51
  -1   1 -12    0.34    0.36
  -1   1 -13   74.77    3.09
   1   0 -13   48.72    2.72
   1   0 -12   28.26    2.22
   1   0 -12   32.33    2.61
   1   0 -11  112.82    5.70
   1   0 -11  117.36    6.12
  -1   0  10  105.89    6.41
   1   0 -10  115.63    5.99
   1   0 -10  117.31    6.24
  -1   0   9   19.33    2.45
  -1   0   9   17.32    2.06
   1   0  -9   16.34    2.05
  -1   0   8  603.95   19.54
  -1   0   8  573.05   18.24
   1   0  -8  570.37   18.48
  -1   0   7  362.36   13.08
  -1   0   7  377.59   11.69
  -1   0   6   22.88    1.64
  -1   0   6   20.19    1.96
  -1   0   5   50.62    2.40
  -1   0   5   38.31    2.57
  -1   0   4   11.12    1.12
  -1   0   4   15.42    1.15
  -1   0   3   98.93    3.87
  -1   0   3  124.41    3.88
  -1   0   2  286.34    7.71
  -1   0   2  277.62    8.05
  -1   0   2  267.85    7.93
  -1   0   2  278.30    7.85
  -1   0   1  103.63    3.08
  -1   0   1   92.46    2.68
   1   0   1   50.34    1.76
   1   0   2 4060.12  106.87
   1   0   3 2142.06   57.67
   1   0   4  504.54   15.59
   1   0   5    1.88    0.64
   1   0   6   20.17    2.26
   1   0   7  204.66    9.31
   1   0   7  199.22    9.34
   1   0   7  210.60    8.07
  -1   0  -7  200.81    8.51
   1   0   8  253.25   11.26
   1   0   8  254.73    9.75
  -1   0  -8  248.72   10.30
   1   0   9  210.79   10.09
   1   0   9  205.33    8.64
  -1   0  -9  205.75    9.13
   1   0  10  359.70   12.73
  -1   0 -10  345.86   12.96
  -1   0 -11  154.78    6.77
  -1   0 -12    0.73    0.39
  -1  -1  14   11.85    0.98
  -1  -1  13  105.37    4.38
   1   1 -13  110.86    4.40
   1   1 -12  153.29    6.57
   1   1 -12  155.71    6.95
   1   1 -11   50.61    3.76
   1   1 -11   50.67    3.63
  -1  -1  10    3.80    1.02
   1   1 -10    4.22    1.08
  -1  -1   9   58.63    4.40
  -1  -1   9   54.51    3.57
   1   1  -9   59.93    3.92
  -1  -1   8  228.17    8.34
  -1  -1   8  218.23    9.31
  -1  -1   8  216.87    8.17
   1   1  -8  205.19    8.35
  -1  -1   7  456.83   15.99
  -1  -1   7  508.31   15.26
  -1  -1   6  374.23   12.96
  -1  -1   6  413.41   12.56
  -1  -1   5 1380.21   34.31
  -1  -1   5 1091.50   34.08
  -1  -1   4   25.02    1.71
  -1  -1   4   32.89    2.02
  -1  -1   3  170.62    5.53
  -1  -1   3  155.84    5.30
  -1  -1   2  823.98   21.87
   1   1  -2  804.33   21.33
  -1  -1   1  439.10   12.30
  -1  -1   0  818.49   22.73
  -1  -1   0  838.17   22.34
   1   1   1  529.14   14.27
   1   1   2  522.68   14.95
   1   1   3  329.76   10.36
   1   1   4 3792.18  101.81
   1   1   5 1189.50   34.75
   1   1   6  585.49   19.82
   1   1   6  608.72   18.53
  -1  -1  -6  599.89   19.21
   1   1   7    2.51    1.00
   1   1   7    2.13    0.92
   1   1   7    1.29    0.69
  -1  -1  -7    3.32    1.01
   1   1   8  402.27   15.74
   1   1   8  419.00   15.95
   1   1   8  393.31   14.15
  -1  -1  -8  413.27   14.90
  -1  -1  -8  418.71   14.79
  -1  -1  -9    2.29    0.87
  -1  -1  -9    2.24    0.88
   1   1  10    4.14    0.82
  -1  -1 -10    4.15    1.08
  -1  -1 -11  107.45    4.94
  -1  -1 -12   11.48    1.01
  -1  -2  14    0.49    0.30
   1   2 -14    0.15    0.18
   1   2 -13   51.28    3.11
   1   2 -13   43.88    2.69
   1   2 -12  205.12    8.50
   1   2 -12  205.61    8.26
  -1  -2  11  220.99   10.37
  -1  -2  11  223.86    8.93
  -1  -2  11  219.90    8.87
   1   2 -11  236.26    9.39
  -1  -2  10  241.12    9.27
   1   2 -10  239.89    9.69
  -1  -2   9  427.36   14.64
  -1  -2   9  418.57   13.85
   1   2  -9  417.67   14.39
  -1  -2   8  153.31    6.78
  -1  -2   8  147.79    6.06
  -1  -2   8  153.57    6.48
  -1  -2   7  329.26   12.30
  -1  -2   7  360.72   11.99
  -1  -2   6  805.13   23.87
  -1  -2   6  810.57   24.07
  -1  -2   5  180.69    7.04
  -1  -2   4  409.40   12.36
   1   2  -4  399.23   11.64
  -1  -2   3   35.26    2.02
  -1  -2   2  533.24   14.44
  -1  -2   2  495.08   14.77
  -1  -2   1  122.29    4.13
  -1  -2   1  119.98    4.07
  -1  -2   0 2134.47   55.46
  -1  -2   0 2055.83   55.70
  -1  -2  -1    3.35    0.55
   1   2   1    4.18    0.49
   1   2   2  365.59   10.82
  -1  -2  -2  321.70   10.30
   1   2   3  600.26   16.44
  -1  -2  -3  488.86   15.35
   1   2   4  279.76   10.65
   1   2   4  270.12    9.74
   1   2   5    3.76    1.07
   1   2   5    3.40    0.83
  -1  -2  -5    5.36    1.14
  -1  -2  -5    2.77    0.83
   1   2   6  231.57   10.45
   1   2   6  261.82    9.57
  -1  -2  -6  248.51   10.05
  -1  -2  -6  234.98    9.71
   1   2   7 1200.10   37.14
   1   2   7 1213.57   37.24
   1   2   7 1164.88   35.23
  -1  -2  -7 1230.41   35.99
  -1  -2  -7 1232.68   36.21
   1   2   8  202.48    9.89
   1   2   8  212.90   10.03
  -1  -2  -8  201.81    9.19
  -1  -2  -8  213.06    9.26
  -1  -2  -9  194.26    8.68
  -1  -2  -9  207.54    8.79
   1   2  10   61.18    3.14
  -1  -2 -10   60.70    3.69
  -1  -2 -10   57.59    3.63
  -1  -2 -11  102.89    4.14
  -1  -2 -11   99.70    4.19
  -1  -3  14   59.43    2.91
   1   3 -14   84.58    3.34
   1   3 -13   72.49    3.77
   1   3 -13   73.11    3.93
  -1  -3  12   16.64    1.93
  -1  -3  12   15.56    1.76
   1   3 -12   18.73    2.07
  -1  -3  11   62.82    5.00
  -1  -3  11   54.96    3.55
   1   3 -11   62.24    4.10
  -1  -3  10    9.42    1.68
  -1  -3  10    4.82    1.40
  -1  -3  10    6.73    1.18
   1   3 -10    6.38    1.28
  -1  -3   9  175.81    8.80
  -1  -3   9  176.24    7.02
  -1  -3   9  170.61    7.46
  -1  -3   8  199.92    9.17
  -1  -3   8  218.29    8.99
  -1  -3   7   25.31    2.40
  -1  -3   7   23.03    2.38
  -1  -3   6  261.93   10.02
  -1  -3   6  291.76   10.40
   1   3  -5 1262.41   34.57
  -1  -3   4  429.55   13.63
  -1  -3   3    8.01    1.01
  -1  -3   2 1174.48   32.40
  -1  -3   1  157.50    5.29
  -1  -3   1  158.68    5.82
  -1  -3   0    0.80    0.27
  -1  -3   0    7.58    0.73
  -1  -3  -1  242.77    7.71
   1   3   1  271.80    8.08
   1   3   2  782.78   23.01
   1   3   3   23.86    2.15
   1   3   4   33.38    3.19
   1   3   4   34.40    2.84
  -1  -3  -4   36.46    2.86
  -1  -3  -4   35.50    2.93
   1   3   5  710.94   23.23
  -1  -3  -5  644.68   20.90
  -1  -3  -5  696.34   21.79
  -1  -3  -5  709.59   22.19
   1   3   6  356.59   14.66
  -1  -3  -6  400.06   14.34
  -1  -3  -6  377.88   13.94
   1   3   7   14.43    2.34
   1   3   7   11.30    2.07
  -1  -3  -7   11.52    1.89
  -1  -3  -7   11.58    1.95
  -1  -3  -8   44.12    3.59
  -1  -3  -8   46.38    3.72
   1   3   9   29.34    2.26
  -1  -3  -9   28.59    2.59
  -1  -3  -9   29.28    2.58
   1   3  10   53.29    2.61
  -1  -3 -10   54.79    2.99
  -1  -3 -10   53.82    2.97
   1   4 -14   11.49    1.00
   1   4 -14   11.77    1.12
  -1  -4  13   85.35    4.39
   1   4 -13   89.73    4.35
  -1  -4  12  282.77    9.87
   1   4 -12  285.97   10.63
  -1  -4  11  267.71   12.10
  -1  -4  11  274.71    9.65
   1   4 -11  285.26   10.69
  -1  -4  10  310.91   10.85
  -1  -4  10  330.07   13.19
  -1  -4  10  319.51   13.59
  -1  -4   9  527.61   17.02
  -1  -4   9  471.11   16.20
  -1  -4   9  491.78   15.60
  -1  -4   9  527.08   18.77
  -1  -4   9  557.29   18.46
  -1  -4   8   97.24    5.42
  -1  -4   8  110.11    6.35
  -1  -4   8  109.80    6.15
  -1  -4   8   95.38    4.92
  -1  -4   8  111.07    5.07
  -1  -4   7  279.61   11.09
  -1  -4   7  271.98   10.99
   1   4  -6    1.29    0.45
  -1  -4   5  184.49    7.71
   1   4  -5  174.80    6.57
  -1  -4   4 1006.51   29.18
  -1  -4   3  557.27   16.69
  -1  -4   3  527.57   16.68
  -1  -4   2  241.55    7.92
  -1  -4   2  232.02    8.49
  -1  -4   1    9.35    1.24
  -1  -4   1    8.24    0.91
  -1  -4   0  176.27    5.70
   1   4   0  176.44    6.31
   1   4   1  218.95    7.51
   1   4   2  100.39    5.12
   1   4   3    9.36    1.51
  -1  -4  -3    9.74    1.44
  -1  -4  -3    8.22    1.44
  -1  -4  -3   11.53    1.62
   1   4   4    2.54    1.10
   1   4   4    1.49    0.76
  -1  -4  -4    2.74    0.83
  -1  -4  -4    2.02    0.81
  -1  -4  -4    3.30    1.03
   1   4   5    2.95    1.11
  -1  -4  -5    0.82    0.53
  -1  -4  -5    4.37    1.23
  -1  -4  -5    2.95    1.01
   1   4   6   64.31    5.05
  -1  -4  -6   66.86    4.63
  -1  -4  -6   63.55    4.68
  -1  -4  -7  530.48   18.18
  -1  -4  -7  519.80   17.85
   1   4   8  497.03   15.55
  -1  -4  -8  472.29   15.96
  -1  -4  -8  479.22   16.21
   1   4   9  232.47    7.81
  -1  -4  -9  217.97    7.95
  -1  -4  -9  224.36    8.11
  -1  -5  14   52.02    2.66
   1   5 -14   48.61    2.36
   1   5 -14   49.54    2.36
  -1  -5  13   28.57    2.44
   1   5 -13   28.02    2.22
   1   5 -12    3.98    1.04
  -1  -5  11    1.52    0.56
  -1  -5  11    1.21    0.87
  -1  -5  10   69.14    4.50
  -1  -5  10   67.07    4.22
  -1  -5  10   64.82    4.22
  -1  -5  10   67.82    5.30
  -1  -5  10   70.73    5.50
  -1  -5   9  276.49   11.40
  -1  -5   9  292.06   10.67
  -1  -5   9  290.09   10.99
  -1  -5   9  294.66   12.77
  -1  -5   9  312.55   12.90
  -1  -5   8  757.53   24.38
  -1  -5   8  783.69   25.66
  -1  -5   8  746.36   23.63
  -1  -5   8  807.72   23.25
  -1  -5   7  196.81    9.45
  -1  -5   7  210.01    7.68
  -1  -5   7  212.59    8.28
  -1  -5   7  196.29    7.63
  -1  -5   6  760.49   24.52
  -1  -5   5   70.26    4.49
  -1  -5   4  863.34   25.32
  -1  -5   4  800.11   25.06
  -1  -5   3   12.44    1.63
  -1  -5   2   12.42    1.65
  -1  -5   2   13.06    1.33
  -1  -5   1   39.76    2.24
   1   5   0   18.68    1.72
   1   5   1   66.93    3.57
  -1  -5  -1   68.73    3.93
  -1  -5  -1   66.01    4.22
   1   5   2  262.24   10.69
  -1  -5  -2  265.97   10.13
  -1  -5  -2  275.31   10.46
  -1  -5  -2  282.95   11.01
  -1  -5  -3  452.16   15.37
  -1  -5  -3  486.08   16.71
  -1  -5  -3  478.50   16.09
   1   5   4  223.13   10.07
   1   5   4  228.18   11.09
  -1  -5  -4  267.29    9.74
  -1  -5  -4  245.97   10.33
  -1  -5  -4  251.44   10.84
   1   5   5  146.50    8.25
  -1  -5  -5  156.98    6.66
  -1  -5  -5  149.04    7.51
  -1  -5  -5  154.95    7.97
   1   5   6    0.98    0.60
  -1  -5  -6    2.67    1.02
  -1  -5  -6    1.96    0.76
  -1  -5  -7   71.21    4.24
  -1  -5  -7   80.38    4.67
   1   5   8    0.77    0.42
  -1  -5  -8    0.88    0.44
  -1  -6  14   72.09    3.28
   1   6 -14   59.13    2.63
  -1  -6  13  112.32    5.35
   1   6 -13  110.88    4.94
   1   6 -12  125.96    5.99
  -1  -6  11  234.72    9.56
  -1  -6  11  248.41    9.62
  -1  -6  11  241.84    9.68
  -1  -6  10  129.83    6.94
  -1  -6  10  131.37    6.70
  -1  -6  10  140.77    6.49
  -1  -6  10  137.82    8.17
  -1  -6  10  144.44    8.37
  -1  -6   9    6.42    1.55
  -1  -6   9   11.38    2.18
  -1  -6   9    7.31    1.29
  -1  -6   9    8.88    1.58
  -1  -6   8  181.66    9.52
  -1  -6   8  173.50    7.90
  -1  -6   8  176.55    7.22
  -1  -6   7   19.37    2.71
  -1  -6   7   15.52    1.99
  -1  -6   7   13.49    1.56
  -1  -6   7   12.20    1.82
  -1  -6   7   15.37    1.77
  -1  -6   6   49.37    3.98
  -1  -6   6   44.76    4.00
  -1  -6   6   47.94    2.90
  -1  -6   6   50.20    3.17
  -1  -6   6   44.38    3.06
  -1  -6   6   51.99    3.80
  -1  -6   5  419.91   15.16
  -1  -6   5  390.19   15.05
  -1  -6   5  444.90   14.47
  -1  -6   5  417.49   14.76
  -1  -6   4  291.34   10.33
  -1  -6   4  284.69   11.11
  -1  -6   4  284.66   10.16
  -1  -6   4  262.40    9.52
  -1  -6   4  258.91   10.64
  -1  -6   3 1786.47   48.84
  -1  -6   3 1712.08   46.47
  -1  -6   3 1662.63   46.95
  -1  -6   3 1662.64   46.73
  -1  -6   2  331.22   12.12
  -1  -6   2  313.12   10.25
  -1  -6   2  327.23   10.66
   1   6  -1  415.90   13.63
  -1  -6   1  415.55   12.86
  -1  -6   1  386.86   13.53
  -1  -6   1  409.93   13.28
   1   6   0   19.31    1.87
   1   6   0   18.41    1.87
  -1  -6   0   20.94    1.71
  -1  -6   0   19.37    2.10
  -1  -6   0   19.40    2.10
  -1  -6   0   20.32    1.95
  -1  -6   0   17.49    1.81
   1   6   1   16.33    1.83
   1   6   1   17.44    2.27
  -1  -6  -1   16.63    2.05
  -1  -6  -1   19.00    2.15
  -1  -6  -1   14.82    1.75
  -1  -6  -1   15.60    2.23
  -1  -6  -1   17.27    1.79
   1   6   2    7.52    1.33
   1   6   2    9.34    1.72
  -1  -6  -2    8.15    1.49
  -1  -6  -2    8.88    1.53
  -1  -6  -2   10.01    1.45
  -1  -6  -2    9.28    1.79
   1   6   3    0.14    0.34
  -1  -6  -3    0.60    0.56
  -1  -6  -3    0.60    0.48
  -1  -6  -3    0.43    0.63
  -1  -6  -3    1.46    0.70
  -1  -6  -3    0.45    0.41
   1   6   4   53.11    3.75
   1   6   4   50.77    4.61
  -1  -6  -4   50.51    3.90
  -1  -6  -4   56.50    4.44
   1   6   5   21.08    2.23
  -1  -6  -5   19.72    2.24
  -1  -6  -5   18.60    2.39
   1   6   6   19.26    1.95
  -1  -6  -6   17.85    1.91
   1   6   7   72.62    3.51
  -1  -6  -7   64.19    3.20
  -1  -7  14   17.99    1.35
  -1  -7  14   23.57    1.65
  -1  -7  13   10.77    1.44
   1   7 -13   11.45    1.29
  -1  -7  12   11.57    1.55
  -1  -7  11   40.78    3.33
  -1  -7  11   42.83    3.39
  -1  -7  11   43.38    3.13
  -1  -7  10  112.38    6.45
  -1  -7  10  118.34    5.66
  -1  -7  10  114.67    6.22
  -1  -7  10  104.64    7.03
  -1  -7   9  241.40   10.77
  -1  -7   9  248.37    9.37
  -1  -7   9  248.35   10.39
  -1  -7   8  598.53   19.24
  -1  -7   8  535.92   17.41
  -1  -7   7  223.70   10.37
  -1  -7   7  200.72    7.83
  -1  -7   7  212.81    9.42
  -1  -7   7  207.83    8.59
  -1  -7   6  408.87   14.40
  -1  -7   6  390.16   14.95
  -1  -7   6  403.27   13.99
  -1  -7   6  343.38   11.91
  -1  -7   6  368.16   12.72
  -1  -7   6  360.70   12.84
  -1  -7   6  365.90   14.14
  -1  -7   5  217.68    9.07
  -1  -7   5  232.45    9.34
  -1  -7   5  211.03    9.93
  -1  -7   5  231.62    9.21
  -1  -7   5  208.92    8.42
  -1  -7   5  203.17    8.18
  -1  -7   5  200.21    9.49
  -1  -7   4    1.64    0.73
  -1  -7   4    0.58    0.58
  -1  -7   4    0.71    0.61
  -1  -7   4    0.39    0.42
  -1  -7   4    2.64    0.85
  -1  -7   4    0.48    0.43
  -1  -7   4    0.56    0.70
  -1  -7   3   19.95    2.63
  -1  -7   3   19.80    2.06
  -1  -7   3   22.20    2.17
  -1  -7   3   19.62    1.96
   1   7  -2   26.57    2.53
  -1  -7   2   26.94    2.38
   1   7  -1  245.08    9.61
  -1  -7   1  239.60    9.16
   1   7   0   98.93    5.16
   1   7   0  100.52    6.17
  -1  -7   0  109.31    5.81
  -1  -7   0   95.61    4.95
   1   7   1  227.57    9.18
   1   7   1  214.67   10.08
  -1  -7  -1  227.98    9.65
  -1  -7  -1  231.34    8.66
   1   7   2   14.84    1.90
   1   7   2   11.70    1.96
  -1  -7  -2   11.37    1.80
  -1  -7  -2   10.70    1.80
   1   7   3  154.95    7.04
  -1  -7  -3  150.52    7.20
   1   7   4  118.65    5.76
  -1  -7  -4  117.19    5.76
   1   7   5  421.81   13.14
  -1  -7  -5  371.19   12.60
   1   7   6    0.52    0.37
  -1  -8  13   42.85    2.35
   1   8 -13   59.13    2.73
  -1  -8  12  239.56    8.77
  -1  -8  12  256.43    9.30
  -1  -8  12  272.49    9.61
  -1  -8  11   71.43    4.48
  -1  -8  11   75.61    4.01
  -1  -8  11   84.91    4.84
  -1  -8  10   13.42    2.10
  -1  -8  10   10.97    1.46
  -1  -8  10   12.81    1.97
  -1  -8   9  109.35    6.56
  -1  -8   9  104.19    5.06
  -1  -8   9  114.28    6.37
  -1  -8   8    1.24    0.81
  -1  -8   8    2.42    1.01
  -1  -8   8    1.93    0.62
  -1  -8   7  126.05    7.22
  -1  -8   7  134.61    7.90
  -1  -8   7  124.11    5.50
  -1  -8   7  142.65    7.29
  -1  -8   7  137.75    6.66
  -1  -8   7  138.98    7.45
  -1  -8   6   35.60    3.18
  -1  -8   6   30.46    3.13
  -1  -8   6   34.91    3.76
  -1  -8   6   44.10    3.66
  -1  -8   6   35.63    2.83
  -1  -8   6   32.56    3.51
  -1  -8   5  318.43   12.23
  -1  -8   5  297.19   12.97
  -1  -8   5  335.65   12.12
  -1  -8   5  290.38   12.80
  -1  -8   5  295.35   10.90
  -1  -8   5  306.10   11.55
  -1  -8   4  150.53    7.60
  -1  -8   4  151.50    8.20
  -1  -8   4  151.50    6.99
  -1  -8   4  145.40    8.12
  -1  -8   4  145.00    6.46
  -1  -8   4  148.56    6.90
   1   8  -3  262.34   10.64
  -1  -8   3  263.94   11.35
  -1  -8   3  272.68    9.88
  -1  -8   3  254.67   11.81
  -1  -8   3  281.02   10.44
  -1  -8   2  154.34    6.91
  -1  -8   2  146.38    6.40
  -1  -8   1  504.37   18.48
  -1  -8   1  499.34   16.38
   1   8   0  138.13    7.62
   1   8   0  144.02    6.54
  -1  -8   0  158.32    8.01
  -1  -8   0  153.32    6.48
   1   8   1   65.73    4.04
  -1  -8  -1   68.48    4.68
   1   8   2   15.94    1.87
  -1  -8  -2   16.91    1.96
  -1  -8  -3   24.23    2.37
   1   8   3   21.11    2.03
   1   8   4  158.70    6.10
  -1  -8  -4  159.94    6.15
   1   8   5   42.40    2.08
  -1  -9  12   78.07    3.57
  -1  -9  12   74.73    3.66
  -1  -9  12   87.22    4.05
  -1  -9  11   96.68    4.99
  -1  -9  11  108.97    5.28
  -1  -9  11   97.49    4.69
  -1  -9  10   78.36    4.88
  -1  -9  10   85.20    4.93
  -1  -9  10   73.77    4.12
  -1  -9   9   49.87    4.05
  -1  -9   8  153.84    8.08
  -1  -9   8  164.71    7.91
  -1  -9   7  120.69    6.44
  -1  -9   7  105.84    6.43
  -1  -9   6    1.20    0.68
  -1  -9   6    0.22    0.39
  -1  -9   6    0.12    0.42
  -1  -9   6    1.54    0.89
  -1  -9   6    0.57    0.44
  -1  -9   5   24.23    2.71
  -1  -9   5   22.35    2.46
  -1  -9   5   20.84    2.02
  -1  -9   5   22.56    2.42
  -1  -9   5   18.51    2.73
  -1  -9   4    5.11    1.17
  -1  -9   4    4.80    1.34
  -1  -9   4    5.43    1.11
  -1  -9   4    5.33    1.54
  -1  -9   4    3.45    0.81
  -1  -9   3    1.80    0.87
  -1  -9   3    1.66    0.99
  -1  -9   2  165.20    8.25
  -1  -9   2  168.87    8.70
  -1  -9   2  159.04    7.05
  -1  -9   1  441.32   16.27
  -1  -9   1  429.55   14.32
  -1  -9   1  468.63   16.59
  -1  -9   0  305.63   12.26
  -1  -9   0  322.87   12.13
  -1  -9  -1   86.57    4.61
   1   9   2   96.14    4.08
  -1  -9  -2  119.36    5.25
  -1  -9  -3    0.34    0.33
  -1 -10  12   14.34    1.24
  -1 -10  11    4.43    0.84
  -1 -10  11    4.78    0.92
  -1 -10  10    6.82    1.22
  -1 -10   9    2.26    0.85
  -1 -10   9    3.45    1.00
  -1 -10   8   75.97    4.55
  -1 -10   7   59.69    4.31
  -1 -10   7   60.91    3.99
  -1 -10   6  138.10    6.25
  -1 -10   6  145.52    7.17
  -1 -10   6  137.05    6.33
  -1 -10   6  153.39    7.57
  -1 -10   5  108.26    5.81
  -1 -10   5   95.93    5.30
  -1 -10   5  113.44    5.57
  -1 -10   5  105.05    6.29
  -1 -10   4   93.01    5.10
  -1 -10   4   94.82    5.37
  -1 -10   4  104.62    6.19
  -1 -10   4  105.14    5.19
  -1 -10   3   37.82    3.23
  -1 -10   3   40.63    2.85
  -1 -10   2   65.84    4.27
  -1 -10   2   60.50    3.37
  -1 -10   2   71.07    4.60
  -1 -10   1    3.28    1.01
  -1 -10   1    2.37    0.89
  -1 -10   0   13.03    1.61
  -1 -11  10   10.80    1.12
  -1 -11  10    9.05    1.01
  -1 -11   9  184.14    6.64
  -1 -11   8   30.84    2.30
  -1 -11   8   26.28    1.91
  -1 -11   7   39.54    2.77
  -1 -11   6    9.19    1.26
  -1 -11   5    5.65    0.86
  -1 -11   4   57.58    3.12
  -1 -11   3    7.06    1.05
  -1 -11   2   37.67    2.33
   2 -12   5    7.96    0.91
   2 -11   0   13.49    1.36
   2 -11   0   18.02    1.70
   2 -11   1   37.05    2.46
   2 -11   1   43.10    2.30
   2 -11   2   29.40    1.99
   2 -11   2   31.70    2.67
   2 -11   3   38.94    2.49
   2 -11   3   39.17    3.09
   2 -11   4  149.44    5.90
   2 -11   4  141.07    6.53
   2 -11   5  383.42   12.08
   2 -11   5  356.78   12.49
   2 -11   6   27.29    2.06
   2 -11   6   21.41    1.87
   2 -11   7    2.94    0.74
   2 -11   8    1.35    0.56
   2 -11   8    0.84    0.48
   2 -11   9   22.69    1.64
   2 -11   9   24.95    1.79
   2 -10  -3    6.73    0.94
  -2  10   2    4.13    0.71
   2 -10  -2    3.31    0.63
   2 -10  -2    5.51    0.98
   2 -10  -1  126.44    5.13
   2 -10  -1  128.47    5.85
   2 -10   0  107.84    5.11
   2 -10   1   40.69    2.98
   2 -10   2    5.54    1.21
   2 -10   2    4.52    1.07
   2 -10   3   14.44    1.82
   2 -10   3   13.36    2.12
   2 -10   4  263.87    9.73
   2 -10   4  291.08   11.39
   2 -10   4  281.59   10.45
   2 -10   5  136.55    5.62
   2 -10   5  151.92    6.45
   2 -10   5  135.10    6.83
   2 -10   5  146.82    6.60
   2 -10   6  105.26    5.25
   2 -10   6  106.80    4.63
   2 -10   6  102.04    5.21
   2 -10   6   91.41    5.10
   2 -10   7  238.16    8.89
   2 -10   7  212.57    7.84
   2 -10   8   86.50    3.99
   2 -10   9   38.44    2.73
   2 -10   9   37.11    2.69
   2 -10   9   39.13    2.33
   2 -10  10   40.57    2.15
   2 -10  10   41.71    2.53
   2 -10  11    1.76    0.43
   2  -9  -5   53.07    2.62
  -2   9   5   44.43    2.42
  -2   9   4    5.47    0.98
   2  -9  -4    5.75    0.85
  -2   9   3   45.78    3.20
   2  -9  -3   49.62    3.09
  -2   9   2   19.24    2.16
   2  -9  -2   22.36    2.24
  -2   9   1   21.54    2.32
   2  -9  -1   23.97    2.43
  -2   9   0   20.07    2.20
   2  -9   0   17.96    2.16
  -2   9  -1  189.81    7.84
   2  -9   1  181.24    6.86
  -2   9  -2   83.25    5.44
   2  -9   2   79.13    4.02
  -2   9  -3   25.74    3.00
   2  -9   3   23.66    2.18
   2  -9   3   25.77    2.17
   2  -9   3   26.76    2.71
  -2   9  -4   71.60    5.19
   2  -9   4   65.62    5.00
   2  -9   4   75.55    4.23
   2  -9   4   72.16    3.94
   2  -9   4   69.66    4.53
   2  -9   5  126.21    7.24
   2  -9   5  136.65    6.29
   2  -9   5  136.35    5.93
   2  -9   5  127.25    6.79
   2  -9   5  125.27    6.42
   2  -9   6   22.78    2.14
   2  -9   6   26.62    2.54
   2  -9   6   20.67    2.36
   2  -9   6   21.37    2.36
   2  -9   7    3.97    0.93
   2  -9   7    4.24    0.85
   2  -9   8   41.81    2.91
   2  -9   8   43.39    3.24
   2  -9   9   29.48    2.66
   2  -9   9   34.09    2.76
   2  -9   9   33.24    2.44
   2  -9  10  144.96    6.23
   2  -9  10  155.04    6.01
   2  -9  11  116.19    4.48
   2  -9  11   97.84    4.37
   2  -9  12  175.18    5.79
  -2   8   6   30.48    2.20
   2  -8  -6   26.00    1.74
  -2   8   5   59.09    3.71
   2  -8  -5   53.69    3.26
  -2   8   4  195.86    8.60
   2  -8  -4  203.69    8.32
  -2   8   3  152.69    7.67
   2  -8  -3  174.25    7.74
  -2   8   2    4.47    1.24
   2  -8  -2    5.31    1.28
  -2   8   1  108.26    5.94
  -2   8   1   99.45    6.44
  -2   8   1  101.20    6.00
   2  -8  -1  102.49    4.78
   2  -8  -1  103.25    5.80
  -2   8   0    3.66    1.02
  -2   8   0    2.82    1.06
  -2   8   0    4.01    1.19
   2  -8   0    3.67    0.86
   2  -8   0    2.44    0.92
  -2   8  -1   90.38    5.09
  -2   8  -1  100.29    5.95
   2  -8   1   89.81    4.54
   2  -8   1   95.09    5.45
  -2   8  -2   33.25    3.35
   2  -8   2   34.66    2.60
   2  -8   2   35.12    2.52
  -2   8  -3    3.54    1.12
   2  -8   3    2.57    0.96
   2  -8   3    3.66    0.89
   2  -8   3    3.13    0.79
   2  -8   4  256.78   10.97
   2  -8   4  235.76    9.14
   2  -8   4  268.16    9.52
   2  -8   4  243.91    9.97
   2  -8   5  138.35    6.24
   2  -8   5  150.68    6.51
   2  -8   5  133.34    7.14
   2  -8   5  145.75    7.81
   2  -8   6  486.67   15.80
   2  -8   6  448.21   17.16
  -2   8  -6  474.56   18.40
   2  -8   7  168.87    7.16
   2  -8   7  176.95    7.45
   2  -8   7  185.54    7.73
   2  -8   7  184.06    9.31
   2  -8   7  173.02    8.78
   2  -8   8   66.41    3.79
   2  -8   8   65.12    4.01
   2  -8   9   52.82    3.74
   2  -8   9   57.59    3.24
   2  -8   9   54.55    3.63
   2  -8  10   20.61    2.06
   2  -8  11   69.35    3.60
   2  -8  11   80.58    3.87
  -2   8 -12   13.35    1.33
  -2   7   8  186.76    6.35
   2  -7  -7   21.35    1.79
  -2   7   6   54.83    3.81
   2  -7  -6   53.99    3.55
  -2   7   5   47.01    3.75
   2  -7  -5   42.58    3.43
  -2   7   4    0.93    0.63
  -2   7   4    1.22    0.76
  -2   7   4    0.53    0.63
   2  -7  -4    0.50    0.57
  -2   7   3   11.27    1.92
   2  -7  -3   12.03    1.97
  -2   7   2   86.95    5.36
  -2   7   2   87.30    5.34
   2  -7  -2   85.11    5.27
  -2   7   1  372.11   13.95
  -2   7   1  386.40   14.73
  -2   7   1  366.20   13.55
   2  -7  -1  380.75   13.76
  -2   7   0  269.90   11.03
  -2   7   0  280.07   10.58
   2  -7   0  271.60   10.63
  -2   7  -1  251.89    9.38
  -2   7  -1  257.17   10.29
   2  -7   1  235.63    8.80
   2  -7   1  231.12    8.13
   2  -7   1  240.64    9.53
   2  -7   1  236.91    9.43
   2  -7   2  525.65   17.15
   2  -7   2  488.13   15.59
   2  -7   2  485.98   16.42
   2  -7   2  490.77   16.33
   2  -7   3   28.34    2.81
   2  -7   3   23.76    2.28
   2  -7   3   24.77    2.10
   2  -7   4   15.81    2.21
   2  -7   4   12.39    1.69
   2  -7   4   12.95    1.56
   2  -7   5    4.29    1.21
   2  -7   5    5.40    1.20
   2  -7   5    5.63    1.04
   2  -7   6   41.04    3.46
   2  -7   6   41.78    3.88
  -2   7  -6   42.39    4.09
   2  -7   6   38.27    2.87
   2  -7   6   36.82    2.81
   2  -7   6   41.41    3.23
  -2   7  -7    1.13    0.70
   2  -7   7    0.16    0.47
   2  -7   7    0.92    0.69
   2  -7   7    0.95    0.57
   2  -7   7    1.26    0.64
   2  -7   7    0.97    0.52
   2  -7   7    1.60    0.76
   2  -7   8  128.64    7.74
   2  -7   8  128.48    7.10
   2  -7   8  126.16    5.94
   2  -7   8  138.75    6.22
   2  -7   9   51.54    4.26
   2  -7   9   53.30    3.54
   2  -7   9   50.94    3.47
   2  -7   9   49.76    3.26
   2  -7  10   63.64    3.77
   2  -7  10   71.32    4.01
   2  -7  10   61.61    3.49
   2  -7  11  116.04    5.07
   2  -7  11  104.93    4.42
  -2   7 -11  119.30    5.50
  -2   7 -12  185.61    7.02
   2  -7  13   40.44    2.07
  -2   7 -13   60.87    2.49
  -2   6   9    2.23    0.50
   2  -6  -9    1.31    0.36
   2  -6  -9    1.50    0.50
  -2   6   8   18.40    1.87
   2  -6  -8   18.63    1.99
   2  -6  -8   17.63    1.75
   2  -6  -7  158.62    7.56
   2  -6  -7  158.60    7.18
   2  -6  -6  266.23   11.32
  -2   6   5  363.97   13.90
   2  -6  -5  389.62   14.53
  -2   6   5  355.24   14.43
  -2   6   5  345.23   14.21
  -2   6   4  205.58    9.55
  -2   6   4  230.14   10.39
  -2   6   4  219.23   10.21
   2  -6  -4  227.92   10.09
  -2   6   3  591.44   20.52
   2  -6  -3  652.55   21.25
   2  -6  -3  656.87   20.89
  -2   6   2   53.43    3.77
  -2   6   2   52.02    3.82
   2  -6  -2   50.67    3.84
   2  -6  -2   53.62    3.80
  -2   6   1   45.74    3.32
  -2   6   1   46.31    3.44
   2  -6  -1   44.68    3.43
   2  -6  -1   42.20    3.21
  -2   6   0   36.55    2.98
   2  -6   0   30.76    2.60
  -2   6  -1  148.34    6.80
   2  -6   1  146.31    6.57
   2  -6   2   32.26    2.68
   2  -6   2   27.20    2.06
   2  -6   3   57.63    3.34
   2  -6   3   63.97    4.01
   2  -6   4  284.75   10.86
   2  -6   4  273.31    9.47
   2  -6   4  270.33    9.92
  -2   6  -5  178.59    8.88
   2  -6   5  183.55    8.32
   2  -6   5  167.19    6.79
   2  -6   5  174.11    7.27
  -2   6  -6   97.33    6.22
   2  -6   6   99.07    5.33
   2  -6   6   99.63    6.09
   2  -6   6  101.00    5.19
   2  -6   7  209.14    8.90
   2  -6   7  211.86   10.04
  -2   6  -7  211.14    9.84
   2  -6   7  200.45    8.12
   2  -6   7  199.29    8.08
  -2   6  -8  331.27   13.82
   2  -6   8  386.23   15.16
   2  -6   8  380.51   12.37
   2  -6   8  362.49   12.59
   2  -6   8  336.16   12.31
   2  -6   9  104.04    6.10
   2  -6   9  116.70    7.25
   2  -6   9   99.74    5.17
   2  -6   9  108.68    5.48
   2  -6   9  110.83    5.26
   2  -6  10    3.75    0.89
   2  -6  10    3.22    0.89
   2  -6  10    3.47    0.84
   2  -6  11  191.44    7.25
   2  -6  11  199.28    7.71
  -2   6 -11  189.11    8.06
   2  -6  12    3.98    0.69
  -2   6 -12    4.38    0.92
  -2   6 -13  131.69    4.85
   2  -5 -10   78.07    2.99
   2  -5 -10   73.88    2.51
  -2   5   9   90.07    4.45
   2  -5  -9   90.97    4.81
  -2   5   8  238.20    9.62
   2  -5  -8  242.47   10.12
  -2   5   7  141.56    7.21
   2  -5  -7  150.99    7.78
   2  -5  -7  148.49    7.02
  -2   5   6   40.37    3.86
  -2   5   6   43.07    3.62
   2  -5  -6   37.90    3.66
   2  -5  -6   39.98    3.42
  -2   5   5   43.48    3.90
  -2   5   5   41.09    3.88
   2  -5  -5   48.24    3.98
   2  -5  -5   39.19    3.38
  -2   5   4  241.31   10.10
   2  -5  -4  253.29    9.97
   2  -5  -4  252.98   10.43
  -2   5   3   96.52    5.24
  -2   5   3   96.09    5.22
   2  -5  -3  105.90    5.60
  -2   5   2  750.34   23.01
  -2   5   1  129.77    5.90
   2  -5   0  163.76    6.47
  -2   5   0  161.85    6.80
   2  -5   1  532.76   16.46
   2  -5   2 1810.78   49.79
   2  -5   3   12.08    1.53
   2  -5   4  299.92   11.02
   2  -5   5    0.45    0.46
  -2   5  -5    7.89    1.55
   2  -5   6   91.00    5.50
  -2   5  -6   85.27    5.46
   2  -5   6   82.33    4.16
   2  -5   6   79.51    4.36
   2  -5   7  291.42   12.03
  -2   5  -7  273.22   11.57
   2  -5   7  272.95    9.87
   2  -5   7  268.14    9.99
   2  -5   8  237.86   10.86
   2  -5   8  227.10    9.21
   2  -5   8  203.55    8.40
   2  -5   8  210.74    8.02
   2  -5   8  217.59    8.53
   2  -5   9  719.54   24.18
   2  -5   9  706.04   22.16
   2  -5   9  669.51   21.02
   2  -5   9  683.32   21.14
   2  -5   9  658.60   20.38
   2  -5  10   18.48    2.03
   2  -5  10   15.89    1.81
  -2   5 -10   16.28    2.15
   2  -5  11   50.15    3.29
   2  -5  11   52.53    3.20
  -2   5 -11   51.28    3.64
   2  -5  12   29.52    2.05
  -2   5 -12   27.32    2.28
  -2   5 -13   31.92    1.94
  -2   5 -13   32.18    1.91
   2  -4 -11   13.45    1.27
   2  -4 -11   12.76    1.11
  -2   4  10    1.60    0.52
   2  -4 -10    1.89    0.71
  -2   4   9  104.19    5.24
   2  -4  -9   94.55    5.56
  -2   4   8  305.99   11.50
   2  -4  -8  296.08   12.17
   2  -4  -8  288.20   11.12
  -2   4   7  126.37    7.28
  -2   4   7  140.54    6.95
   2  -4  -7  144.37    7.57
   2  -4  -7  131.33    6.66
  -2   4   6  269.48   11.39
  -2   4   6  271.00   10.76
   2  -4  -6  287.59   11.42
   2  -4  -6  253.10   10.37
  -2   4   5  426.54   15.32
  -2   4   5  410.98   15.12
  -2   4   5  414.33   14.55
   2  -4  -5  392.17   14.07
   2  -4  -5  434.99   14.97
   2  -4  -4  916.71   27.62
  -2   4   3   24.12    2.16
  -2   4   2   43.59    3.02
  -2   4   2   41.46    2.76
  -2   4   1   72.39    3.70
   2  -4   0   82.88    3.64
   2  -4   1  652.77   18.90
   2  -4   2  514.98   15.53
   2  -4   3  602.90   18.27
  -2   4  -4 1046.03   31.82
   2  -4   4 1098.71   31.16
   2  -4   5  368.13   12.90
  -2   4  -5  351.48   13.23
   2  -4   6  750.55   23.24
  -2   4  -6  762.12   23.43
   2  -4   6  700.45   21.37
   2  -4   6  699.11   21.10
  -2   4  -7   24.45    2.77
   2  -4   7   26.94    2.97
   2  -4   7   25.50    2.16
   2  -4   7   23.01    2.17
   2  -4   8    1.59    0.64
   2  -4   8    0.08    0.34
   2  -4   9    9.93    2.03
   2  -4   9    9.17    1.53
   2  -4   9   10.96    1.55
   2  -4   9   10.52    1.51
  -2   4  -9   10.87    1.78
   2  -4  10   74.81    4.28
   2  -4  10   69.83    4.13
  -2   4 -10   69.78    4.61
   2  -4  11   75.91    4.11
  -2   4 -11   78.18    4.59
   2  -4  12   71.30    3.57
  -2   4 -12   71.31    3.88
  -2   4 -13   37.22    2.08
  -2   4 -13   39.43    2.16
   2  -3 -12  207.72    6.28
   2  -3 -12  169.75    5.89
   2  -3 -11  176.90    7.14
  -2   3  10   72.16    4.00
   2  -3 -10   85.56    4.97
  -2   3   9   15.00    1.89
   2  -3  -9   12.37    2.01
   2  -3  -9   10.99    1.63
  -2   3   8   20.12    2.72
  -2   3   8   22.56    2.39
   2  -3  -8   23.16    2.77
   2  -3  -8   21.50    2.38
  -2   3   7   76.17    5.17
  -2   3   7   70.53    4.47
  -2   3   7   84.50    4.81
   2  -3  -7   77.96    4.63
   2  -3  -7   80.30    5.11
  -2   3   6   54.26    4.07
  -2   3   6   56.05    3.78
   2  -3  -6   56.23    3.99
  -2   3   5   12.92    1.81
  -2   3   5   10.84    1.65
  -2   3   4  533.27   17.09
  -2   3   3  161.22    6.32
  -2   3   2 1370.16   38.34
  -2   3   2 1401.05   38.19
  -2   3   1  340.53   10.67
   2  -3   0 2316.56   61.39
   2  -3   1  545.03   15.56
   2  -3   2   24.01    1.65
  -2   3  -3   11.13    1.46
  -2   3  -4   22.54    2.21
   2  -3   4   20.31    1.96
   2  -3   5  274.09   10.47
  -2   3  -5  280.29   10.63
   2  -3   6   94.47    5.45
  -2   3  -6   85.21    5.20
   2  -3   7  564.28   19.05
   2  -3   7  520.02   16.46
   2  -3   8  475.71   15.34
  -2   3  -8  452.13   16.15
   2  -3   9  379.16   13.46
   2  -3   9  399.23   13.47
  -2   3  -9  404.61   14.44
  -2   3 -10   36.52    3.22
  -2   3 -11  105.20    5.51
   2  -3  12   21.55    1.79
  -2   3 -12   18.44    1.81
  -2   3 -13    3.81    0.59
   2  -2 -12    1.21    0.52
   2  -2 -11   23.19    2.36
  -2   2  10  144.18    6.26
   2  -2 -10  150.40    7.39
  -2   2   9   62.17    3.84
   2  -2  -9   51.00    3.67
   2  -2  -9   56.81    4.28
  -2   2   8   14.10    1.90
  -2   2   8    9.81    1.84
  -2   2   8   11.01    1.60
   2  -2  -8   13.68    1.99
   2  -2  -8   10.67    1.61
  -2   2   7  401.01   14.62
  -2   2   7  401.87   13.74
  -2   2   7  395.73   13.49
   2  -2  -7  385.75   13.97
  -2   2   6  378.60   12.73
  -2   2   6  376.17   13.41
  -2   2   5   38.31    2.87
  -2   2   4  824.52   24.10
  -2   2   3   40.13    2.45
  -2   2   2    1.19    0.25
  -2   2   2    1.20    0.38
  -2   2   2    1.11    0.37
   2  -2   0 2713.22   71.12
   2  -2   1 2312.87   61.24
  -2   2  -2  441.44   13.90
   2  -2   2  447.95   13.27
  -2   2  -3  462.99   14.96
   2  -2   3  480.91   14.59
   2  -2   4  358.87   12.58
  -2   2  -4  401.59   12.98
  -2   2  -5  597.62   19.02
   2  -2   5  586.74   18.99
   2  -2   6  157.35    7.58
   2  -2   7   91.80    5.79
   2  -2   7   83.65    4.21
   2  -2   7   90.23    4.55
   2  -2   8   55.14    4.62
   2  -2   8   52.56    3.50
   2  -2   8   56.19    3.44
  -2   2  -8   52.49    3.89
   2  -2   9   57.97    3.82
  -2   2  -9   63.59    4.40
   2  -2  10  316.03   11.45
  -2   2 -10  316.68   12.12
  -2   2 -11  158.71    7.03
  -2   2 -12  190.66    7.09
   2  -1 -13   26.19    1.75
   2  -1 -12  130.05    5.88
   2  -1 -11  452.96   15.68
   2  -1 -10   55.67    3.67
   2  -1 -10   48.43    3.84
  -2   1   9   69.02    4.54
  -2   1   9   70.36    3.96
   2  -1  -9   67.13    4.19
   2  -1  -9   70.22    4.63
  -2   1   8   27.36    2.97
  -2   1   8   27.36    2.65
  -2   1   8   26.14    2.30
   2  -1  -8   27.05    2.63
  -2   1   7   11.18    1.72
  -2   1   7   10.88    1.53
   2  -1  -7   13.85    1.71
  -2   1   6   50.35    3.42
  -2   1   6   53.01    3.15
  -2   1   5 1819.61   47.63
  -2   1   5 1663.65   46.91
  -2   1   5 1812.03   48.22
  -2   1   4  561.68   16.35
  -2   1   4  575.95   16.49
  -2   1   4  607.70   17.17
  -2   1   3  506.21   14.69
  -2   1   3  516.32   15.02
  -2   1   3  531.38   15.45
  -2   1   3  516.31   15.27
  -2   1   3  566.40   14.44
  -2   1   2    6.75    0.69
  -2   1   2    5.79    0.66
  -2   1   2    5.63    0.34
  -2   1   2    6.93    0.69
  -2   1   1 1483.17   38.57
  -2   1   1 1426.63   38.12
  -2   1   1 1519.33   38.76
  -2   1   0  782.47   20.90
   2  -1   0  774.86   20.86
   2  -1   1  113.66    4.07
   2  -1   2   13.76    1.06
   2  -1   2   11.83    1.18
  -2   1  -2   13.63    1.35
   2  -1   3    4.23    0.73
   2  -1   3    4.18    0.83
   2  -1   4   33.00    2.37
   2  -1   4   29.89    2.47
   2  -1   5  725.06   22.60
   2  -1   5  765.82   23.27
   2  -1   6  303.81   11.94
   2  -1   6  299.93   10.33
   2  -1   7  445.68   14.46
   2  -1   7  416.85   13.90
  -2   1  -7  440.27   15.20
   2  -1   8  613.81   19.61
  -2   1  -8  636.96   20.63
   2  -1   9  499.86   19.16
   2  -1   9  545.25   17.40
  -2   1  -9  531.74   18.14
   2  -1  10  108.74    5.42
  -2   1 -10  107.30    5.82
  -2   1 -11    1.10    0.60
  -2   1 -11    0.80    0.53
  -2   1 -12   34.08    2.11
  -2   1 -12   31.30    2.02
   2   0 -13    2.61    0.66
  -2   0  12    1.68    0.58
   2   0 -12    2.13    0.77
   2   0 -11   82.28    4.93
   2   0 -11   76.74    4.35
   2   0 -10   67.15    4.51
   2   0 -10   70.80    4.28
  -2   0   9  405.37   14.71
   2   0  -9  417.64   14.07
  -2   0   8 1185.25   34.00
  -2   0   8 1126.42   33.24
  -2   0   7  193.27    7.63
  -2   0   7  176.91    7.01
  -2   0   6   14.07    1.71
  -2   0   6   17.80    1.69
  -2   0   6   18.48    1.67
  -2   0   5  177.51    6.04
  -2   0   5  162.50    6.29
  -2   0   4  299.93    9.71
  -2   0   4  315.04    9.77
  -2   0   4  312.44    9.32
  -2   0   3  328.91    9.68
  -2   0   3  347.67   10.21
  -2   0   2   42.89    1.52
  -2   0   2   44.06    2.14
  -2   0   1   12.01    0.80
  -2   0   0  150.89    5.04
  -2   0  -1  625.83   17.98
   2   0   2   98.60    4.02
   2   0   3 2340.82   63.16
   2   0   4  267.70    9.63
   2   0   5  270.22   10.44
   2   0   5  288.84   11.04
   2   0   6    3.44    1.05
   2   0   6    2.70    1.01
   2   0   6    3.52    0.82
   2   0   7   54.19    4.35
   2   0   7   58.68    3.68
  -2   0  -7   59.52    4.15
   2   0   8  585.31   18.84
  -2   0  -8  587.18   19.71
   2   0   9   13.63    1.82
  -2   0  -9   13.85    1.93
  -2   0  -9   13.33    1.98
  -2   0 -10  175.12    7.47
  -2   0 -10  167.28    7.54
  -2   0 -11  120.48    5.15
  -2   0 -11  114.89    5.18
  -2   0 -12   72.74    2.90
  -2  -1  14  247.23    7.61
   2   1 -14  207.14    6.85
  -2  -1  13  155.80    6.19
   2   1 -13  155.69    6.32
   2   1 -12  122.28    5.98
  -2  -1  11  141.30    7.49
   2   1 -11  138.71    6.44
   2   1 -11  146.63    6.96
  -2  -1  10  291.99   10.87
  -2  -1  10  285.94   10.79
   2   1 -10  286.35   10.74
  -2  -1   9    0.53    0.44
   2   1  -9   -0.09    0.31
  -2  -1   8   12.61    1.69
  -2  -1   8   13.36    1.55
  -2  -1   7  356.65   12.34
  -2  -1   6   45.38    2.95
  -2  -1   6   60.65    3.60
  -2  -1   5  557.58   17.29
  -2  -1   4  598.84   17.05
  -2  -1   3 1954.18   53.18
  -2  -1   3 2045.79   53.70
  -2  -1   3 2012.35   53.07
  -2  -1   2  358.90   10.24
  -2  -1   1   87.33    3.17
  -2  -1   0    1.16    0.48
   2   1   1    0.21    0.15
   2   1   2  435.95   12.77
   2   1   3  596.90   18.41
   2   1   4   32.55    2.72
   2   1   5   44.94    3.54
   2   1   5   47.74    2.96
   2   1   6  604.95   20.78
   2   1   6  632.07   19.32
  -2  -1  -6  623.50   20.27
   2   1   7   23.08    2.90
   2   1   7   29.59    2.60
  -2  -1  -7   26.35    2.81
  -2  -1  -7   27.31    2.69
   2   1   8  363.28   14.57
   2   1   8  354.28   12.71
  -2  -1  -8  347.78   13.03
  -2  -1  -8  350.90   13.43
  -2  -1  -9   58.13    4.10
  -2  -1  -9   59.42    3.99
   2   1  10    9.01    1.07
  -2  -1 -10    8.05    1.30
  -2  -1 -10    8.25    1.30
  -2  -1 -11    0.51    0.34
  -2  -1 -11    0.14    0.25
  -2  -2  14   15.87    1.37
  -2  -2  14   15.08    1.42
   2   2 -14   14.99    1.24
   2   2 -13    4.19    0.89
  -2  -2  12  233.48    8.84
   2   2 -12  208.08    8.39
   2   2 -12  232.80    9.04
  -2  -2  11  102.50    6.40
  -2  -2  11  107.91    5.70
   2   2 -11  105.79    5.43
  -2  -2  10  222.60   10.21
  -2  -2  10  222.64    8.74
   2   2 -10  230.77    9.04
  -2  -2   9  303.08   12.07
  -2  -2   9  322.24   12.65
  -2  -2   9  334.97   11.16
   2   2  -9  314.28   11.27
  -2  -2   8  955.02   28.05
  -2  -2   8  858.87   27.55
  -2  -2   7  753.50   22.54
  -2  -2   7  649.09   21.28
  -2  -2   6  216.55    8.61
  -2  -2   6  290.33   10.70
  -2  -2   5  288.15   10.10
  -2  -2   5  233.73    8.52
  -2  -2   4  314.52    9.94
  -2  -2   3    7.42    0.83
  -2  -2   3    7.07    0.82
  -2  -2   2  953.50   25.81
  -2  -2   2  929.94   25.75
  -2  -2   2  899.37   25.54
  -2  -2   1 1175.88   32.56
  -2  -2   1 1177.03   32.88
  -2  -2   1 1216.10   32.58
  -2  -2   0  196.16    7.00
  -2  -2   0  203.27    6.57
   2   2   0  190.68    5.69
  -2  -2  -1   34.24    2.40
   2   2   2   70.73    3.37
  -2  -2  -2   67.35    3.72
  -2  -2  -3   60.35    3.59
   2   2   3   69.80    3.55
   2   2   4    0.58    0.58
   2   2   5  126.46    6.80
   2   2   5  126.63    5.65
  -2  -2  -5  122.07    6.28
  -2  -2  -5  114.40    5.82
   2   2   6  108.02    6.44
   2   2   6  109.99    5.49
  -2  -2  -6  102.36    5.67
  -2  -2  -6  111.37    6.17
   2   2   7    6.01    1.57
   2   2   7    3.83    1.24
  -2  -2  -7    5.45    1.14
  -2  -2  -7    3.35    1.01
  -2  -2  -7    4.91    1.27
  -2  -2  -8  236.50   10.01
  -2  -2  -8  235.56    9.66
  -2  -2  -9  404.78   13.80
  -2  -2  -9  416.21   14.20
   2   2  10  193.76    6.47
  -2  -2 -10  198.03    7.27
  -2  -2 -10  187.32    6.91
  -2  -3  14    8.85    1.09
  -2  -3  14   10.24    1.27
   2   3 -14   10.22    1.03
  -2  -3  13  196.31    7.52
   2   3 -13  185.16    7.31
  -2  -3  12  252.56    9.96
   2   3 -12  247.42    9.38
  -2  -3  11   75.69    5.55
  -2  -3  11   77.45    4.26
   2   3 -11   84.65    4.71
  -2  -3  10   51.51    4.25
  -2  -3  10   60.24    4.77
  -2  -3  10   60.62    3.55
   2   3 -10   54.84    3.72
  -2  -3   9   29.76    2.74
  -2  -3   9   28.39    2.58
  -2  -3   9   29.84    3.14
  -2  -3   8  267.61   10.22
  -2  -3   8  262.06   10.76
  -2  -3   8  242.38    9.35
  -2  -3   7  401.17   14.63
  -2  -3   7  479.33   16.55
  -2  -3   6  421.19   14.37
  -2  -3   6  462.42   16.41
  -2  -3   5  909.99   26.35
   2   3  -4  591.12   16.48
  -2  -3   4  638.67   18.08
  -2  -3   3  713.69   21.19
  -2  -3   3  752.55   21.43
  -2  -3   3  740.32   20.84
  -2  -3   2  445.10   13.76
  -2  -3   2  439.09   13.37
  -2  -3   2  460.60   13.62
  -2  -3   1    3.22    0.65
  -2  -3   1    2.37    0.56
  -2  -3   0   36.78    2.28
   2   3   0   36.83    1.81
  -2  -3  -1   13.19    1.34
   2   3   1   12.73    0.98
  -2  -3  -2  325.16   10.53
   2   3   2  338.49   11.21
   2   3   3  117.15    5.52
   2   3   4  623.45   21.21
  -2  -3  -4  621.56   19.83
   2   3   5   84.00    5.70
  -2  -3  -5   89.38    4.98
  -2  -3  -5   84.70    5.33
  -2  -3  -5   86.91    5.12
   2   3   6   26.90    3.14
  -2  -3  -6   28.47    2.62
  -2  -3  -6   31.95    3.20
  -2  -3  -6   29.94    2.87
  -2  -3  -7   13.39    1.63
  -2  -3  -7   12.52    1.86
  -2  -3  -7   11.28    1.89
  -2  -3  -8  242.42    9.46
  -2  -3  -8  252.37   10.01
   2   3   9   10.37    1.18
  -2  -3  -9   12.67    1.51
  -2  -3  -9   12.57    1.38
  -2  -3 -10   10.03    0.92
  -2  -4  14    0.36    0.31
  -2  -4  13    0.30    0.42
  -2  -4  13    0.18    0.45
   2   4 -13    0.32    0.34
   2   4 -13    0.60    0.40
  -2  -4  12  109.52    5.82
   2   4 -12   95.14    4.98
  -2  -4  11  428.17   16.36
  -2  -4  11  443.33   16.94
   2   4 -11  444.66   14.99
  -2  -4  10  481.02   16.37
  -2  -4  10  468.00   16.05
  -2  -4  10  481.86   16.17
  -2  -4  10  459.32   17.51
  -2  -4  10  488.43   18.05
  -2  -4   9  384.16   13.85
  -2  -4   9  367.54   13.21
  -2  -4   9  359.98   12.87
  -2  -4   9  369.61   15.10
  -2  -4   9  382.86   14.80
  -2  -4   8   90.88    5.36
  -2  -4   8   88.92    5.03
  -2  -4   8   90.78    4.66
  -2  -4   8  110.31    6.83
  -2  -4   8  110.99    6.16
  -2  -4   7 1113.00   33.25
  -2  -4   6    8.36    1.41
  -2  -4   6    6.76    1.57
  -2  -4   5   17.31    1.87
  -2  -4   5   20.18    2.31
  -2  -4   4   61.48    3.60
  -2  -4   4   65.86    3.70
  -2  -4   3  219.59    8.39
  -2  -4   3  233.79    8.28
  -2  -4   2  866.03   24.84
  -2  -4   1  697.73   19.93
  -2  -4   1  672.02   19.70
  -2  -4   0  990.15   28.23
   2   4   0 1038.70   28.08
   2   4   1  123.47    5.67
  -2  -4  -2   74.83    3.93
   2   4   2   70.64    4.19
  -2  -4  -2   70.09    4.21
  -2  -4  -3    3.01    0.75
   2   4   3    1.96    0.75
  -2  -4  -3    2.53    0.83
  -2  -4  -3    2.30    0.78
   2   4   4   23.18    2.94
  -2  -4  -4   22.33    2.41
  -2  -4  -4   29.43    3.02
  -2  -4  -4   25.86    2.62
   2   4   5  105.96    6.79
  -2  -4  -5  124.48    6.05
  -2  -4  -5  121.26    6.78
  -2  -4  -5  120.96    6.35
  -2  -4  -6   22.98    2.18
  -2  -4  -6   21.28    2.40
  -2  -4  -6   21.15    2.61
  -2  -4  -7   49.07    3.40
  -2  -4  -7   48.65    3.72
   2   4   8    1.66    0.57
  -2  -4  -8    1.12    0.61
  -2  -4  -8    0.92    0.44
   2   4   9  120.60    4.27
  -2  -5  14   56.18    3.11
  -2  -5  13    5.77    1.18
   2   5 -13    5.54    0.94
  -2  -5  12    2.09    0.92
   2   5 -12    2.45    0.77
  -2  -5  11   91.74    5.24
  -2  -5  11   85.84    5.05
  -2  -5  11   92.51    6.26
  -2  -5  11   91.09    6.20
  -2  -5  10    1.28    0.74
  -2  -5  10    1.77    0.88
  -2  -5  10    1.94    0.75
  -2  -5  10    2.71    1.15
  -2  -5  10    1.54    0.86
  -2  -5   9   95.70    5.87
  -2  -5   9   93.04    6.20
  -2  -5   9  102.01    5.70
  -2  -5   9   97.28    5.08
  -2  -5   8  488.47   17.21
  -2  -5   8  524.47   17.91
  -2  -5   8  479.85   16.76
  -2  -5   8  486.87   15.62
  -2  -5   8  473.09   15.33
  -2  -5   7  281.78   11.10
  -2  -5   7  264.91    9.25
  -2  -5   7  259.76    9.12
  -2  -5   6 1075.29   31.38
  -2  -5   6  996.00   31.21
  -2  -5   5  687.08   20.78
  -2  -5   5  600.51   20.30
  -2  -5   4 1132.24   32.83
  -2  -5   3   37.63    2.70
  -2  -5   2   23.07    1.99
  -2  -5   1   13.31    1.36
   2   5  -1   12.30    1.34
  -2  -5   1   15.58    1.72
  -2  -5   0   39.23    2.96
  -2  -5   0   39.81    3.57
  -2  -5   0   38.91    3.16
  -2  -5   0   42.11    2.81
   2   5   1   35.52    3.03
  -2  -5  -1   37.85    3.02
  -2  -5  -1   34.09    2.76
  -2  -5  -1   38.11    3.31
  -2  -5  -1   35.14    2.64
  -2  -5  -2  429.76   14.60
  -2  -5  -2  400.19   14.21
  -2  -5  -2  433.73   13.73
  -2  -5  -2  424.94   14.45
   2   5   3   55.68    4.07
  -2  -5  -3   64.64    4.20
  -2  -5  -3   64.59    3.59
  -2  -5  -3   57.99    4.07
  -2  -5  -3   58.66    4.60
   2   5   4  149.20    8.42
  -2  -5  -4  162.07    7.23
  -2  -5  -4  161.86    7.53
  -2  -5  -4  153.49    8.12
  -2  -5  -5  330.98   11.50
  -2  -5  -5  327.54   11.43
  -2  -5  -5  323.95   12.89
  -2  -5  -5  311.52   11.90
   2   5   6  213.91    8.21
  -2  -5  -6  201.95    8.15
  -2  -5  -6  208.97    8.99
   2   5   7    3.80    0.81
  -2  -5  -7    4.02    0.93
  -2  -6  14   31.77    2.25
  -2  -6  14   30.43    2.20
  -2  -6  13   18.51    2.06
   2   6 -13   17.46    1.62
  -2  -6  12   51.28    3.43
  -2  -6  12   50.88    3.54
  -2  -6  12   57.02    4.05
   2   6 -12   58.29    3.58
  -2  -6  11  258.52   10.63
  -2  -6  11  263.77   10.57
  -2  -6  10  123.47    6.95
  -2  -6  10  128.92    6.86
  -2  -6  10  130.44    6.20
  -2  -6  10  129.59    7.83
  -2  -6  10  124.45    7.63
  -2  -6   9  269.07   11.50
  -2  -6   9  266.97   11.99
  -2  -6   9  257.06    9.82
  -2  -6   9  261.08   11.01
  -2  -6   8   39.93    3.78
  -2  -6   8   41.48    3.96
  -2  -6   8   48.70    4.55
  -2  -6   8   36.09    3.47
  -2  -6   8   39.12    2.84
  -2  -6   8   34.96    2.78
  -2  -6   7   48.62    4.22
  -2  -6   7   38.74    3.68
  -2  -6   7   37.28    3.48
  -2  -6   7   33.96    2.53
  -2  -6   7   37.79    3.48
  -2  -6   7   37.72    2.76
  -2  -6   6   14.83    1.96
  -2  -6   6   16.01    2.29
  -2  -6   6   17.75    2.36
  -2  -6   6   16.66    2.33
  -2  -6   6   11.64    1.45
  -2  -6   6   12.51    2.02
  -2  -6   5  227.51    9.34
  -2  -6   5  221.84    9.39
  -2  -6   5  237.02    9.65
  -2  -6   5  218.05    9.83
  -2  -6   5  217.59    8.26
  -2  -6   4  750.27   23.04
  -2  -6   4  698.45   22.35
  -2  -6   4  725.55   21.27
  -2  -6   4  764.70   22.62
  -2  -6   4  659.97   23.49
  -2  -6   3  290.80   11.19
  -2  -6   3  281.14    9.54
  -2  -6   3  274.57   10.13
  -2  -6   3  294.68    9.99
   2   6  -2  163.71    6.77
  -2  -6   2  171.40    6.60
  -2  -6   2  176.08    6.99
  -2  -6   2  151.20    8.41
  -2  -6   1  357.05   11.58
  -2  -6   1  340.43   12.57
  -2  -6   1  370.94   12.25
  -2  -6   1  339.49   14.12
  -2  -6   0 1161.38   32.34
  -2  -6   0 1093.76   33.30
  -2  -6   0 1189.30   34.15
  -2  -6   0 1215.53   35.65
  -2  -6   0 1133.88   33.17
   2   6   1  103.72    6.02
  -2  -6  -1  110.40    5.70
  -2  -6  -1  107.94    5.31
  -2  -6  -1  119.37    6.48
   2   6   2    5.43    1.26
  -2  -6  -2    7.06    1.35
  -2  -6  -2    9.32    1.56
  -2  -6  -2    5.93    1.50
  -2  -6  -2    8.29    1.51
  -2  -6  -2    7.20    1.16
   2   6   3    2.51    0.85
   2   6   3    2.00    0.90
  -2  -6  -3    2.54    0.86
  -2  -6  -3    2.74    0.86
  -2  -6  -3    2.01    0.95
   2   6   4    7.78    1.35
  -2  -6  -4    7.04    1.34
  -2  -6  -4    9.03    1.44
  -2  -6  -4    7.31    1.59
   2   6   5   53.93    3.39
   2   6   6   53.99    3.03
   2   6   7  144.23    4.99
  -2  -7  14   49.56    2.56
  -2  -7  14   64.69    3.09
  -2  -7  13   18.32    1.79
  -2  -7  13   15.44    1.50
   2   7 -13   20.64    1.63
  -2  -7  12    7.13    1.25
  -2  -7  12    5.58    1.19
  -2  -7  11   36.13    3.27
  -2  -7  11   37.85    3.31
  -2  -7  11   36.77    3.28
  -2  -7  10  170.86    8.53
  -2  -7  10  166.57    7.11
  -2  -7  10  165.95    8.20
  -2  -7  10  168.09    9.08
  -2  -7   9   39.10    3.87
  -2  -7   9   35.14    3.85
  -2  -7   9   38.20    4.14
  -2  -7   9   41.49    3.74
  -2  -7   9   36.31    2.80
  -2  -7   8  166.89    8.78
  -2  -7   8  168.85    9.03
  -2  -7   8  182.68    9.40
  -2  -7   8  171.00    8.52
  -2  -7   8  153.22    6.65
  -2  -7   8  169.20    7.39
  -2  -7   7  317.16   12.14
  -2  -7   7  323.40   13.37
  -2  -7   7  324.62   13.57
  -2  -7   7  343.37   13.29
  -2  -7   7  314.53   13.05
  -2  -7   7  309.56   11.52
  -2  -7   6  140.57    7.11
  -2  -7   6  146.38    7.55
  -2  -7   6  142.40    6.46
  -2  -7   6  128.68    5.91
  -2  -7   6  135.28    7.65
  -2  -7   5   71.90    4.86
  -2  -7   5   67.06    4.60
  -2  -7   5   80.29    4.98
  -2  -7   5   68.29    5.23
  -2  -7   4  166.28    8.05
  -2  -7   4  144.26    6.99
  -2  -7   4  159.97    7.31
  -2  -7   4  171.17    7.06
  -2  -7   4  145.62    8.32
  -2  -7   3  139.41    7.46
  -2  -7   3  145.24    6.11
  -2  -7   3  127.21    6.24
  -2  -7   3  143.02    6.41
  -2  -7   2    9.93    1.34
  -2  -7   2    8.06    1.72
  -2  -7   2    5.29    1.11
  -2  -7   2    6.23    1.72
  -2  -7   1   62.80    3.90
  -2  -7   1   61.81    5.09
   2   7   0  225.93   10.16
   2   7   0  225.28    8.97
  -2  -7   0  263.74    9.43
  -2  -7   0  257.53   11.07
   2   7   1  336.46   12.19
   2   7   1  313.47   12.94
  -2  -7  -1  337.76   12.37
  -2  -7  -1  377.85   13.61
  -2  -7  -1  382.69   12.12
   2   7   2  177.52    7.46
  -2  -7  -2  185.65    8.60
  -2  -7  -2  165.02    7.30
   2   7   3  334.99   11.82
  -2  -7  -3  346.35   12.46
   2   7   4   16.02    1.69
   2   7   5   83.63    3.76
  -2  -8  14   11.26    0.99
  -2  -8  13   43.25    2.21
  -2  -8  13   51.31    2.91
  -2  -8  13   44.69    2.58
   2   8 -13   44.94    2.23
  -2  -8  12   51.92    3.32
  -2  -8  12   54.10    3.47
  -2  -8  12   56.96    3.58
  -2  -8  11   47.03    3.59
  -2  -8  11   43.38    3.48
  -2  -8  11   43.05    3.30
  -2  -8  10   28.75    3.09
  -2  -8  10   32.14    3.20
  -2  -8  10   30.57    2.88
  -2  -8   9    1.19    0.80
  -2  -8   9    2.20    0.88
  -2  -8   9    1.56    0.89
  -2  -8   9    1.29    0.71
  -2  -8   8   75.12    5.49
  -2  -8   8   83.85    5.98
  -2  -8   8   72.97    5.54
  -2  -8   8   79.90    4.60
  -2  -8   8   77.32    4.68
  -2  -8   7   14.26    2.40
  -2  -8   7   16.26    2.19
  -2  -8   7   17.53    2.48
  -2  -8   7   17.47    2.47
  -2  -8   7   19.98    2.79
  -2  -8   7   16.23    2.00
  -2  -8   6    0.13    0.50
  -2  -8   6    0.54    0.58
  -2  -8   6    0.33    0.80
  -2  -8   5  259.71   11.11
  -2  -8   5  280.19   10.81
  -2  -8   5  237.66   11.59
  -2  -8   5  248.33    9.99
  -2  -8   4  155.80    8.10
  -2  -8   4  147.92    6.99
  -2  -8   4  157.05    7.07
  -2  -8   4  146.33    8.56
  -2  -8   3  322.45   13.55
  -2  -8   3  352.08   12.38
  -2  -8   2  284.44   12.43
  -2  -8   2  305.85   10.96
  -2  -8   2  272.84   12.72
  -2  -8   1  308.18   13.50
  -2  -8   1  348.29   13.93
  -2  -8   1  346.98   11.94
  -2  -8   0   12.58    1.56
  -2  -8   0   13.60    2.09
   2   8   1    5.34    1.01
  -2  -8  -1    6.22    1.44
  -2  -8  -1    6.84    1.31
  -2  -8  -1    7.42    1.04
  -2  -8  -2    3.06    0.99
   2   8   2    2.89    0.75
  -2  -8  -3   34.65    2.41
   2   8   3   31.80    2.11
  -2  -9  12    0.78    0.42
  -2  -9  12    0.77    0.47
  -2  -9  12    0.58    0.35
  -2  -9  11    7.27    1.32
  -2  -9  11    7.23    1.32
  -2  -9  10    0.90    0.63
  -2  -9  10   -0.11    0.54
  -2  -9   9   81.23    4.95
  -2  -9   9   97.93    5.81
  -2  -9   8  475.25   16.87
  -2  -9   7  167.09    7.89
  -2  -9   7  183.07    9.16
  -2  -9   6   55.39    4.47
  -2  -9   6   49.49    3.93
  -2  -9   6   58.88    4.12
  -2  -9   6   50.68    4.52
  -2  -9   6   59.81    3.95
  -2  -9   5    6.43    1.49
  -2  -9   5    5.74    1.24
  -2  -9   5    4.21    1.24
  -2  -9   5    6.17    1.27
  -2  -9   5    6.19    1.75
  -2  -9   4   -0.14    0.45
  -2  -9   4    0.49    0.54
  -2  -9   4    0.34    0.52
  -2  -9   4    0.85    0.88
  -2  -9   3    5.07    1.36
  -2  -9   3    7.19    1.30
  -2  -9   2   10.48    1.93
  -2  -9   2   13.17    1.64
  -2  -9   2   12.14    2.16
  -2  -9   1  327.97   12.71
  -2  -9   1  349.55   12.72
  -2  -9   1  313.18   10.87
  -2  -9   0   17.61    1.48
  -2  -9  -1   75.79    4.15
  -2  -9  -2   50.99    2.70
  -2 -10  12   45.22    2.39
  -2 -10  11    7.98    1.11
  -2 -10  11    9.45    1.24
  -2 -10  10  125.22    5.74
  -2 -10  10  132.06    5.84
  -2 -10   9    0.73    0.47
  -2 -10   9    1.28    0.69
  -2 -10   8   23.00    2.44
  -2 -10   8   27.66    2.69
  -2 -10   8   27.13    2.52
  -2 -10   7   30.01    2.39
  -2 -10   7   37.54    3.13
  -2 -10   7   31.55    2.67
  -2 -10   6   38.83    3.05
  -2 -10   6   43.92    3.35
  -2 -10   6   46.92    3.19
  -2 -10   5   65.78    3.94
  -2 -10   5   66.95    4.22
  -2 -10   5   74.28    4.10
  -2 -10   4  120.61    6.22
  -2 -10   4  142.26    5.97
  -2 -10   3   57.97    3.91
  -2 -10   3   60.63    3.35
  -2 -10   2    2.63    0.61
  -2 -10   2    3.80    1.00
  -2 -10   1    3.49    0.87
  -2 -11   9   63.72    3.07
  -2 -11   8   12.73    1.28
  -2 -11   8   10.85    1.18
  -2 -11   7   93.51    3.81
  -2 -11   7   73.15    3.98
  -2 -11   6   24.60    2.18
  -2 -11   5    8.57    1.00
  -2 -11   4    1.34    0.48
  -2 -11   3    2.30    0.54
  -2 -11   3    1.94    0.49
   3 -11  -1   12.04    1.21
   3 -11   0    2.26    0.51
   3 -11   0    3.26    0.62
   3 -11   1   29.98    2.49
   3 -11   1   30.56    2.08
   3 -11   2   43.76    3.13
   3 -11   2   44.03    2.70
   3 -11   3   34.66    2.40
   3 -11   3   29.15    2.54
   3 -11   4   31.21    2.54
   3 -11   4   34.87    2.43
   3 -11   5   52.21    2.95
   3 -11   5   39.26    2.62
   3 -11   6   51.27    2.86
   3 -11   7   86.16    3.90
   3 -11   7   83.95    3.32
   3 -11   8   11.34    1.20
   3 -11   8   11.39    0.92
   3 -11   8   11.88    1.24
   3 -10  -3  201.08    6.39
   3 -10  -3  196.71    6.58
  -3  10   2   84.13    3.95
  -3  10   1   14.06    1.53
  -3  10   0   13.74    1.56
   3 -10   1   12.88    1.76
   3 -10   2   70.11    3.48
   3 -10   2   74.20    4.37
   3 -10   3   42.51    2.68
   3 -10   3   46.46    3.39
   3 -10   4   51.02    3.18
   3 -10   4   51.36    3.02
   3 -10   4   48.40    3.68
   3 -10   5   39.79    2.82
   3 -10   5   36.32    2.50
   3 -10   6   40.63    2.87
   3 -10   6   35.02    2.46
   3 -10   7  163.11    6.40
   3 -10   7  174.13    6.98
   3 -10   8   43.21    2.55
   3 -10   9  192.12    6.14
   3 -10   9  174.26    6.44
   3 -10  10   36.83    2.14
   3 -10  10   36.92    1.96
  -3  10 -10   38.42    2.10
  -3   9   5   67.29    3.22
   3  -9  -5   55.59    2.72
  -3   9   4  119.36    5.43
   3  -9  -4  116.89    5.13
  -3   9   3   60.11    3.93
   3  -9  -3   68.26    3.99
  -3   9   2   29.60    2.78
   3  -9  -2   31.77    2.81
  -3   9   1  253.57   10.43
   3  -9  -1  265.64    9.14
  -3   9   0  210.63    8.92
   3  -9   0  213.64    7.96
   3  -9   0  221.42    9.24
  -3   9  -1   34.60    2.93
   3  -9   1   35.75    2.62
  -3   9  -2   37.72    3.66
   3  -9   2   45.73    2.88
   3  -9   2   45.24    3.03
   3  -9   3   64.15    3.78
   3  -9   3   65.44    3.72
  -3   9  -4   78.28    5.50
   3  -9   4   86.68    4.51
   3  -9   4   79.92    4.38
   3  -9   5   78.99    4.30
   3  -9   5   85.58    4.53
   3  -9   5   78.43    4.78
   3  -9   5   67.02    4.43
   3  -9   6    8.52    1.38
   3  -9   6    9.45    1.41
   3  -9   6    9.51    1.59
   3  -9   7    1.03    0.53
   3  -9   7    1.21    0.57
   3  -9   8    6.20    0.99
   3  -9   8    7.45    1.30
   3  -9   8    6.09    1.11
   3  -9   9    0.75    0.56
   3  -9  10   14.55    1.48
  -3   9 -10   16.88    1.62
   3  -9  11   56.27    2.60
  -3   9 -11   54.28    2.66
   3  -8  -7    0.06    0.14
  -3   8   6   18.99    1.88
   3  -8  -6   18.52    1.70
  -3   8   5   51.56    3.65
   3  -8  -5   52.86    3.75
   3  -8  -5   56.68    3.61
  -3   8   4  114.77    6.35
   3  -8  -4  134.46    6.90
   3  -8  -4  128.18    6.38
  -3   8   3  160.52    7.93
   3  -8  -3  151.27    6.42
   3  -8  -3  176.27    8.36
   3  -8  -3  175.47    7.97
  -3   8   2  335.95   13.14
  -3   8   2  346.73   13.83
   3  -8  -2  333.45   11.68
   3  -8  -2  345.24   13.03
  -3   8   1  490.26   17.52
   3  -8  -1  520.06   16.49
  -3   8   1  513.70   18.58
  -3   8   1  510.93   18.09
  -3   8   0   64.36    4.43
   3  -8   0   72.84    4.16
  -3   8   0   71.48    5.18
  -3   8   0   67.33    4.86
  -3   8  -1   35.62    3.07
   3  -8   1   28.88    2.23
   3  -8   1   36.13    2.79
  -3   8  -1   35.70    3.44
  -3   8  -2   28.14    2.64
   3  -8   2   27.71    2.31
  -3   8  -3   20.90    2.67
   3  -8   3   15.59    1.82
   3  -8   3   18.35    2.25
   3  -8   4   10.30    1.50
   3  -8   4   12.43    1.84
   3  -8   5   60.63    4.66
  -3   8  -5   56.25    5.20
   3  -8   5   56.52    4.16
   3  -8   5   56.88    3.66
   3  -8   5   63.80    4.22
   3  -8   6   49.33    4.27
   3  -8   6   50.59    4.04
  -3   8  -6   51.26    4.81
   3  -8   6   53.31    3.52
   3  -8   6   54.21    3.85
   3  -8   7   90.05    5.80
   3  -8   7  101.96    5.18
   3  -8   7  108.86    5.29
   3  -8   8  112.67    5.36
   3  -8   8  119.20    5.62
   3  -8   9  180.50    7.10
   3  -8   9  190.51    7.50
   3  -8   9  193.00    7.50
   3  -8  10  164.79    6.65
   3  -8  10  186.73    6.93
   3  -8  10  177.33    6.41
  -3   8 -10  184.61    7.32
   3  -8  11   22.32    1.66
  -3   8 -11   20.35    1.71
  -3   8 -12    4.86    0.63
  -3   7   8   81.09    3.58
   3  -7  -8   70.11    3.52
   3  -7  -8   72.76    3.30
   3  -7  -7  254.76    9.51
   3  -7  -7  236.99    8.96
   3  -7  -6  276.05   11.04
   3  -7  -6  277.91   10.71
  -3   7   5   37.88    3.48
   3  -7  -5   36.10    3.49
   3  -7  -5   38.16    3.36
  -3   7   4    4.71    1.36
  -3   7   4    1.86    0.97
   3  -7  -4    3.27    1.12
   3  -7  -4    2.70    1.07
  -3   7   3   25.78    2.91
   3  -7  -3   24.07    2.85
  -3   7   3   28.57    3.24
  -3   7   3   21.39    2.67
  -3   7   2   36.94    3.42
   3  -7  -2   40.51    3.62
  -3   7   2   30.26    3.32
  -3   7   2   38.51    3.48
  -3   7   1  164.52    7.81
   3  -7  -1  172.87    8.13
  -3   7   1  167.35    8.34
  -3   7   1  158.98    7.99
  -3   7   0  525.49   18.06
  -3   7   0  516.55   17.38
  -3   7  -1  408.84   14.00
   3  -7   1  399.60   13.54
   3  -7   1  402.58   14.18
  -3   7  -2  511.97   16.96
   3  -7   2  530.04   17.53
   3  -7   2  551.39   16.94
   3  -7   2  522.97   17.33
   3  -7   3   42.04    3.41
   3  -7   3   37.51    2.88
   3  -7   3   39.03    2.82
   3  -7   4   23.34    2.30
   3  -7   4   17.28    2.23
   3  -7   4   18.14    1.95
   3  -7   4   18.51    2.12
  -3   7  -5  143.61    8.47
   3  -7   5  149.82    7.66
   3  -7   5  136.53    6.79
   3  -7   5  151.15    6.92
  -3   7  -6    1.46    0.87
   3  -7   6    0.12    0.34
   3  -7   6    0.73    0.60
   3  -7   7   32.39    3.15
  -3   7  -7   35.34    3.77
   3  -7   7   34.82    3.67
   3  -7   7   35.22    2.91
   3  -7   7   35.71    2.84
   3  -7   7   35.09    2.80
   3  -7   8   33.02    3.61
   3  -7   8   34.75    3.32
   3  -7   8   35.09    2.85
   3  -7   8   33.24    2.76
   3  -7   8   42.50    2.93
   3  -7   9   51.16    3.27
   3  -7   9   54.95    3.47
   3  -7   9   51.16    3.32
   3  -7  10  173.15    6.47
   3  -7  10  166.11    6.62
  -3   7 -10  165.70    7.12
   3  -7  11    2.34    0.55
   3  -7  11    2.01    0.62
  -3   7 -11    1.84    0.62
   3  -7  12  125.32    4.20
  -3   6   9    2.31    0.57
   3  -6  -9    1.47    0.52
   3  -6  -9    1.78    0.53
  -3   6   8   45.20    3.18
   3  -6  -8   46.04    3.34
   3  -6  -8   44.80    3.17
  -3   6   7   54.57    3.99
   3  -6  -7   52.79    4.02
   3  -6  -7   49.77    3.78
   3  -6  -6   25.35    2.94
  -3   6   5  418.54   15.83
  -3   6   5  421.49   16.32
  -3   6   4  505.98   18.47
   3  -6  -4  541.24   18.61
  -3   6   4  511.04   18.72
  -3   6   4  539.63   18.53
  -3   6   3  617.70   21.42
  -3   6   3  655.12   22.06
   3  -6  -3  692.25   21.87
  -3   6   2    8.10    1.51
  -3   6   2    8.82    1.56
  -3   6   2    7.55    1.56
   3  -6  -2    7.54    1.45
   3  -6  -2    6.77    1.37
  -3   6   1  111.76    5.77
  -3   6   1  113.40    6.13
  -3   6   1  112.21    5.99
   3  -6  -1  114.82    5.90
   3  -6  -1  117.18    5.83
  -3   6   0   37.81    2.93
   3  -6   0   36.19    2.87
   3  -6   1  251.11    8.72
  -3   6  -1  255.12    9.71
   3  -6   1  274.61    9.91
   3  -6   2   92.74    4.71
   3  -6   2   87.78    4.35
   3  -6   2   77.16    4.33
   3  -6   3  570.52   18.37
   3  -6   4  249.96    9.82
   3  -6   4  222.91    8.86
   3  -6   5   44.79    3.69
  -3   6  -5   46.51    4.30
   3  -6   5   42.55    2.95
   3  -6   5   45.11    3.21
   3  -6   6  309.09   12.52
  -3   6  -6  320.21   13.32
   3  -6   6  302.44   10.76
   3  -6   6  288.71   11.04
  -3   6  -7  227.67   10.95
   3  -6   7  244.50   11.10
   3  -6   7  242.65    9.26
   3  -6   7  241.98    9.42
   3  -6   8  180.68    9.21
   3  -6   8  172.26    7.34
   3  -6   8  152.95    6.59
   3  -6   8  164.55    7.11
   3  -6   9   31.96    2.66
   3  -6   9   31.59    2.44
   3  -6   9   37.58    2.81
   3  -6  10   53.28    3.31
   3  -6  10   51.59    3.22
  -3   6 -10   52.03    3.64
   3  -6  11    1.29    0.49
   3  -6  11    1.32    0.54
   3  -6  12    8.24    0.88
   3  -5 -10  147.39    5.78
   3  -5 -10  142.05    5.63
  -3   5   9  114.69    5.38
   3  -5  -9  112.91    5.68
  -3   5   8   44.55    3.51
   3  -5  -8   48.38    3.86
  -3   5   7    0.94    0.67
  -3   5   7    2.76    1.02
   3  -5  -7    1.69    0.86
  -3   5   6   76.36    5.18
  -3   5   6   83.12    5.48
   3  -5  -6   85.16    5.59
  -3   5   5   30.69    3.12
  -3   5   5   28.69    3.09
   3  -5  -5   31.75    3.22
  -3   5   4    8.09    1.58
  -3   5   4   10.16    1.70
   3  -5  -4    6.93    1.45
  -3   5   3   41.32    3.39
   3  -5  -3   47.51    3.52
  -3   5   3   51.41    3.64
  -3   5   3   46.38    3.63
  -3   5   2  239.94    9.50
  -3   5   2  257.59    9.92
  -3   5   2  252.50    9.75
   3  -5   0  266.38    9.02
   3  -5   1 2106.62   57.19
   3  -5   2  751.44   22.23
   3  -5   3  469.40   15.20
  -3   5  -4   29.03    3.06
   3  -5   4   30.78    2.69
   3  -5   4   22.65    1.93
   3  -5   5    0.60    0.60
  -3   5  -5    1.04    0.75
   3  -5   5    1.45    0.56
   3  -5   5    1.67    0.61
   3  -5   6  134.25    7.14
  -3   5  -6  125.38    7.26
   3  -5   6  126.19    5.65
   3  -5   7   23.43    2.96
  -3   5  -7   24.44    3.08
   3  -5   7   26.82    2.44
   3  -5   7   24.40    2.23
   3  -5   8  290.80   12.63
   3  -5   8  277.95   10.55
   3  -5   8  272.68    9.66
   3  -5   8  297.20   10.48
   3  -5   9  209.00    8.95
   3  -5   9  221.13   10.52
   3  -5   9  218.05    8.54
   3  -5   9  204.61    8.24
  -3   5  -9  205.28    9.02
   3  -5  10    3.36    0.87
   3  -5  10    2.27    0.73
   3  -5  11  125.78    5.30
   3  -5  12   97.62    3.92
   3  -4 -11    3.72    0.71
  -3   4  10    2.96    0.74
  -3   4  10    3.78    0.81
   3  -4 -10    3.93    0.98
  -3   4   9  160.01    7.15
   3  -4  -9  158.91    7.69
  -3   4   8   16.30    2.30
  -3   4   8   18.68    2.32
   3  -4  -8   16.27    2.30
  -3   4   7   84.98    5.53
  -3   4   7   91.21    5.58
   3  -4  -7   89.07    5.71
  -3   4   6   66.53    4.64
  -3   4   6   71.97    4.95
   3  -4  -6   78.48    5.10
  -3   4   5   55.34    4.10
  -3   4   5   57.75    4.02
  -3   4   5   51.19    4.09
   3  -4  -5   56.08    4.01
  -3   4   4  506.92   16.53
  -3   4   4  516.21   16.94
  -3   4   4  460.70   16.53
   3  -4  -4  513.22   16.58
  -3   4   3 1091.60   32.72
  -3   4   3 1155.78   32.66
  -3   4   2  559.52   17.46
   3  -4   0   21.59    1.50
  -3   4   0   21.43    1.87
   3  -4   1 1731.93   46.84
   3  -4   2  503.69   15.30
  -3   4  -3  604.00   20.11
   3  -4   3  622.21   18.79
   3  -4   4  862.02   25.70
  -3   4  -4  850.08   26.84
   3  -4   5  175.94    7.66
  -3   4  -5  161.98    8.04
   3  -4   5  152.34    6.14
  -3   4  -6  323.29   13.01
   3  -4   6  328.50   12.75
   3  -4   6  318.82   10.85
   3  -4   7   36.24    3.56
   3  -4   7   32.96    2.56
   3  -4   8   82.80    5.75
   3  -4   8   74.08    4.12
  -3   4  -8   72.80    4.69
   3  -4   9   45.95    3.47
   3  -4   9   53.35    4.61
   3  -4   9   50.99    3.33
  -3   4  -9   51.13    3.84
   3  -4  10   81.59    4.24
  -3   4 -12   21.64    1.65
  -3   3  12   41.62    2.15
   3  -3 -12   56.42    2.56
   3  -3 -11   87.24    4.54
  -3   3  10  339.65   11.84
   3  -3 -10  365.13   13.12
  -3   3   9   15.60    1.96
   3  -3  -9    8.51    1.65
  -3   3   8  109.64    6.45
  -3   3   8  115.53    6.11
   3  -3  -8  109.07    6.35
  -3   3   7  267.25   11.00
  -3   3   7  262.59   10.87
   3  -3  -7  275.62   11.10
  -3   3   6    2.16    0.84
  -3   3   6    4.77    1.23
   3  -3  -6    3.90    1.05
  -3   3   5   47.40    3.46
  -3   3   5   43.79    3.20
  -3   3   4  534.44   17.32
  -3   3   4  555.37   17.08
  -3   3   3   36.28    2.54
  -3   3   2  413.32   12.52
  -3   3   2  433.13   13.24
  -3   3   1 1259.85   34.86
   3  -3   0 1426.42   38.26
  -3   3   0 1448.05   39.19
   3  -3   1   12.93    1.08
   3  -3   2   34.93    2.14
  -3   3  -3    2.91    0.91
   3  -3   3    3.38    0.81
   3  -3   4  273.19   10.17
  -3   3  -4  253.75   10.39
   3  -3   5   30.98    2.88
  -3   3  -5   24.41    2.64
   3  -3   6   59.60    4.41
   3  -3   6   52.98    3.35
   3  -3   6   51.97    3.05
   3  -3   7  337.83   11.91
   3  -3   7  334.88   11.39
  -3   3  -7  323.99   12.34
   3  -3   8  174.17    9.08
   3  -3   8  161.58    7.16
   3  -3   8  164.69    6.85
  -3   3  -8  170.29    7.83
   3  -3   9  732.13   22.91
   3  -3   9  784.64   23.21
   3  -3   9  753.49   22.64
   3  -3  10  237.70    9.01
   3  -3  11  166.06    6.49
  -3   3 -12    5.68    0.84
  -3   3 -12    4.87    0.74
   3  -2 -12   54.36    3.15
   3  -2 -11   12.70    1.75
  -3   2  10    5.01    0.99
   3  -2 -10    3.99    1.15
  -3   2   9    3.92    0.99
   3  -2  -9    0.76    0.61
  -3   2   8  545.76   19.01
  -3   2   8  532.86   18.05
   3  -2  -8  581.94   18.86
  -3   2   7  738.86   23.57
  -3   2   7  773.81   23.60
   3  -2  -7  722.92   23.23
  -3   2   6  449.04   14.90
  -3   2   6  437.77   13.68
  -3   2   5    7.15    0.88
  -3   2   5    7.61    1.19
  -3   2   4   80.78    4.02
  -3   2   4   81.28    3.75
  -3   2   4   74.50    2.91
  -3   2   3    0.92    0.34
  -3   2   3    0.73    0.26
  -3   2   3    0.85    0.14
  -3   2   2  147.01    5.38
  -3   2   2  154.91    5.60
  -3   2   2  143.18    5.19
  -3   2   2  139.54    4.70
  -3   2   1   28.43    1.70
  -3   2   1   25.83    1.48
  -3   2   0  270.38    8.31
   3  -2   0  270.70    7.73
   3  -2   1   11.68    1.05
   3  -2   2  520.58   15.69
   3  -2   3  883.75   25.16
  -3   2  -3  819.16   25.51
   3  -2   4 2607.07   71.23
  -3   2  -4 2583.00   71.55
   3  -2   5  162.94    7.72
   3  -2   6  139.12    5.72
   3  -2   6  145.33    6.27
  -3   2  -6  151.59    6.80
   3  -2   7   37.67    3.77
   3  -2   7   33.12    2.67
   3  -2   7   34.63    2.46
  -3   2  -7   30.72    2.91
   3  -2   8   59.82    4.94
   3  -2   8   57.62    3.75
  -3   2  -8   59.06    4.22
   3  -2   9   12.67    1.69
   3  -2  10   26.52    2.29
   3  -2  11  111.75    4.74
  -3   2 -11  105.94    4.91
  -3   2 -11   98.35    4.62
  -3   2 -12   35.58    1.87
  -3   2 -12   46.21    2.21
  -3   1  13  113.49    4.68
   3  -1 -13   93.70    3.99
   3  -1 -12   87.19    4.55
   3  -1 -11  299.87   11.44
   3  -1 -10  152.18    7.40
   3  -1  -9  585.38   19.43
   3  -1  -8   40.53    3.24
  -3   1   7    7.47    1.14
  -3   1   6  203.39    7.46
  -3   1   6  212.34    8.25
  -3   1   6  213.21    7.45
  -3   1   5   13.53    1.44
  -3   1   5   15.79    1.21
  -3   1   5   15.23    1.44
  -3   1   4   86.00    3.86
  -3   1   4   85.04    3.14
  -3   1   4   91.46    3.75
  -3   1   3  557.44   14.61
  -3   1   3  564.44   13.71
  -3   1   2  100.59    4.39
  -3   1   1  278.24    8.18
   3  -1  -1  275.47    7.53
  -3   1   0 1114.25   29.10
   3  -1   0 1057.65   28.03
  -3   1  -1  537.96   14.88
  -3   1  -1  622.05   17.00
   3  -1   2  102.97    4.67
   3  -1   2  109.47    4.15
   3  -1   3  286.63   10.22
   3  -1   3  281.70    9.46
   3  -1   4  147.05    6.26
   3  -1   4  150.26    6.88
   3  -1   5  465.59   16.30
   3  -1   5  452.23   14.40
  -3   1  -5  458.87   15.06
   3  -1   6  165.75    8.32
   3  -1   6  158.15    6.65
  -3   1  -6  162.32    7.34
   3  -1   7  216.61   10.44
   3  -1   7  217.22    8.55
  -3   1  -7  218.60    9.34
   3  -1   8   59.01    4.93
   3  -1   8   55.61    3.69
   3  -1   9  203.74    8.22
   3  -1  10   87.65    4.44
  -3   1 -10   89.59    4.82
  -3   1 -10   88.51    4.57
  -3   1 -11   60.85    3.08
  -3   1 -11   63.18    3.31
  -3   0  14   85.67    3.56
   3   0 -13    3.06    0.70
  -3   0  12    6.24    1.14
   3   0 -12    5.58    1.15
   3   0 -11   56.97    3.95
   3   0 -10    6.32    1.34
   3   0  -9   37.73    3.09
  -3   0   8  321.15   11.85
   3   0  -8  348.22   11.95
  -3   0   7  841.40   25.14
  -3   0   6  752.88   22.58
  -3   0   5  449.69   14.29
  -3   0   4  169.51    6.61
  -3   0   4  169.14    5.52
  -3   0   3  152.75    4.54
  -3   0   3  149.01    5.80
  -3   0   3  165.02    5.75
  -3   0   2   30.45    2.01
  -3   0   2   28.89    2.15
  -3   0   2   30.60    1.51
  -3   0   1  471.89   13.63
  -3   0   0 1068.55   29.58
   3   0   1   29.34    1.74
   3   0   2  122.27    4.91
   3   0   3  906.33   26.21
   3   0   4   59.88    3.69
   3   0   5  365.13   13.91
   3   0   5  354.82   12.99
   3   0   5  360.92   11.89
  -3   0  -5  356.49   12.71
   3   0   6   28.79    2.93
   3   0   6   25.05    3.01
   3   0   6   26.47    2.31
  -3   0  -6   24.15    2.57
   3   0   7    4.85    1.39
   3   0   7    5.73    1.15
   3   0   8   54.69    4.68
   3   0   8   54.73    3.63
  -3   0  -8   50.95    3.69
   3   0   9   22.33    2.14
  -3   0  -9   19.74    2.11
  -3   0 -10  169.61    6.74
  -3   0 -10  185.35    7.26
  -3   0 -11  102.24    3.88
  -3   0 -11   79.17    3.25
  -3  -1  14    9.56    1.15
  -3  -1  13   81.84    4.20
   3   1 -13   68.57    3.67
   3   1 -12  135.71    6.25
  -3  -1  11  313.23   11.67
   3   1 -11  317.70   11.71
  -3  -1  10  176.24    8.33
  -3  -1  10  175.41    7.92
   3   1 -10  170.14    7.58
  -3  -1   9  139.07    6.17
  -3  -1   9  128.58    6.50
  -3  -1   9  127.93    6.68
  -3  -1   8   90.34    4.76
  -3  -1   8   89.29    5.19
  -3  -1   8   94.73    5.18
  -3  -1   8   88.72    5.04
  -3  -1   7    3.52    0.85
  -3  -1   7    1.83    0.75
  -3  -1   6   56.94    3.12
  -3  -1   6   48.75    3.53
  -3  -1   5 1701.96   49.21
  -3  -1   5 1819.60   48.02
  -3  -1   4 2263.14   59.80
  -3  -1   4 2238.14   58.89
  -3  -1   4 2136.68   58.31
  -3  -1   3  701.00   19.63
  -3  -1   3  740.12   20.97
  -3  -1   2  418.23   12.16
  -3  -1   2  434.03   13.43
  -3  -1   1  204.85    7.31
  -3  -1   1  209.70    7.97
   3   1   0  300.05    8.67
  -3  -1   0  345.36   11.30
  -3  -1  -1  102.35    5.27
   3   1   1   90.11    3.27
  -3  -1  -2   13.24    1.85
   3   1   2   11.55    1.40
   3   1   3  199.12    7.73
  -3  -1  -3  158.65    8.06
  -3  -1  -4   46.00    3.92
   3   1   4   58.11    3.87
  -3  -1  -4   55.64    3.68
   3   1   5  224.78    9.69
   3   1   5  229.91    8.57
  -3  -1  -5  232.50    9.51
   3   1   6  258.27   10.93
   3   1   6  255.20   11.60
   3   1   6  261.45    9.64
  -3  -1  -6  244.25    9.82
  -3  -1  -6  255.51   10.57
   3   1   7   51.46    4.53
   3   1   7   48.70    3.40
  -3  -1  -7   46.88    3.53
   3   1   8  250.19    9.54
  -3  -1  -8  250.10    9.75
  -3  -1  -9   27.14    2.30
  -3  -1  -9   29.93    2.60
  -3  -1 -10    7.24    1.06
  -3  -1 -10    7.19    0.89
  -3  -2  14   13.79    1.41
  -3  -2  14   12.19    1.37
   3   2 -13   28.54    2.19
  -3  -2  12    5.59    1.20
   3   2 -12    4.54    1.01
  -3  -2  11   78.20    4.94
   3   2 -11   78.01    4.52
  -3  -2  10  464.90   15.16
  -3  -2  10  451.34   15.96
  -3  -2  10  433.72   16.09
  -3  -2  10  433.29   16.26
  -3  -2   9  470.30   15.38
  -3  -2   9  440.19   15.74
  -3  -2   9  419.68   16.05
  -3  -2   9  459.35   16.19
  -3  -2   8  393.83   15.24
  -3  -2   8  423.72   14.70
  -3  -2   8  422.80   14.36
  -3  -2   7  325.40   13.81
  -3  -2   7  400.91   13.00
  -3  -2   6  820.27   26.81
  -3  -2   6  887.33   25.21
  -3  -2   5  539.62   17.07
  -3  -2   5  508.89   15.59
  -3  -2   4   24.01    1.70
  -3  -2   4   24.39    2.12
  -3  -2   3   54.90    2.74
  -3  -2   3   58.72    3.09
  -3  -2   2  379.78   12.27
  -3  -2   2  395.20   12.48
  -3  -2   2  378.75   11.73
  -3  -2   1  337.35   10.90
  -3  -2   1  330.96   11.34
  -3  -2   0  417.22   13.95
  -3  -2  -1 1135.21   32.33
   3   2   1 1082.92   30.22
  -3  -2  -2   68.06    4.31
   3   2   2   65.40    3.23
  -3  -2  -3  423.27   15.12
   3   2   3  468.75   15.62
  -3  -2  -3  444.48   14.99
   3   2   4   65.69    4.50
   3   2   4   59.70    3.44
  -3  -2  -4   61.21    4.14
  -3  -2  -4   57.01    3.67
  -3  -2  -5   46.28    3.32
   3   2   5   51.17    4.09
   3   2   5   54.60    3.43
  -3  -2  -5   54.96    4.10
  -3  -2  -5   51.09    3.61
   3   2   6   11.76    1.96
   3   2   6   12.24    2.22
   3   2   6    9.59    1.48
  -3  -2  -6    8.66    1.49
  -3  -2  -7   12.70    1.70
  -3  -2  -7    8.91    1.49
  -3  -2  -8   24.13    2.00
  -3  -2  -8   29.85    2.72
  -3  -2  -8   23.14    2.18
   3   2   9   15.15    1.36
  -3  -2  -9   17.84    1.79
  -3  -2  -9   14.99    1.41
  -3  -2 -10  120.81    4.37
  -3  -3  14  102.86    4.76
  -3  -3  14   90.51    4.23
  -3  -3  13   26.17    2.43
  -3  -3  13   31.03    2.59
  -3  -3  12   10.42    1.75
  -3  -3  11   76.08    4.47
  -3  -3  11   78.15    5.10
  -3  -3  11   76.06    5.38
  -3  -3  10  340.80   12.71
  -3  -3  10  344.89   13.38
  -3  -3  10  348.25   14.04
  -3  -3  10  346.13   13.86
  -3  -3   9    3.82    1.10
  -3  -3   9    2.77    0.99
  -3  -3   9    3.86    1.28
  -3  -3   9    3.05    1.08
  -3  -3   8   13.71    1.92
  -3  -3   8    9.11    1.99
  -3  -3   8   11.00    1.84
  -3  -3   8   15.05    1.94
  -3  -3   7  153.60    8.76
  -3  -3   7  163.97    7.24
  -3  -3   6  191.73    8.86
  -3  -3   6  177.85    7.33
  -3  -3   5  538.59   16.80
  -3  -3   5  464.52   15.28
  -3  -3   4 1638.62   45.05
  -3  -3   4 1632.43   44.83
  -3  -3   3 3190.09   82.06
  -3  -3   3 2962.14   81.47
  -3  -3   3 3009.21   81.44
  -3  -3   2  488.15   15.45
  -3  -3   2  489.55   15.35
  -3  -3   2  508.55   15.49
  -3  -3   1   56.83    3.23
  -3  -3   1   57.64    3.39
  -3  -3   0   18.35    1.88
  -3  -3  -1  181.42    7.33
   3   3   1  175.92    6.71
   3   3   2  160.81    6.71
  -3  -3  -2  175.68    7.58
   3   3   3  219.26    9.62
  -3  -3  -3  200.77    8.31
  -3  -3  -3  215.24    8.38
  -3  -3  -3  215.27    9.11
  -3  -3  -4  262.28    9.83
   3   3   4  261.27   11.38
  -3  -3  -4  276.43   10.68
  -3  -3  -4  264.87   10.93
  -3  -3  -4  251.75    9.99
  -3  -3  -5   75.15    4.08
   3   3   5   70.88    5.11
  -3  -3  -5   73.54    4.67
  -3  -3  -5   75.09    4.55
  -3  -3  -6  299.70   11.05
  -3  -3  -6  289.78   11.01
  -3  -3  -7  101.83    4.79
  -3  -3  -7  100.12    5.01
  -3  -3  -8   66.35    3.86
   3   3   9    4.38    0.62
  -3  -3  -9    5.51    0.79
  -3  -4  15    9.96    0.99
  -3  -4  14   32.67    2.53
  -3  -4  14   29.74    2.20
  -3  -4  13   82.19    4.37
  -3  -4  13   89.38    4.91
  -3  -4  12   69.23    4.29
  -3  -4  12   78.23    4.95
  -3  -4  11   11.30    1.75
  -3  -4  11   10.73    1.74
  -3  -4  11    9.02    1.80
  -3  -4  11    7.47    1.73
  -3  -4  11    9.71    1.88
  -3  -4  10   35.82    3.33
  -3  -4  10   37.26    3.20
  -3  -4  10   34.08    3.17
  -3  -4  10   35.84    3.90
  -3  -4  10   29.10    3.33
  -3  -4   9  602.10   19.58
  -3  -4   9  558.97   18.24
  -3  -4   9  545.04   18.86
  -3  -4   9  566.57   21.09
  -3  -4   9  540.88   19.55
  -3  -4   8  606.66   18.62
  -3  -4   8  546.88   19.11
  -3  -4   8  590.33   19.96
  -3  -4   8  562.34   19.63
  -3  -4   8  580.56   18.63
  -3  -4   8  634.14   22.49
  -3  -4   8  645.53   20.27
  -3  -4   7  412.00   14.79
  -3  -4   7  421.70   14.52
  -3  -4   6  150.22    6.83
  -3  -4   5    5.88    1.27
  -3  -4   5    6.81    1.21
  -3  -4   4  140.81    6.35
  -3  -4   4  156.06    6.77
  -3  -4   3  572.77   17.67
  -3  -4   3  556.27   17.60
  -3  -4   3  542.20   16.91
  -3  -4   2   86.38    4.44
  -3  -4   2   86.88    4.26
  -3  -4   1  745.68   22.12
  -3  -4   0  445.09   14.48
  -3  -4   0  428.73   14.10
  -3  -4   0  464.98   14.91
  -3  -4   0  448.89   13.91
  -3  -4  -1  845.98   24.65
   3   4   1  771.06   24.22
  -3  -4  -1  784.44   23.55
  -3  -4  -1  834.92   25.12
  -3  -4  -1  825.47   25.35
  -3  -4  -1  854.82   23.67
  -3  -4  -2  174.89    7.23
  -3  -4  -2  167.92    7.69
  -3  -4  -2  158.33    7.83
  -3  -4  -3  145.63    6.38
  -3  -4  -3  154.61    7.26
   3   4   3  134.05    7.57
  -3  -4  -3  146.93    7.07
  -3  -4  -3  136.63    7.30
  -3  -4  -3  130.22    6.40
  -3  -4  -4   90.62    4.52
   3   4   4   85.56    5.78
  -3  -4  -4   88.95    5.21
  -3  -4  -4   85.02    4.92
  -3  -4  -5    0.10    0.46
  -3  -4  -5    0.78    0.61
  -3  -4  -6    0.45    0.42
  -3  -4  -6    0.40    0.36
  -3  -4  -7  144.78    6.45
  -3  -4  -8   91.13    3.95
  -3  -5  14  237.71    8.56
  -3  -5  13   77.69    4.62
  -3  -5  12   41.53    3.14
  -3  -5  12   36.25    2.99
  -3  -5  12   47.01    3.78
  -3  -5  11   64.13    4.47
  -3  -5  11   58.38    4.20
  -3  -5  11   58.41    4.54
  -3  -5  11   62.92    5.25
  -3  -5  11   48.38    4.46
  -3  -5  10   73.03    5.03
  -3  -5  10   65.69    4.72
  -3  -5  10   64.91    5.58
  -3  -5  10   67.09    5.25
  -3  -5   9    7.68    1.68
  -3  -5   9    7.76    1.96
  -3  -5   9    5.58    1.48
  -3  -5   9    6.32    1.51
  -3  -5   9    7.23    1.34
  -3  -5   8    6.69    1.33
  -3  -5   8   10.73    1.92
  -3  -5   8    7.64    1.63
  -3  -5   8    8.12    2.02
  -3  -5   8    7.94    1.65
  -3  -5   8    7.63    1.30
  -3  -5   8    6.08    1.54
  -3  -5   8    6.05    1.03
  -3  -5   7  193.48    9.18
  -3  -5   7  196.66    8.50
  -3  -5   7  215.39    9.27
  -3  -5   7  190.58    9.56
  -3  -5   7  194.44    7.37
  -3  -5   6  593.05   21.89
  -3  -5   6  688.27   21.55
  -3  -5   6  648.97   21.60
  -3  -5   6  757.17   23.02
  -3  -5   6  656.92   19.55
  -3  -5   6  700.50   21.04
  -3  -5   6  664.20   19.80
  -3  -5   5   96.01    5.51
  -3  -5   5  105.52    5.83
  -3  -5   5   99.92    5.60
  -3  -5   5  104.49    4.49
  -3  -5   5  102.57    4.62
  -3  -5   5   95.84    5.92
  -3  -5   5  106.37    4.55
  -3  -5   4  489.25   16.26
  -3  -5   4  460.11   16.19
  -3  -5   4  479.91   14.65
  -3  -5   4  495.32   16.51
  -3  -5   4  489.70   14.81
  -3  -5   4  459.84   17.12
  -3  -5   4  469.81   14.89
  -3  -5   3  300.06   11.74
  -3  -5   3  290.56   10.99
  -3  -5   3  302.10   11.55
  -3  -5   3  320.69   10.24
  -3  -5   3  314.37   10.70
  -3  -5   2  215.25    8.56
  -3  -5   2  222.70    8.10
  -3  -5   2  239.05    8.85
  -3  -5   2  208.71   10.78
  -3  -5   2  236.23    8.33
  -3  -5   2  230.44    8.53
  -3  -5   1   86.28    4.55
  -3  -5   1   76.95    5.42
  -3  -5   1   90.20    4.26
  -3  -5   1   87.94    4.82
  -3  -5   1   87.66    4.27
  -3  -5   1   94.48    6.40
  -3  -5   0    0.53    0.44
   3   5   0    0.68    0.46
  -3  -5   0    0.65    0.39
  -3  -5   0    1.77    0.74
  -3  -5   0    0.70    0.53
  -3  -5   0    2.14    0.95
  -3  -5  -1   89.99    4.83
  -3  -5  -1   94.01    4.26
  -3  -5  -1   87.10    5.26
  -3  -5  -1   94.08    5.68
  -3  -5  -1   93.37    5.50
  -3  -5  -2  210.52    9.64
  -3  -5  -2  204.88    8.19
  -3  -5  -2  205.34    8.93
  -3  -5  -2  199.28    9.41
  -3  -5  -3  181.03    8.38
   3   5   3  177.68    9.27
  -3  -5  -3  204.95    8.59
  -3  -5  -3  179.58    7.79
  -3  -5  -3  199.26    7.57
  -3  -5  -3  184.50    9.04
  -3  -5  -4  457.31   15.21
  -3  -5  -4  427.42   14.97
  -3  -5  -5  231.97    8.60
   3   5   6   92.83    4.30
   3   5   7   49.76    2.46
  -3  -6  14   17.71    1.67
  -3  -6  14   16.34    1.64
  -3  -6  13   34.04    2.35
  -3  -6  13   36.56    2.89
  -3  -6  13   36.24    2.96
  -3  -6  12  253.90    9.56
  -3  -6  12  218.26    9.24
  -3  -6  11  274.29   11.37
  -3  -6  11  282.78   11.42
  -3  -6  10   28.66    3.23
  -3  -6  10   28.04    3.15
  -3  -6  10   29.85    3.27
  -3  -6  10   29.70    3.47
  -3  -6  10   31.98    3.88
  -3  -6   9   21.92    2.70
  -3  -6   9   22.43    2.94
  -3  -6   9   19.80    2.81
  -3  -6   9   22.69    2.89
  -3  -6   9   23.41    2.91
  -3  -6   8    9.19    1.88
  -3  -6   8    6.12    1.56
  -3  -6   8    8.55    1.57
  -3  -6   8    9.42    1.51
  -3  -6   8    8.45    2.02
  -3  -6   8    8.78    1.82
  -3  -6   8   10.72    1.87
  -3  -6   8    8.73    1.87
  -3  -6   8    7.16    1.22
  -3  -6   7  262.35   10.97
  -3  -6   7  271.12   11.71
  -3  -6   7  302.59   12.66
  -3  -6   7  284.89   10.91
  -3  -6   7  262.63    9.80
  -3  -6   6  140.93    7.22
  -3  -6   6  122.98    7.49
  -3  -6   6  149.89    7.75
  -3  -6   6  134.24    7.35
  -3  -6   6  143.02    5.90
  -3  -6   6  154.31    8.00
  -3  -6   6  136.32    6.31
  -3  -6   6  134.00    6.00
  -3  -6   6  142.23    7.79
  -3  -6   5   10.01    1.81
  -3  -6   5   12.21    1.96
  -3  -6   5   10.80    1.82
  -3  -6   5   14.18    2.08
  -3  -6   5   11.80    2.13
  -3  -6   5   11.39    1.46
  -3  -6   4  109.78    6.50
  -3  -6   4  109.07    5.99
  -3  -6   4  114.36    6.52
  -3  -6   4  126.43    5.33
  -3  -6   4  118.20    6.12
  -3  -6   3  133.37    7.00
  -3  -6   3  126.52    7.01
  -3  -6   3  105.36    5.72
  -3  -6   3  135.69    5.61
  -3  -6   3  125.85    6.07
  -3  -6   3  112.07    7.49
  -3  -6   3  132.74    5.89
  -3  -6   2  431.45   13.62
  -3  -6   2  410.91   14.07
  -3  -6   2  408.62   17.14
  -3  -6   1  493.01   19.55
  -3  -6   1  547.61   16.92
  -3  -6   1  542.07   18.24
  -3  -6   1  564.15   17.76
  -3  -6   1  608.30   20.76
  -3  -6   0 1049.95   35.44
  -3  -6   0 1126.48   31.86
  -3  -6   0 1134.74   33.77
  -3  -6   0 1129.11   32.88
  -3  -6   0 1189.59   35.05
  -3  -6  -1   34.03    3.67
  -3  -6  -1   37.76    3.25
  -3  -6  -1   34.64    2.74
  -3  -6  -1   30.35    3.02
  -3  -6  -2  124.08    6.84
   3   6   2  112.05    7.07
  -3  -6  -2  126.81    6.43
   3   6   3    1.27    0.60
  -3  -6  -3    2.48    0.88
  -3  -6  -3    1.46    0.51
  -3  -6  -3    2.08    0.76
   3   6   4    6.90    1.12
   3   6   5   61.31    3.22
   3   6   6   43.80    2.18
  -3  -7  14   22.63    1.57
  -3  -7  14   49.41    2.54
  -3  -7  13   45.39    2.83
  -3  -7  13   43.11    2.62
  -3  -7  12    5.75    1.21
  -3  -7  12    6.62    1.21
  -3  -7  12    8.40    1.51
  -3  -7  12    5.97    1.24
  -3  -7  11    6.36    1.25
  -3  -7  11    5.60    1.37
  -3  -7  11    6.93    1.47
  -3  -7  11    5.84    1.42
  -3  -7  10  162.98    8.39
  -3  -7  10  154.43    7.16
  -3  -7  10  165.09    8.35
  -3  -7  10  173.63    8.26
  -3  -7   9    6.28    1.51
  -3  -7   9    6.64    1.72
  -3  -7   9    5.55    1.70
  -3  -7   9    8.60    1.86
  -3  -7   9    7.71    1.82
  -3  -7   9    8.74    1.69
  -3  -7   9    7.15    1.29
  -3  -7   8  117.80    6.47
  -3  -7   8  133.28    8.01
  -3  -7   8  124.98    7.48
  -3  -7   8  137.43    6.74
  -3  -7   8  120.91    5.92
  -3  -7   7   83.13    6.04
  -3  -7   7   91.87    5.67
  -3  -7   7   83.76    5.91
  -3  -7   7   87.53    6.13
  -3  -7   7   79.47    4.72
  -3  -7   7   94.00    4.93
  -3  -7   6  104.37    6.95
  -3  -7   6  102.84    6.34
  -3  -7   6  108.04    6.56
  -3  -7   6  118.33    6.99
  -3  -7   6  130.16    7.11
  -3  -7   6  117.48    5.66
  -3  -7   6  111.06    7.16
  -3  -7   5  198.12   10.01
  -3  -7   5  203.63    9.56
  -3  -7   5  182.77    8.81
  -3  -7   5  199.40    9.72
  -3  -7   5  208.51    8.04
  -3  -7   5  222.83    9.44
  -3  -7   5  196.50   10.25
  -3  -7   4  174.39    8.75
  -3  -7   4  168.20    8.58
  -3  -7   4  164.62    6.89
  -3  -7   4  158.20    7.51
  -3  -7   4  164.27    7.21
  -3  -7   3  132.29    5.87
  -3  -7   3  129.23    7.55
  -3  -7   3  123.07    6.60
  -3  -7   3  134.79    6.27
  -3  -7   3  129.91    8.30
  -3  -7   2   13.59    1.59
  -3  -7   2   14.34    1.82
  -3  -7   2   13.44    2.49
  -3  -7   1   36.57    2.54
  -3  -7   1   35.26    3.83
  -3  -7   1   35.95    2.89
  -3  -7   1   35.95    3.87
  -3  -7   0  392.71   15.78
  -3  -7   0  400.47   13.58
  -3  -7   0  418.65   15.19
   3   7   1   18.96    1.89
  -3  -7  -1   18.25    2.48
  -3  -7  -1   14.77    1.65
  -3  -7  -2   69.10    4.41
   3   7   2   69.29    3.79
  -3  -7  -2   70.64    3.41
   3   7   3  163.85    6.35
   3   7   4  166.11    5.91
  -3  -8  13   61.75    2.98
  -3  -8  13   61.50    3.24
  -3  -8  12   71.57    4.01
  -3  -8  12   71.28    4.13
  -3  -8  12   63.79    3.79
  -3  -8  11   74.93    4.68
  -3  -8  11   75.08    4.76
  -3  -8  11   75.39    4.40
  -3  -8  10   50.22    4.10
  -3  -8  10   44.80    3.41
  -3  -8  10   52.71    4.16
  -3  -8  10   48.55    3.55
  -3  -8   9  254.40   11.07
  -3  -8   9  280.36   10.33
  -3  -8   8    7.99    1.83
  -3  -8   8    5.76    1.31
  -3  -8   8    6.50    1.66
  -3  -8   8    7.18    1.34
  -3  -8   7   58.61    4.91
  -3  -8   7   54.59    4.27
  -3  -8   7   55.45    4.80
  -3  -8   7   68.53    4.99
  -3  -8   7   67.63    4.17
  -3  -8   6    0.14    0.58
  -3  -8   6    0.81    0.77
  -3  -8   6    0.94    0.82
  -3  -8   5    7.77    1.74
  -3  -8   5    7.90    1.73
  -3  -8   5    9.80    1.69
  -3  -8   5    7.29    1.36
  -3  -8   5    5.81    1.74
  -3  -8   4  102.80    5.91
  -3  -8   4   99.41    6.47
  -3  -8   4   91.72    5.19
  -3  -8   3  110.03    6.97
  -3  -8   3  123.25    5.97
  -3  -8   3  129.79    7.97
  -3  -8   2  151.27    8.23
  -3  -8   2  147.74    8.26
  -3  -8   2  150.38    6.72
  -3  -8   1   31.82    3.28
  -3  -8   1   36.23    2.72
  -3  -8   0   99.43    5.88
  -3  -8   0   99.11    4.57
  -3  -8  -1  136.99    6.37
  -3  -8  -1  127.50    4.92
  -3  -8  -2   14.51    1.51
  -3  -9  12    0.77    0.45
  -3  -9  12    1.23    0.57
  -3  -9  11    0.68    0.55
  -3  -9  11    1.11    0.60
  -3  -9  10   21.91    2.42
  -3  -9  10   16.27    1.75
  -3  -9   9  220.50    9.63
  -3  -9   9  273.77   10.55
  -3  -9   8  104.65    5.99
  -3  -9   8   91.48    5.77
  -3  -9   8   90.19    4.95
  -3  -9   8   95.73    5.02
  -3  -9   7  192.07    8.46
  -3  -9   7  194.31    9.03
  -3  -9   7  211.60    8.84
  -3  -9   7  184.09    7.96
  -3  -9   6   27.71    2.89
  -3  -9   6   28.32    2.96
  -3  -9   6   31.61    2.86
  -3  -9   5   14.05    1.91
  -3  -9   5   10.17    1.82
  -3  -9   5   15.00    1.82
  -3  -9   4   30.03    3.11
  -3  -9   4   27.91    2.47
  -3  -9   3   18.39    2.43
  -3  -9   3   22.11    2.08
  -3  -9   2    2.08    0.64
  -3  -9   2    1.35    0.81
  -3  -9   1   17.37    1.52
  -3  -9   0    3.39    0.88
  -3  -9  -1  107.24    4.24
  -3 -10  11   15.26    1.39
  -3 -10  10   29.45    2.32
  -3 -10   9    2.83    0.82
  -3 -10   9    2.48    0.73
  -3 -10   9    4.03    0.93
  -3 -10   8    1.79    0.72
  -3 -10   8    2.65    0.80
  -3 -10   8    1.38    0.63
  -3 -10   7    1.95    0.63
  -3 -10   7    2.67    0.77
  -3 -10   7    1.84    0.84
  -3 -10   6    3.57    0.89
  -3 -10   6    7.26    1.15
  -3 -10   5   35.78    2.88
  -3 -10   5   44.32    2.80
  -3 -10   4   71.47    4.30
  -3 -10   4   86.39    4.01
  -3 -10   3   62.95    3.81
  -3 -10   3   72.95    4.03
  -3 -10   3   72.93    3.35
  -3 -10   2   68.72    3.33
  -3 -10   2   71.22    2.92
  -3 -11   7   63.70    3.10
  -3 -11   6   79.90    3.65
   4 -11  -1    1.69    0.40
   4 -11   0   18.25    1.49
   4 -11   0   19.39    1.76
   4 -11   1   27.93    2.01
   4 -11   1   28.67    2.31
   4 -11   2    6.31    1.08
   4 -11   3   55.28    3.25
   4 -11   4   55.31    2.50
   4 -11   4   41.23    2.59
   4 -11   5   64.45    2.89
   4 -11   6   44.89    2.46
   4 -11   6   43.17    2.19
   4 -11   7    1.08    0.39
   4 -11   7    0.68    0.34
   4 -11   7    1.10    0.34
   4 -11   8    2.14    0.46
  -4  10   3   24.82    1.76
  -4  10   2   23.32    1.92
  -4  10   1  220.89    8.16
  -4  10   0  251.04    9.06
  -4  10  -1  102.67    4.86
   4 -10   1  117.46    4.77
   4 -10   2    1.53    0.57
   4 -10   2    0.84    0.62
   4 -10   3   16.45    1.65
   4 -10   3   14.34    1.49
   4 -10   3   15.89    1.92
   4 -10   4    0.07    0.38
   4 -10   4    0.88    0.48
   4 -10   4   -0.09    0.53
   4 -10   4    0.35    0.42
   4 -10   5    0.15    0.38
   4 -10   5    0.33    0.40
   4 -10   5    0.17    0.42
   4 -10   6   37.51    2.42
   4 -10   6   42.92    2.79
   4 -10   6   39.28    2.56
   4 -10   7  113.02    4.64
   4 -10   7  135.29    5.18
   4 -10   8   18.46    1.66
   4 -10   8   21.09    1.60
   4 -10   9   22.86    1.56
  -4  10  -9    7.45    0.82
  -4   9   5   70.53    3.49
   4  -9  -5   66.97    3.26
  -4   9   4   72.86    4.09
   4  -9  -4   77.34    4.05
  -4   9   3   84.48    4.83
  -4   9   2  114.72    6.16
   4  -9  -2  133.87    5.38
  -4   9   1    0.77    0.59
   4  -9  -1    0.97    0.55
  -4   9   0   19.33    2.26
   4  -9   0   25.05    2.22
  -4   9  -1  272.63   10.71
   4  -9   1  293.10   10.34
  -4   9  -2  273.18   10.19
   4  -9   2  259.37    9.35
   4  -9   2  275.17    9.97
   4  -9   2  274.20   10.79
   4  -9   3  185.82    7.54
   4  -9   3  177.07    7.19
   4  -9   3  185.82    8.18
   4  -9   4   72.72    4.04
   4  -9   4   76.30    4.24
   4  -9   4   74.27    4.59
   4  -9   5   47.64    3.14
   4  -9   5   45.79    3.16
   4  -9   5   44.04    3.40
   4  -9   6   15.02    1.91
   4  -9   7   23.01    2.06
   4  -9   7   26.47    2.24
   4  -9   8   13.93    1.45
   4  -9   8   12.70    1.50
   4  -9   8   12.81    1.48
   4  -9   9    2.54    0.53
   4  -9   9    1.81    0.57
   4  -9   9    2.04    0.57
  -4   9  -9    2.35    0.61
   4  -9  10   13.90    1.17
  -4   9 -10   14.76    1.23
   4  -8  -7    0.80    0.35
  -4   8   6    3.32    0.86
  -4   8   5   22.05    2.35
  -4   8   4   95.56    5.72
  -4   8   3  293.55   12.07
   4  -8  -3  303.54   11.88
  -4   8   2  180.34    8.74
   4  -8  -2  196.19    8.78
  -4   8   1   69.81    4.93
  -4   8   1   77.73    5.39
  -4   8   1   81.80    5.45
   4  -8  -1   85.51    4.72
   4  -8  -1   78.37    5.04
  -4   8   0   98.85    5.78
  -4   8   0  101.15    6.25
   4  -8   0  115.27    5.66
   4  -8   0  108.26    6.01
  -4   8  -1  358.96   13.25
   4  -8   1  380.70   12.92
  -4   8  -1  339.72   13.78
  -4   8  -1  365.78   14.20
  -4   8  -2  310.60   11.85
  -4   8  -2  330.41   13.19
   4  -8   2  329.98   11.68
  -4   8  -3   86.98    4.86
  -4   8  -3   90.82    5.92
   4  -8   3   97.35    5.02
   4  -8   3   95.38    5.40
  -4   8  -4  166.02    9.74
  -4   8  -4  158.09    8.30
   4  -8   4  156.77    7.40
  -4   8  -5   51.41    4.95
  -4   8  -5   50.67    4.36
   4  -8   5   44.42    3.62
   4  -8   5   55.75    3.85
   4  -8   6    0.54    0.50
   4  -8   6    1.45    0.72
   4  -8   7  190.63    7.90
   4  -8   7  193.23    7.83
   4  -8   7  196.49    7.71
   4  -8   8  116.30    5.49
   4  -8   8  135.92    5.68
   4  -8   8  123.15    5.59
   4  -8   9  255.40    8.76
   4  -8   9  264.13    8.95
   4  -8   9  240.75    8.69
  -4   8  -9  245.87    9.14
   4  -8  10   39.01    2.14
   4  -8  10   39.21    2.29
  -4   8 -10   38.21    2.39
  -4   8 -11    2.53    0.47
  -4   7   8  151.39    5.81
  -4   7   7   80.65    4.44
   4  -7  -7   69.41    4.22
   4  -7  -6   72.16    4.76
  -4   7   5   48.66    4.11
   4  -7  -5   51.69    4.19
   4  -7  -5   49.32    3.96
  -4   7   4   24.31    2.95
  -4   7   4   21.83    2.78
   4  -7  -4   25.51    2.96
   4  -7  -4   27.39    2.94
  -4   7   3    6.50    1.52
  -4   7   3    5.21    1.38
   4  -7  -3    6.93    1.53
   4  -7  -3    7.85    1.66
  -4   7   2    2.14    0.88
  -4   7   2    1.94    0.94
  -4   7   2    2.16    1.01
   4  -7  -2    2.87    1.07
  -4   7   1   17.41    2.38
  -4   7   1   14.45    2.14
  -4   7   0   74.96    5.01
  -4   7   0   78.09    5.16
  -4   7   0   80.78    4.92
   4  -7   0   77.06    4.77
  -4   7  -1    9.87    1.63
  -4   7  -1    9.34    1.75
   4  -7   1    8.55    1.44
   4  -7   1    9.85    1.64
  -4   7  -2 1072.44   31.49
  -4   7  -2  962.11   29.85
  -4   7  -3  824.05   26.27
  -4   7  -3  799.63   24.72
   4  -7   3  828.93   25.13
  -4   7  -4  791.42   27.72
   4  -7   4  787.09   23.95
   4  -7   4  806.50   24.56
  -4   7  -5   82.63    6.39
   4  -7   5   92.84    4.86
   4  -7   5   89.74    5.05
  -4   7  -6   26.05    3.42
   4  -7   6   31.63    2.64
   4  -7   6   30.85    2.77
  -4   7  -7    7.73    1.80
   4  -7   7    6.43    1.35
   4  -7   7    5.50    1.11
   4  -7   7    6.69    1.29
   4  -7   8   20.72    2.10
   4  -7   8   24.08    2.07
   4  -7   8   20.07    2.03
   4  -7   9   86.79    4.36
   4  -7   9   88.95    4.16
   4  -7   9   84.60    4.29
  -4   7  -9   85.36    4.66
   4  -7  10   22.41    1.77
   4  -7  10   21.19    1.74
  -4   7 -10   19.57    1.86
   4  -7  11    0.69    0.30
  -4   7 -11    0.51    0.31
  -4   6   9   26.74    1.94
   4  -6  -9   27.01    2.06
  -4   6   8  106.30    5.28
   4  -6  -8  101.38    5.31
   4  -6  -8   95.36    5.15
  -4   6   7   10.71    1.82
   4  -6  -7   11.38    1.83
   4  -6  -7   16.60    2.16
  -4   6   6   34.05    3.48
   4  -6  -6   37.58    3.54
   4  -6  -6   36.77    3.47
   4  -6  -5   38.80    3.70
   4  -6  -5   38.77    3.56
  -4   6   4   49.79    4.32
  -4   6   4   52.41    4.28
   4  -6  -4   54.03    4.25
   4  -6  -4   56.13    4.29
  -4   6   3  344.86   13.67
  -4   6   3  364.89   13.81
   4  -6  -3  333.69   13.28
   4  -6  -3  375.15   13.51
  -4   6   2  423.01   15.56
  -4   6   2  435.81   15.75
   4  -6  -2  455.38   15.60
   4  -6  -2  452.71   15.46
  -4   6   1  185.65    8.40
  -4   6   1  189.45    8.53
  -4   6   1  184.99    8.33
   4  -6  -1  201.91    8.32
  -4   6   0  289.35   11.18
  -4   6   0  272.11   10.61
   4  -6   0  285.15   10.56
  -4   6  -1   89.23    4.93
   4  -6   1   89.30    4.81
  -4   6  -2   28.31    2.50
  -4   6  -2   31.27    2.90
   4  -6   2   30.31    2.44
  -4   6  -3   28.29    2.49
   4  -6   3   31.44    2.46
   4  -6   3   28.76    2.49
   4  -6   4  397.74   13.66
  -4   6  -4  373.81   15.46
   4  -6   4  363.82   12.51
   4  -6   4  367.17   12.83
   4  -6   5  715.68   22.38
  -4   6  -5  668.93   23.96
   4  -6   5  665.66   20.70
   4  -6   5  668.43   21.05
   4  -6   6  414.81   15.60
  -4   6  -6  382.45   16.27
   4  -6   6  435.34   14.06
   4  -6   7   61.29    4.89
  -4   6  -7   67.19    5.32
   4  -6   7   68.15    4.22
   4  -6   7   67.36    3.98
   4  -6   8   53.45    3.62
   4  -6   8   52.84    3.42
   4  -6   8   54.29    3.21
  -4   6  -8   56.95    3.92
   4  -6   9    3.15    0.82
   4  -6   9    2.91    0.69
   4  -6   9    2.80    0.76
  -4   6  -9    1.64    0.69
   4  -6  10  167.81    6.36
   4  -6  10  149.28    6.07
  -4   6 -10  166.46    6.76
   4  -6  11   39.69    2.22
  -4   6 -11   38.98    2.39
   4  -5 -10  117.21    4.96
   4  -5 -10  121.04    5.17
  -4   5   9   53.53    3.41
   4  -5  -9   53.49    3.61
  -4   5   8    7.69    1.47
   4  -5  -8    4.88    1.28
  -4   5   7  225.32   10.22
   4  -5  -7  229.96   10.22
  -4   5   6  173.05    9.04
   4  -5  -6  184.92    8.82
  -4   5   5   37.28    3.79
  -4   5   5   35.37    3.42
   4  -5  -5   36.72    3.42
  -4   5   4   30.32    3.03
  -4   5   4   29.41    2.67
   4  -5  -4   29.84    2.89
  -4   5   3   11.82    1.78
  -4   5   3   11.68    1.55
   4  -5  -3   11.09    1.66
  -4   5   2   29.09    2.68
  -4   5   2   32.70    2.88
  -4   5   2   30.42    2.73
   4  -5  -2   28.04    2.52
   4  -5  -2   30.18    2.59
  -4   5   1   65.36    4.01
  -4   5   1   65.40    3.97
  -4   5   1   63.52    4.02
  -4   5   0 1372.02   39.28
  -4   5  -1 1157.68   33.65
   4  -5   2    3.36    0.77
  -4   5  -3   55.37    3.52
  -4   5  -3   71.82    5.17
   4  -5   3   71.09    3.93
   4  -5   3   62.63    3.44
   4  -5   3   62.09    3.56
   4  -5   4  210.49    8.44
  -4   5  -4  204.49    9.76
   4  -5   4  187.59    7.26
   4  -5   4  173.63    7.30
   4  -5   5  922.27   27.85
  -4   5  -5  895.60   29.08
   4  -5   5  892.51   25.82
   4  -5   5  840.87   25.96
   4  -5   6   12.52    2.10
  -4   5  -6   13.47    2.37
   4  -5   6   12.38    1.60
   4  -5   7  131.58    7.44
   4  -5   7  120.81    5.67
   4  -5   8  212.52   10.13
   4  -5   8  209.88    8.14
   4  -5   8  210.14    7.58
  -4   5  -8  207.13    8.91
   4  -5   9   81.73    4.21
  -4   5  -9   88.51    4.93
   4  -5  10  150.74    5.90
  -4   5 -10  162.62    6.75
  -4   5 -11  154.61    5.94
   4  -4 -11   50.58    2.72
  -4   4  10   32.26    2.49
   4  -4 -10   39.75    2.93
  -4   4   9    9.81    1.55
  -4   4   9    7.09    1.34
   4  -4  -9   10.52    1.72
  -4   4   8   26.32    2.84
   4  -4  -8   23.96    2.80
  -4   4   7  182.05    8.94
   4  -4  -7  169.32    8.47
  -4   4   6  217.18    9.24
  -4   4   6  224.41   10.68
   4  -4  -6  244.91   10.13
  -4   4   5  535.46   17.08
  -4   4   5  522.24   18.64
   4  -4  -5  513.17   17.60
  -4   4   4  213.96    9.36
  -4   4   4  221.06    9.08
  -4   4   4  219.24    8.36
   4  -4  -4  225.02    8.82
  -4   4   3   24.84    2.30
  -4   4   3   20.54    1.82
  -4   4   3   18.66    2.05
  -4   4   2   61.10    3.66
  -4   4   2   59.02    3.51
  -4   4   2   54.83    3.09
  -4   4   1   62.21    3.43
  -4   4   1   68.44    3.77
  -4   4   0   47.03    2.98
  -4   4  -1   12.65    1.48
   4  -4   2    4.21    0.78
   4  -4   3  172.46    7.02
   4  -4   4  474.08   15.53
  -4   4  -4  489.61   17.03
   4  -4   4  434.45   14.05
  -4   4  -5  397.58   15.40
   4  -4   5  411.32   14.59
   4  -4   5  389.73   12.74
   4  -4   6  675.46   22.30
  -4   4  -6  644.85   22.73
   4  -4   6  674.34   20.69
   4  -4   6  650.19   19.91
   4  -4   7  511.95   18.11
   4  -4   7  480.30   16.16
   4  -4   7  482.18   15.50
  -4   4  -7  491.17   16.65
   4  -4   8  103.72    6.64
   4  -4   8  112.42    5.20
   4  -4   8  114.68    5.68
  -4   4  -8  121.22    6.18
   4  -4   9    3.50    0.88
   4  -4   9    3.87    0.84
  -4   4  -9    3.72    1.06
   4  -4  10    6.55    1.09
  -4   4 -10    7.32    1.24
   4  -4  11   22.84    1.68
  -4   4 -11   21.38    1.76
  -4   3  12   43.38    2.29
   4  -3 -12   42.80    2.15
  -4   3  11  113.42    5.43
   4  -3 -11  126.22    5.54
   4  -3 -10  271.87   10.64
  -4   3   9  148.08    6.99
   4  -3  -9  148.27    7.47
  -4   3   8  479.19   16.66
   4  -3  -8  452.20   16.62
  -4   3   7   92.65    5.39
  -4   3   7  105.84    6.33
   4  -3  -7   94.81    5.72
  -4   3   6    1.55    0.63
  -4   3   6    2.47    1.02
   4  -3  -6    2.07    0.77
  -4   3   5   14.49    1.65
  -4   3   4   12.30    1.54
  -4   3   4    8.50    1.12
  -4   3   3  287.34    8.98
  -4   3   3  292.12    9.92
  -4   3   3  277.08    8.93
  -4   3   2    1.85    0.56
  -4   3   2    1.75    0.60
  -4   3   2    2.00    0.55
  -4   3   2    2.03    0.35
  -4   3   1    1.72    0.46
  -4   3   1    2.06    0.57
  -4   3   0   25.53    1.55
  -4   3   0   28.08    1.95
  -4   3  -1 1358.28   38.39
   4  -3   1 1432.10   37.93
   4  -3   2  499.46   14.73
  -4   3  -2  450.41   16.30
   4  -3   3  362.17   12.53
   4  -3   4   21.97    2.38
  -4   3  -4   21.85    2.59
   4  -3   5   56.25    4.19
  -4   3  -5   54.17    4.31
   4  -3   5   50.00    3.26
   4  -3   5   44.74    2.76
  -4   3  -5   48.00    3.33
   4  -3   6   13.55    2.19
   4  -3   6   13.84    1.71
   4  -3   6   11.96    1.41
  -4   3  -6   12.37    1.77
   4  -3   7  165.66    8.80
   4  -3   7  159.79    6.48
   4  -3   7  164.51    7.17
  -4   3  -7  166.99    7.63
   4  -3   8  251.97    9.56
  -4   3  -8  242.65   10.05
   4  -3   9  310.44   10.89
  -4   3  -9  300.32   11.43
   4  -3  10   92.60    4.37
  -4   3 -10   89.81    4.65
   4  -3  11   83.97    3.52
  -4   3 -11   79.26    3.63
  -4   3 -11   72.46    3.30
  -4   2  13   37.37    2.02
  -4   2  12   48.13    3.12
   4  -2 -12   48.19    2.78
   4  -2 -11    1.87    0.74
   4  -2 -10   12.69    1.87
  -4   2   9    1.48    0.65
   4  -2  -9    3.25    1.05
  -4   2   8   72.30    4.65
   4  -2  -8   69.46    4.67
  -4   2   7  141.14    7.08
   4  -2  -7  121.75    6.33
  -4   2   5   50.45    3.00
  -4   2   4  835.13   24.72
  -4   2   4  935.06   24.55
  -4   2   3  683.55   20.10
  -4   2   2  427.11   14.11
  -4   2   1   63.92    2.97
  -4   2   0   78.30    4.20
  -4   2   0   72.85    3.08
   4  -2   0   74.41    2.61
  -4   2  -1   53.17    2.44
   4  -2   1   64.79    3.05
  -4   2  -1   62.10    3.76
  -4   2  -2   20.42    1.27
   4  -2   2   21.82    1.92
  -4   2  -2   21.65    2.24
   4  -2   3  481.22   15.86
   4  -2   4 1192.49   34.16
   4  -2   4 1110.95   32.27
   4  -2   5  145.07    7.39
   4  -2   5  131.22    5.91
  -4   2  -5  128.71    6.17
   4  -2   6  232.63   10.70
   4  -2   6  230.80    8.88
  -4   2  -6  225.08    9.39
   4  -2   7   55.61    4.69
   4  -2   7   52.62    3.52
  -4   2  -7   52.97    3.91
   4  -2   8    8.94    1.41
  -4   2  -8    7.20    1.42
   4  -2   9   28.05    2.35
  -4   2  -9   28.58    2.64
   4  -2  10   60.06    3.20
  -4   2 -10   60.40    3.47
  -4   2 -10   51.23    3.01
  -4   2 -11   98.39    3.52
  -4   2 -11   57.59    2.64
  -4   1  13   76.86    3.91
  -4   1  12  106.65    5.62
   4  -1 -12  101.58    4.82
  -4   1  11  124.42    5.92
   4  -1 -11  113.08    5.83
  -4   1  10  224.43    9.54
   4  -1 -10  224.90    9.45
  -4   1   9  230.44   10.01
   4  -1  -9  245.75    9.98
  -4   1   8  260.66   10.73
  -4   1   7  184.23    8.68
  -4   1   7  243.19    8.62
  -4   1   6  131.22    5.89
  -4   1   5    6.49    1.11
  -4   1   5    8.82    0.87
  -4   1   4  372.25   12.92
  -4   1   4  418.29   12.37
  -4   1   3 1420.20   39.63
  -4   1   2  256.04    9.66
   4  -1  -1 1015.79   27.79
  -4   1   1 1127.24   29.58
   4  -1   0   74.10    3.22
  -4   1   0   74.29    3.89
   4  -1   1   19.97    1.75
  -4   1  -1   23.07    2.08
   4  -1   2  337.52   11.60
  -4   1  -2  337.85   12.05
   4  -1   3    9.03    1.47
   4  -1   4   54.20    3.96
   4  -1   4   46.87    2.93
  -4   1  -4   49.40    3.31
   4  -1   5    7.67    1.59
   4  -1   5    7.97    1.23
  -4   1  -5    7.90    1.39
   4  -1   6   80.05    5.66
   4  -1   6   75.71    4.23
  -4   1  -6   80.67    4.93
   4  -1   7  262.63   11.95
   4  -1   7  264.44    9.86
  -4   1  -7  260.91   10.67
   4  -1   8  130.51    5.96
  -4   1  -8  125.34    6.46
   4  -1   9  174.83    6.98
  -4   1  -9  179.16    7.56
  -4   1  -9  174.83    7.03
  -4   1 -10   51.47    2.53
  -4   1 -10   59.21    3.19
  -4   1 -10   51.08    2.70
  -4   0  14   40.90    2.32
  -4   0  13   16.32    1.84
  -4   0  12   35.83    2.90
   4   0 -12   32.52    2.55
  -4   0  11   48.69    3.87
   4   0 -11   46.32    3.41
  -4   0  10   52.04    3.78
  -4   0   9  125.41    5.82
  -4   0   9  110.65    6.08
  -4   0   8  502.79   15.69
  -4   0   8  429.20   15.89
  -4   0   7  119.08    6.08
  -4   0   6  354.87   13.07
  -4   0   6  384.86   11.46
  -4   0   5 1350.49   36.32
  -4   0   5 1309.81   34.52
  -4   0   4  388.46   13.22
  -4   0   4  402.44   12.64
  -4   0   3  581.32   18.12
  -4   0   3  574.24   16.16
  -4   0   2  244.31    7.71
  -4   0   1    6.78    1.36
  -4   0   1    9.04    1.04
  -4   0   0  309.91   11.83
   4   0   0  295.52    8.79
   4   0   1  150.35    5.39
   4   0   2  116.36    4.90
   4   0   3   89.30    4.49
   4   0   4  364.11   13.10
   4   0   4  371.09   14.28
   4   0   4  393.99   12.37
  -4   0  -4  381.32   13.31
   4   0   5  501.82   17.11
   4   0   5  550.60   18.74
   4   0   5  524.59   16.03
  -4   0  -5  514.10   17.17
   4   0   6   65.66    5.08
   4   0   6   57.04    3.60
  -4   0  -6   55.63    4.11
   4   0   7   54.95    4.71
   4   0   7   53.62    3.50
  -4   0  -7   58.85    4.18
  -4   0  -7   55.07    3.65
   4   0   8    7.67    1.23
  -4   0  -8    8.38    1.50
  -4   0  -8    9.74    1.40
  -4   0  -9   12.46    1.35
  -4   0  -9   13.10    1.59
  -4   0  -9   11.50    1.30
  -4   0 -10   46.02    2.53
  -4  -1  14   30.42    1.83
  -4  -1  14   35.78    2.36
  -4  -1  13  213.09    8.35
  -4  -1  12   95.69    5.52
  -4  -1  12   86.46    4.71
  -4  -1  11  148.13    7.17
  -4  -1  10  202.32    8.21
  -4  -1  10  187.67    8.81
  -4  -1   9   74.84    4.44
  -4  -1   9   61.32    4.50
  -4  -1   9   61.05    4.53
  -4  -1   8   33.05    2.87
  -4  -1   8   31.64    3.19
  -4  -1   8   30.31    2.74
  -4  -1   8   32.26    3.15
  -4  -1   7    4.13    1.19
  -4  -1   7    2.92    0.73
  -4  -1   6    5.88    1.29
  -4  -1   6    0.99    0.39
  -4  -1   5   14.99    1.21
  -4  -1   5   17.35    2.02
  -4  -1   5   16.54    1.52
  -4  -1   4   51.65    2.41
  -4  -1   4   58.94    3.30
  -4  -1   3 2063.14   56.87
  -4  -1   2 3142.57   85.23
  -4  -1   1  360.85   13.05
  -4  -1   0  903.51   28.05
  -4  -1  -1  173.77    8.47
   4   1   1  176.60    6.74
  -4  -1  -2  179.78    9.03
   4   1   2  190.94    7.54
  -4  -1  -3  135.61    7.70
  -4  -1  -3  139.29    6.72
   4   1   3  143.95    6.57
  -4  -1  -3  154.96    6.75
   4   1   4   26.21    2.58
  -4  -1  -4   17.46    2.63
  -4  -1  -4   24.37    2.42
   4   1   4   22.83    2.01
  -4  -1  -4   23.61    2.47
  -4  -1  -4   24.09    2.17
   4   1   5   29.81    2.99
   4   1   5   33.60    3.61
   4   1   5   30.43    2.45
  -4  -1  -5   32.00    3.05
  -4  -1  -5   31.69    2.66
  -4  -1  -6   50.69    3.59
   4   1   6   50.35    4.55
   4   1   6   60.70    3.62
  -4  -1  -6   57.93    4.22
  -4  -1  -6   54.72    3.65
  -4  -1  -7  140.64    5.85
   4   1   7  137.33    6.05
  -4  -1  -7  136.43    6.84
  -4  -1  -7  129.22    6.06
  -4  -1  -8  267.81    9.43
  -4  -1  -8  257.63    9.97
  -4  -1  -9  107.66    4.78
  -4  -2  14   54.50    3.14
  -4  -2  14   57.60    3.23
  -4  -2  13    3.32    0.99
  -4  -2  13    2.78    0.79
  -4  -2  13    3.01    0.93
  -4  -2  12   78.29    5.04
  -4  -2  12   73.43    4.66
  -4  -2  11   24.40    2.40
  -4  -2  11   29.27    3.01
  -4  -2  10   70.17    4.46
  -4  -2  10   63.39    4.71
  -4  -2  10   56.57    4.68
  -4  -2   9  351.39   14.52
  -4  -2   9  375.88   15.21
  -4  -2   9  387.52   14.24
  -4  -2   8  543.94   17.61
  -4  -2   8  585.85   18.39
  -4  -2   8  545.33   18.10
  -4  -2   8  471.62   18.67
  -4  -2   8  491.72   19.44
  -4  -2   8  567.02   17.89
  -4  -2   7  543.73   17.91
  -4  -2   7  490.10   19.21
  -4  -2   7  571.78   17.08
  -4  -2   7  512.22   18.44
  -4  -2   6  261.96    9.20
  -4  -2   6  280.26   11.43
  -4  -2   5  374.75   12.22
  -4  -2   5  412.32   14.28
  -4  -2   5  409.50   12.77
  -4  -2   4    0.87    0.57
  -4  -2   4    1.04    0.44
  -4  -2   3  410.60   13.69
  -4  -2   2    8.00    1.28
  -4  -2   2    8.83    1.46
  -4  -2   1  154.46    7.14
  -4  -2   0  672.49   21.85
  -4  -2  -1  555.90   18.98
  -4  -2  -2  419.21   15.68
  -4  -2  -2  420.46   14.60
   4   2   2  433.79   14.90
  -4  -2  -2  430.16   13.43
  -4  -2  -2  449.75   14.74
  -4  -2  -2  441.48   13.71
  -4  -2  -3  296.46   10.94
   4   2   3  301.68   11.68
  -4  -2  -3  306.07   11.56
   4   2   4  133.92    6.95
  -4  -2  -4  142.43    6.70
  -4  -2  -4  131.35    6.91
  -4  -2  -5  191.76    7.80
   4   2   5  169.45    8.25
   4   2   5  152.30    8.80
   4   2   5  181.97    7.23
  -4  -2  -5  182.71    8.44
  -4  -2  -5  169.25    7.38
  -4  -2  -6   86.27    4.36
  -4  -2  -6   85.57    4.99
  -4  -2  -6   89.70    5.37
  -4  -2  -6   81.83    4.53
  -4  -2  -7    0.98    0.54
  -4  -2  -7    0.31    0.52
  -4  -2  -8    5.43    0.78
  -4  -2  -8    4.82    0.97
   4   2   9   23.08    1.30
  -4  -2  -9   23.34    1.55
  -4  -3  14   88.71    4.35
  -4  -3  14   69.61    3.67
  -4  -3  13  264.31   10.33
  -4  -3  13  233.63    9.44
  -4  -3  13  248.57    9.60
  -4  -3  12  126.35    5.85
  -4  -3  12  134.71    6.80
  -4  -3  12  129.34    6.82
  -4  -3  11  168.18    7.63
  -4  -3  11  173.08    8.20
  -4  -3  11  161.70    8.25
  -4  -3  11  146.62    8.35
  -4  -3  10    2.23    0.88
  -4  -3  10    1.45    0.78
  -4  -3  10    0.31    0.50
  -4  -3  10    1.35    0.73
  -4  -3   9   12.91    1.96
  -4  -3   9   15.99    2.22
  -4  -3   9   11.43    1.75
  -4  -3   9   10.19    1.78
  -4  -3   9   10.89    2.11
  -4  -3   9   10.70    2.29
  -4  -3   9   10.69    1.85
  -4  -3   8    3.22    1.01
  -4  -3   8    3.82    1.10
  -4  -3   8    1.46    0.77
  -4  -3   8    5.88    1.70
  -4  -3   8    4.47    1.61
  -4  -3   8    4.61    1.13
  -4  -3   8    4.09    1.04
  -4  -3   7   14.45    2.07
  -4  -3   7   12.44    1.81
  -4  -3   7   15.83    2.11
  -4  -3   7   16.38    1.91
  -4  -3   7   17.46    2.83
  -4  -3   7   15.53    2.30
  -4  -3   7   15.15    2.27
  -4  -3   6  415.41   13.76
  -4  -3   6  417.24   15.82
  -4  -3   5  213.52    8.20
  -4  -3   5  228.64    8.32
  -4  -3   4  688.64   21.56
  -4  -3   4  664.73   20.28
  -4  -3   4  682.03   20.61
  -4  -3   3  204.27    8.40
  -4  -3   3  203.10    8.11
  -4  -3   2  361.46   12.62
  -4  -3   2  361.22   12.72
  -4  -3   1  575.62   18.71
  -4  -3   0  618.40   19.25
  -4  -3   0  596.05   19.71
  -4  -3   0  627.36   19.26
  -4  -3   0  582.05   19.13
  -4  -3   0  638.09   18.32
  -4  -3   0  599.20   18.58
  -4  -3  -1  177.65    8.21
  -4  -3  -1  204.47    8.08
  -4  -3  -1  190.98    8.15
  -4  -3  -1  198.34    7.38
  -4  -3  -1  190.47    8.13
  -4  -3  -1  198.45    7.41
   4   3   2   76.21    4.95
  -4  -3  -2   79.20    4.65
  -4  -3  -2   86.44    5.18
  -4  -3  -2   71.95    3.70
  -4  -3  -2   79.96    4.87
  -4  -3  -3    9.11    1.52
   4   3   3    9.26    1.73
  -4  -3  -3    7.10    1.51
  -4  -3  -3    7.86    1.57
  -4  -3  -4  307.19   11.12
   4   3   4  290.37   12.02
  -4  -3  -4  309.39   12.00
  -4  -3  -4  297.85   12.07
  -4  -3  -5  176.93    7.05
  -4  -3  -5  177.75    7.91
  -4  -3  -5  171.44    8.29
  -4  -3  -6  248.10    9.29
  -4  -3  -6  238.10    9.89
  -4  -3  -7  138.22    5.44
  -4  -3  -7  149.30    6.37
   4   3   8  169.53    5.55
  -4  -3  -8  153.09    5.79
  -4  -4  15   47.78    2.42
  -4  -4  14    2.90    0.81
  -4  -4  14    3.95    0.84
  -4  -4  13    6.48    1.17
  -4  -4  13    7.76    1.49
  -4  -4  13    7.39    1.04
  -4  -4  13    7.81    1.45
  -4  -4  12   25.77    2.56
  -4  -4  12   24.95    2.44
  -4  -4  12   25.74    2.86
  -4  -4  11  408.40   14.49
  -4  -4  11  400.06   14.21
  -4  -4  11  351.30   13.86
  -4  -4  11  407.75   15.37
  -4  -4  11  380.33   15.85
  -4  -4  10  282.53   11.53
  -4  -4  10  279.58   10.92
  -4  -4  10  260.94   11.23
  -4  -4  10  274.61   12.30
  -4  -4  10  261.24   12.91
  -4  -4  10  260.40   11.54
  -4  -4   9  283.45   10.87
  -4  -4   9  277.02   11.16
  -4  -4   9  291.58   11.93
  -4  -4   9  277.20   11.79
  -4  -4   9  274.19   11.63
  -4  -4   9  254.30   13.44
  -4  -4   8    8.07    1.37
  -4  -4   8    4.78    1.32
  -4  -4   8    7.83    1.56
  -4  -4   8    9.39    2.36
  -4  -4   8    4.51    1.18
  -4  -4   8    4.94    1.46
  -4  -4   8    8.50    1.89
  -4  -4   7  256.20    9.49
  -4  -4   7  258.71   11.00
  -4  -4   7  261.20   10.18
  -4  -4   7  262.93   10.47
  -4  -4   7  267.87   10.36
  -4  -4   7  276.53   12.54
  -4  -4   7  249.95    8.47
  -4  -4   7  221.89   11.45
  -4  -4   7  274.58   11.11
  -4  -4   7  243.22    8.51
  -4  -4   6  245.98   11.24
  -4  -4   6  262.55   10.65
  -4  -4   6  269.37   10.36
  -4  -4   6  265.32   11.95
  -4  -4   6  260.81   10.22
  -4  -4   6  279.95    8.93
  -4  -4   5   99.88    6.38
  -4  -4   5   98.48    5.63
  -4  -4   5  102.27    5.93
  -4  -4   5   97.53    5.20
  -4  -4   5  104.59    4.43
  -4  -4   5  102.53    6.04
  -4  -4   4   70.30    4.53
  -4  -4   4   65.71    4.07
  -4  -4   4   65.77    3.88
  -4  -4   4   68.36    3.49
  -4  -4   4   72.25    4.62
  -4  -4   4   66.24    3.58
  -4  -4   3   60.29    4.01
  -4  -4   3   57.37    3.58
  -4  -4   3   52.25    3.10
  -4  -4   3   57.85    3.31
  -4  -4   3   53.48    3.03
  -4  -4   3   58.47    4.89
  -4  -4   2    2.02    0.87
  -4  -4   2    0.97    0.55
  -4  -4   2    4.49    1.01
  -4  -4   2    1.64    0.59
  -4  -4   2    1.58    0.59
  -4  -4   2    1.56    0.57
  -4  -4   2    2.04    1.10
  -4  -4   1  137.99    6.27
  -4  -4   1  143.31    7.93
  -4  -4   1  132.06    6.29
  -4  -4   1  130.73    5.87
  -4  -4   1  136.20    6.38
  -4  -4   1  136.35    6.36
  -4  -4   1  143.12    5.96
  -4  -4   0  374.29   13.80
  -4  -4   0  419.37   13.65
  -4  -4   0  413.52   14.29
  -4  -4   0  423.11   14.66
  -4  -4   0  441.27   13.63
  -4  -4   0  413.99   13.65
  -4  -4  -1 1485.49   42.69
  -4  -4  -1 1631.02   45.48
  -4  -4  -1 1456.55   41.62
  -4  -4  -1 1552.85   43.50
  -4  -4  -1 1471.93   41.48
  -4  -4  -1 1456.14   43.32
  -4  -4  -2  215.63    8.62
  -4  -4  -2  205.07    9.24
   4   4   2  200.03    9.46
  -4  -4  -2  201.57    7.54
  -4  -4  -2  195.84    8.98
  -4  -4  -2  204.09    9.27
  -4  -4  -3  205.01    8.31
   4   4   3  194.30    9.38
  -4  -4  -3  212.09    9.15
  -4  -4  -3  214.39    9.62
  -4  -4  -4   78.55    4.11
  -4  -4  -4   78.68    4.77
  -4  -4  -4   76.74    5.11
  -4  -4  -5   46.58    3.23
  -4  -4  -5   50.66    3.76
  -4  -4  -6   11.02    1.24
  -4  -4  -6   10.38    1.48
   4   4   7   43.63    2.26
  -4  -5  14  195.16    7.65
  -4  -5  14  203.96    7.62
  -4  -5  13  189.88    8.12
  -4  -5  13  173.95    6.89
  -4  -5  13  182.00    7.96
  -4  -5  12  193.27    8.74
  -4  -5  12  167.60    7.63
  -4  -5  12  171.32    8.40
  -4  -5  11  174.68    8.70
  -4  -5  11  167.31    8.08
  -4  -5  11  153.47    7.85
  -4  -5  10    6.39    1.53
  -4  -5  10    5.43    1.49
  -4  -5  10    3.43    1.03
  -4  -5  10    3.31    1.21
  -4  -5  10    8.24    1.89
  -4  -5  10    3.17    1.39
  -4  -5  10    2.97    1.09
  -4  -5   9  388.44   15.72
  -4  -5   9  403.37   15.31
  -4  -5   9  447.70   15.80
  -4  -5   9  395.33   15.59
  -4  -5   9  445.95   18.71
  -4  -5   9  403.55   16.13
  -4  -5   9  440.59   16.96
  -4  -5   8   64.23    5.02
  -4  -5   8   70.99    4.58
  -4  -5   8   57.09    4.27
  -4  -5   8   60.28    4.79
  -4  -5   8   62.07    4.66
  -4  -5   8   51.37    4.92
  -4  -5   8   69.85    5.15
  -4  -5   8   55.96    3.30
  -4  -5   7   16.06    2.55
  -4  -5   7   16.18    1.96
  -4  -5   7   17.58    2.56
  -4  -5   7   14.60    2.17
  -4  -5   7   19.43    2.93
  -4  -5   7   14.69    2.13
  -4  -5   7   15.52    1.55
  -4  -5   7   16.33    2.18
  -4  -5   7   16.23    2.90
  -4  -5   7   17.78    1.70
  -4  -5   6   45.40    4.40
  -4  -5   6   45.86    3.84
  -4  -5   6   49.46    4.33
  -4  -5   6   42.26    3.54
  -4  -5   6   42.85    2.72
  -4  -5   6   53.93    4.67
  -4  -5   6   42.92    3.31
  -4  -5   6   48.93    2.85
  -4  -5   6   41.41    2.78
  -4  -5   5   34.01    4.13
  -4  -5   5   33.66    3.26
  -4  -5   5   33.18    3.33
  -4  -5   5   31.20    3.01
  -4  -5   5   32.09    2.33
  -4  -5   5   31.62    3.28
  -4  -5   5   33.77    2.32
  -4  -5   5   32.72    2.43
  -4  -5   5   33.87    2.42
  -4  -5   4  482.64   17.42
  -4  -5   4  434.44   16.25
  -4  -5   4  426.86   15.73
  -4  -5   4  454.19   14.25
  -4  -5   4  442.38   15.69
  -4  -5   4  428.74   13.37
  -4  -5   4  454.66   14.17
  -4  -5   4  457.95   14.56
  -4  -5   4  471.64   14.50
  -4  -5   3  463.09   16.29
  -4  -5   3  499.26   15.29
  -4  -5   3  459.44   16.07
  -4  -5   3  491.31   15.84
  -4  -5   3  483.59   19.48
  -4  -5   3  480.95   15.23
  -4  -5   2  154.79    8.69
  -4  -5   2  170.63    7.23
  -4  -5   2  170.82    6.84
  -4  -5   2  163.58    7.35
  -4  -5   2  168.23    6.95
  -4  -5   1  164.17    6.85
  -4  -5   1  166.88    9.44
  -4  -5   1  173.61    7.46
  -4  -5   1  169.89    6.97
  -4  -5   0   33.04    2.78
  -4  -5   0   26.84    3.59
  -4  -5   0   24.36    2.12
  -4  -5   0   25.27    2.66
  -4  -5   0   26.07    2.81
  -4  -5  -1   22.92    2.97
  -4  -5  -1   24.79    2.43
  -4  -5  -1   22.49    1.93
  -4  -5  -1   21.93    2.53
  -4  -5  -1   26.83    2.92
  -4  -5  -2    6.30    1.41
  -4  -5  -2    3.10    0.85
   4   5   2    3.69    1.17
  -4  -5  -2    4.20    1.16
  -4  -5  -2    3.54    1.13
  -4  -5  -3  188.95    8.22
  -4  -5  -3  190.68    8.83
  -4  -5  -3  193.59    7.42
  -4  -5  -4  247.13    9.14
  -4  -5  -4  232.45    9.73
   4   5   5  168.44    6.39
  -4  -5  -5  171.58    6.33
   4   5   6   63.71    2.84
  -4  -6  14    6.21    0.95
  -4  -6  14    5.67    0.98
  -4  -6  13   12.17    1.61
  -4  -6  13   10.18    1.33
  -4  -6  13   11.51    1.66
  -4  -6  12   96.14    5.25
  -4  -6  12   96.11    5.41
  -4  -6  12   91.52    5.26
  -4  -6  11   88.93    5.42
  -4  -6  11   86.12    5.45
  -4  -6  11   81.84    5.40
  -4  -6  11   85.91    5.65
  -4  -6  10   43.59    3.66
  -4  -6  10   38.93    3.44
  -4  -6  10   46.02    4.13
  -4  -6  10   40.02    3.96
  -4  -6  10   46.97    4.98
  -4  -6  10   44.35    4.13
  -4  -6  10   49.28    4.33
  -4  -6   9  333.73   13.72
  -4  -6   9  335.43   12.32
  -4  -6   9  335.46   13.29
  -4  -6   9  299.83   13.10
  -4  -6   9  363.55   13.76
  -4  -6   9  333.00   14.12
  -4  -6   9  290.92   10.90
  -4  -6   8  706.31   22.25
  -4  -6   8  683.70   23.26
  -4  -6   8  691.73   24.30
  -4  -6   8  702.37   23.98
  -4  -6   8  744.94   25.74
  -4  -6   8  766.15   23.74
  -4  -6   8  687.69   21.56
  -4  -6   7   26.33    3.47
  -4  -6   7   35.41    3.45
  -4  -6   7   30.19    3.63
  -4  -6   7   28.00    3.13
  -4  -6   7   26.44    2.21
  -4  -6   7   34.75    3.98
  -4  -6   7   29.97    2.84
  -4  -6   7   24.93    2.26
  -4  -6   6    3.96    1.27
  -4  -6   6    3.63    1.38
  -4  -6   6    4.65    1.02
  -4  -6   6    8.31    1.86
  -4  -6   6    4.15    1.29
  -4  -6   6    4.54    1.24
  -4  -6   6    4.71    0.95
  -4  -6   5    1.97    0.96
  -4  -6   5    1.62    0.65
  -4  -6   5    2.80    1.29
  -4  -6   5    0.57    0.65
  -4  -6   5    2.74    1.08
  -4  -6   4   18.15    2.52
  -4  -6   4   16.50    2.52
  -4  -6   4   13.02    1.96
  -4  -6   4   16.43    1.74
  -4  -6   4   12.75    1.92
  -4  -6   4   12.72    2.63
  -4  -6   3  119.78    5.43
  -4  -6   3  111.00    8.09
  -4  -6   3  115.18    5.70
  -4  -6   2  190.61    7.51
  -4  -6   2  193.08    8.04
  -4  -6   2  211.46   10.86
  -4  -6   1  419.39   13.24
  -4  -6   1  409.76   14.02
  -4  -6   0   91.21    6.43
  -4  -6   0   89.52    4.32
  -4  -6   0   97.40    5.58
  -4  -6   0   99.00    5.13
  -4  -6  -1   35.25    3.48
  -4  -6  -1   35.30    3.10
  -4  -6  -1   36.60    2.79
  -4  -6  -2  218.14    9.14
  -4  -6  -2  233.41    9.26
  -4  -6  -2  236.94    8.39
   4   6   3   39.27    2.56
  -4  -6  -3   41.34    2.84
  -4  -6  -3   35.20    2.11
   4   6   4   44.78    2.52
   4   6   5    2.50    0.44
  -4  -7  13  102.79    4.63
  -4  -7  13  112.52    5.16
  -4  -7  12   76.37    4.51
  -4  -7  12   80.61    4.74
  -4  -7  12   91.15    4.97
  -4  -7  11  178.13    8.34
  -4  -7  11  174.28    8.44
  -4  -7  11  192.72    8.49
  -4  -7  10   18.91    2.64
  -4  -7  10   18.14    2.29
  -4  -7  10   22.67    2.91
  -4  -7  10   20.11    2.49
  -4  -7   9    0.83    0.48
  -4  -7   9    1.34    0.83
  -4  -7   9    1.37    0.76
  -4  -7   9    0.35    0.76
  -4  -7   9    1.32    0.74
  -4  -7   8  570.80   20.94
  -4  -7   8  574.42   20.95
  -4  -7   8  559.28   19.69
  -4  -7   8  591.73   21.48
  -4  -7   8  553.96   20.33
  -4  -7   8  583.11   18.90
  -4  -7   8  571.44   18.31
  -4  -7   7  587.22   22.23
  -4  -7   7  624.52   21.52
  -4  -7   7  605.07   21.92
  -4  -7   7  607.14   21.63
  -4  -7   7  621.54   19.67
  -4  -7   6  360.04   15.21
  -4  -7   6  380.40   14.68
  -4  -7   6  320.97   13.81
  -4  -7   6  408.47   14.86
  -4  -7   6  360.70   12.71
  -4  -7   5    4.02    1.34
  -4  -7   5    4.38    1.36
  -4  -7   5    6.91    1.57
  -4  -7   5    3.55    0.89
  -4  -7   4    1.15    0.57
  -4  -7   4    1.84    1.03
  -4  -7   4    1.99    0.79
  -4  -7   4    0.77    0.52
  -4  -7   3   67.79    3.84
  -4  -7   3   64.28    4.07
  -4  -7   2   41.17    2.81
  -4  -7   2   39.00    4.17
  -4  -7   2   46.66    3.32
  -4  -7   1   10.24    1.28
  -4  -7   1    7.16    1.79
  -4  -7   1    9.00    1.41
  -4  -7   0    1.96    0.91
  -4  -7   0    1.24    0.54
  -4  -7  -1    1.86    0.82
  -4  -7  -1    1.94    0.58
   4   7   2   20.27    1.58
  -4  -7  -2   20.03    1.42
   4   7   3  104.61    3.82
  -4  -8  13   89.04    3.77
  -4  -8  12  437.80   14.15
  -4  -8  12  427.87   13.77
  -4  -8  12  444.31   14.52
  -4  -8  11  178.52    7.75
  -4  -8  11  184.24    8.08
  -4  -8  11  163.37    6.96
  -4  -8  10  116.39    6.08
  -4  -8  10  143.27    7.27
  -4  -8   9  107.87    6.32
  -4  -8   9   97.96    5.97
  -4  -8   9   95.19    4.91
  -4  -8   8   47.34    4.16
  -4  -8   8   45.06    3.68
  -4  -8   8   44.81    4.16
  -4  -8   8   54.66    4.45
  -4  -8   8   46.44    3.23
  -4  -8   7    7.33    1.57
  -4  -8   7   10.01    1.97
  -4  -8   7    8.16    1.75
  -4  -8   7   10.00    1.49
  -4  -8   6    0.15    0.55
  -4  -8   6    0.14    0.57
  -4  -8   6    1.01    0.65
  -4  -8   6    0.50    0.72
  -4  -8   5   64.80    4.33
  -4  -8   5   65.07    4.92
  -4  -8   4   48.94    4.36
  -4  -8   4   62.29    3.86
  -4  -8   3    7.25    1.77
  -4  -8   3    9.09    1.44
  -4  -8   2   52.39    3.33
  -4  -8   1   77.06    4.95
  -4  -8   1   78.09    3.94
  -4  -8   0  188.22    7.72
  -4  -8   0  184.59    6.58
  -4  -8  -1  103.55    4.40
  -4  -9  12    5.55    0.85
  -4  -9  11   11.87    1.46
  -4  -9  10   27.09    2.26
  -4  -9  10   32.45    2.67
  -4  -9  10   34.97    2.91
  -4  -9   9   81.82    4.83
  -4  -9   9   86.60    4.91
  -4  -9   9   93.63    5.22
  -4  -9   8   15.68    1.87
  -4  -9   8   18.42    2.40
  -4  -9   8   20.26    2.29
  -4  -9   8   21.07    2.35
  -4  -9   8   20.17    1.94
  -4  -9   7  146.44    6.70
  -4  -9   7  143.10    6.80
  -4  -9   7  127.82    7.21
  -4  -9   7  144.26    6.22
  -4  -9   6  197.62    9.57
  -4  -9   6  215.88    9.10
  -4  -9   5  414.37   15.31
  -4  -9   5  447.88   14.26
  -4  -9   4   59.95    4.34
  -4  -9   4   80.16    4.02
  -4  -9   3    1.42    0.71
  -4  -9   3    1.24    0.73
  -4  -9   3    1.54    0.56
  -4  -9   2    2.78    0.63
  -4  -9   2    2.63    0.73
  -4  -9   1    1.84    0.60
  -4  -9   1    1.41    0.37
  -4 -10  10  123.61    4.67
  -4 -10   9   35.34    2.34
  -4 -10   9   39.46    2.29
  -4 -10   8    0.53    0.47
  -4 -10   7    1.28    0.64
  -4 -10   7    0.65    0.42
  -4 -10   6    7.39    1.12
  -4 -10   6    6.94    1.23
  -4 -10   6    7.10    0.99
  -4 -10   5   92.75    4.53
  -4 -10   5   96.23    4.80
  -4 -10   5  108.62    4.30
  -4 -10   4   93.74    4.39
  -4 -10   4   92.75    4.27
  -4 -10   4  104.90    3.99
  -4 -10   3   64.03    3.10
   5 -11  -1   25.73    1.69
   5 -11   0    1.41    0.45
   5 -11   0    1.43    0.51
   5 -11   1   11.62    1.21
   5 -11   1   10.55    1.23
   5 -11   2    0.71    0.28
   5 -11   2    0.73    0.38
   5 -11   2    0.27    0.32
   5 -11   3    9.45    0.92
   5 -11   3    9.85    1.14
   5 -11   4   82.62    3.34
   5 -11   4   85.24    3.74
   5 -11   5   85.25    3.54
   5 -11   5  107.62    3.76
   5 -11   6   54.04    2.52
   5 -11   6   61.24    2.49
  -5  10   3    4.18    0.72
   5 -10  -3    3.88    0.71
  -5  10   2   94.66    4.46
   5 -10  -2  115.02    4.81
  -5  10   1   95.26    4.52
   5 -10  -1   92.71    3.90
  -5  10   0   62.93    3.58
   5 -10   0   66.53    3.32
   5 -10   1  155.94    5.94
   5 -10   1  167.77    6.76
   5 -10   2  110.01    4.91
   5 -10   2  121.89    5.59
   5 -10   3   97.49    4.40
   5 -10   3  112.55    4.83
   5 -10   3  110.93    5.22
   5 -10   4    0.31    0.34
   5 -10   4    0.89    0.54
   5 -10   4    0.92    0.54
   5 -10   5   11.36    1.35
   5 -10   5   12.48    1.39
   5 -10   5   11.29    1.32
   5 -10   5   11.65    1.44
   5 -10   6    1.89    0.58
   5 -10   6    0.98    0.43
   5 -10   7   18.36    1.37
   5 -10   8   66.50    3.08
   5 -10   8   78.77    3.08
  -5   9   5   86.08    3.97
   5  -9  -5   81.94    3.73
  -5   9   4   63.92    3.77
   5  -9  -4   66.02    3.66
  -5   9   3   14.85    1.91
   5  -9  -3   15.30    1.48
   5  -9  -3   15.17    1.81
   5  -9  -2   36.17    2.54
   5  -9  -2   39.79    3.09
  -5   9   1    2.57    0.90
   5  -9  -1    1.58    0.66
  -5   9   0    6.96    1.36
   5  -9   0    9.03    1.36
  -5   9  -1    0.50    0.56
   5  -9   1    0.06    0.27
   5  -9   1    0.34    0.42
   5  -9   1    0.11    0.53
  -5   9  -2    2.91    0.86
   5  -9   2    2.29    0.68
   5  -9   2    3.05    0.87
   5  -9   2    3.21    1.00
   5  -9   3  295.63   10.57
   5  -9   3  288.80   10.98
   5  -9   4  337.43   11.44
   5  -9   4  338.91   12.11
   5  -9   5  331.61   10.94
   5  -9   5  298.95   11.17
   5  -9   6  113.73    5.27
   5  -9   6  115.51    5.20
   5  -9   7   41.00    2.62
   5  -9   7   41.14    2.63
   5  -9   7   42.33    2.66
   5  -9   8    9.92    1.09
   5  -9   8    9.13    1.12
   5  -9   8   10.12    1.14
   5  -9   9    4.15    0.57
   5  -9   9    3.32    0.57
   5  -9   9    5.15    0.69
  -5   8   7   43.32    2.45
   5  -8  -7   46.12    2.41
   5  -8  -6    3.86    0.85
  -5   8   5   24.57    2.56
   5  -8  -5   30.16    2.61
  -5   8   4   25.93    2.84
   5  -8  -4   30.78    2.83
  -5   8   3  148.84    7.77
   5  -8  -3  166.57    7.75
  -5   8   2   24.46    2.82
   5  -8  -2   23.66    2.63
  -5   8   1  124.78    6.90
  -5   8   1  136.01    7.36
   5  -8  -1  144.52    6.68
   5  -8  -1  138.27    6.95
  -5   8   0   24.93    2.72
  -5   8   0   26.31    3.03
   5  -8   0   28.97    2.65
   5  -8   0   24.68    2.63
  -5   8  -1  515.36   17.76
  -5   8  -1  532.69   18.75
   5  -8   1  532.34   17.31
  -5   8  -2  187.57    9.23
  -5   8  -2  200.05    8.56
   5  -8   2  210.08    8.77
  -5   8  -3   25.14    3.61
  -5   8  -3   20.88    2.69
   5  -8   3   24.53    2.35
   5  -8   3   22.47    2.44
   5  -8   4    3.23    0.89
   5  -8   4    1.72    0.78
   5  -8   5  104.43    5.21
   5  -8   5  107.96    5.48
   5  -8   6  107.83    5.45
   5  -8   6  107.77    5.20
   5  -8   7  246.48    8.82
   5  -8   7  221.17    8.74
   5  -8   7  243.99    8.63
   5  -8   8  123.66    5.09
   5  -8   8  123.81    5.18
   5  -8   8  119.42    4.95
   5  -8   9   75.35    3.37
   5  -8   9   66.62    3.13
   5  -8   9   76.06    3.35
   5  -8  10    8.03    0.75
   5  -8  10   10.25    0.87
  -5   7   8   21.16    1.73
   5  -7  -8   22.64    1.80
  -5   7   7    1.08    0.65
   5  -7  -7    1.03    0.57
   5  -7  -6  118.43    6.14
   5  -7  -5   80.39    5.14
  -5   7   4  137.10    7.83
   5  -7  -4  163.23    7.81
  -5   7   3   28.12    3.02
  -5   7   3   28.78    3.23
   5  -7  -3   31.85    3.11
  -5   7   2    0.40    0.51
  -5   7   2    0.84    0.67
   5  -7  -2    2.19    0.91
  -5   7   1    0.76    0.61
  -5   7   1    1.26    0.73
  -5   7   1    0.91    0.65
   5  -7  -1    0.80    0.60
  -5   7   0   39.17    3.62
  -5   7   0   42.96    3.59
   5  -7   0   45.99    3.50
  -5   7  -1  489.15   16.98
  -5   7  -1  483.32   17.55
   5  -7   1  516.99   16.64
  -5   7  -2  339.93   12.75
  -5   7  -2  356.06   13.67
   5  -7   2  357.86   12.42
   5  -7   2  342.62   12.58
  -5   7  -3   17.31    2.95
  -5   7  -3   19.04    2.57
   5  -7   3   19.40    2.07
   5  -7   3   23.06    2.35
  -5   7  -4  135.92    7.61
  -5   7  -4  142.40    8.81
   5  -7   4  145.91    6.47
   5  -7   4  146.84    6.73
  -5   7  -5  522.27   20.10
   5  -7   5  532.65   16.98
   5  -7   5  519.75   17.17
   5  -7   6  286.75   10.43
   5  -7   7   12.93    1.59
  -5   7  -7   11.62    1.60
   5  -7   8   36.35    2.37
   5  -7   8   33.41    2.39
  -5   7  -8   32.17    2.53
   5  -7   9   15.85    1.36
   5  -7   9   20.79    1.64
  -5   7  -9   19.87    1.74
   5  -7  10    9.41    0.97
  -5   7 -10    6.99    0.82
  -5   6   9   38.73    2.32
   5  -6  -9   38.04    2.53
  -5   6   8   13.52    1.73
   5  -6  -8   12.60    1.65
   5  -6  -8   12.28    1.72
  -5   6   7   28.10    2.94
   5  -6  -7   28.83    2.84
   5  -6  -7   24.82    2.67
  -5   6   6    4.05    1.30
   5  -6  -6    4.92    1.36
   5  -6  -6    5.37    1.38
   5  -6  -5  189.34    8.80
   5  -6  -5  187.94    8.73
  -5   6   4  194.78    9.35
   5  -6  -4  225.67    9.72
   5  -6  -4  220.90    9.62
  -5   6   3  251.38   11.39
  -5   6   3  282.55   11.35
   5  -6  -3  277.67   11.10
   5  -6  -3  284.68   11.21
  -5   6   2  250.63   10.49
  -5   6   2  229.36    9.94
  -5   6   2  249.41   10.53
   5  -6  -2  248.56    9.97
  -5   6   1   62.92    4.40
  -5   6   1   49.82    3.79
  -5   6   1   57.92    4.18
   5  -6  -1   56.32    3.84
  -5   6   0   41.92    3.30
  -5   6   0   46.64    3.69
  -5   6   0   43.95    3.51
   5  -6   0   44.82    3.25
  -5   6  -1    1.18    0.64
  -5   6  -1    1.68    0.78
  -5   6  -2   17.00    2.04
  -5   6  -2   18.53    2.32
   5  -6   2   19.15    1.97
   5  -6   2   17.56    1.97
  -5   6  -3   12.10    1.99
   5  -6   3   13.86    1.67
   5  -6   3   13.12    1.68
  -5   6  -4    1.93    0.96
  -5   6  -4    2.00    0.85
   5  -6   4    1.84    0.71
   5  -6   4    2.76    0.82
  -5   6  -5    2.63    1.18
   5  -6   5    3.53    0.90
  -5   6  -6  111.46    7.21
   5  -6   6  110.69    5.79
   5  -6   6  119.50    5.53
   5  -6   7  443.38   14.66
   5  -6   7  431.94   14.03
  -5   6  -7  409.07   14.46
   5  -6   8  621.46   18.98
   5  -6   8  644.88   18.52
  -5   6  -8  623.94   19.14
   5  -6   9  140.80    5.70
   5  -6   9  133.45    5.27
  -5   6  -9  136.70    5.80
  -5   6 -10   38.97    2.27
   5  -5 -10  107.44    4.51
   5  -5 -10  131.82    5.29
  -5   5   9   47.22    3.15
   5  -5  -9   49.57    3.31
   5  -5  -9   45.29    3.36
  -5   5   8  161.66    7.69
   5  -5  -8  164.10    7.67
  -5   5   7  507.55   18.37
   5  -5  -7  501.69   17.80
  -5   5   6   22.47    3.11
   5  -5  -6   25.81    2.91
  -5   5   5   48.58    4.50
   5  -5  -5   54.14    4.07
  -5   5   4   10.03    1.89
  -5   5   4   12.03    1.88
   5  -5  -4   12.09    1.80
   5  -5  -4   13.63    1.95
  -5   5   3   13.71    1.90
   5  -5  -3   11.72    1.69
   5  -5  -3   13.02    1.80
  -5   5   2   96.27    5.21
  -5   5   2  107.28    5.72
  -5   5   2   95.43    5.50
   5  -5  -2  102.67    5.24
  -5   5   1   22.00    2.17
  -5   5   1   25.34    2.51
  -5   5   1   21.15    2.29
   5  -5  -1   23.56    2.19
  -5   5   0  256.58    9.95
  -5   5   0  259.36    9.90
   5  -5   0  246.87    9.17
  -5   5  -1   48.53    3.44
  -5   5  -1   47.11    3.46
   5  -5   1   48.50    3.12
  -5   5  -2  172.16    7.45
  -5   5  -2  181.66    9.31
  -5   5  -2  181.37    7.93
   5  -5   2  174.86    7.00
   5  -5   2  177.22    7.03
  -5   5  -3  244.57   10.02
   5  -5   3  232.84    8.74
   5  -5   3  250.42    8.96
   5  -5   4  269.00    9.71
   5  -5   4  279.87    9.91
  -5   5  -5  112.84    7.26
   5  -5   5  118.35    5.37
  -5   5  -6   26.28    3.27
   5  -5   6   24.25    2.44
   5  -5   6   24.11    2.15
  -5   5  -6   24.40    2.44
   5  -5   7   63.81    4.01
   5  -5   7   65.44    3.66
  -5   5  -7   66.50    4.19
   5  -5   8   23.60    2.20
   5  -5   8   22.34    1.89
  -5   5  -8   20.62    2.17
   5  -5   9  255.07    8.86
   5  -5   9  233.53    8.08
  -5   5  -9  264.84    9.21
   5  -5  10  194.45    6.65
  -5   5 -10  181.58    6.65
   5  -5  11  149.41    4.84
   5  -4 -11  200.35    7.34
  -5   4  10   10.18    1.39
   5  -4 -10   12.97    1.56
  -5   4   9   52.52    3.63
  -5   4   9   46.85    3.51
   5  -4  -9   56.19    3.88
  -5   4   8    1.08    0.71
  -5   4   8   -0.13    0.51
   5  -4  -8    0.52    0.59
  -5   4   7   24.75    3.17
  -5   4   7   19.30    2.43
   5  -4  -7   24.89    2.86
  -5   4   6  116.33    6.30
   5  -4  -6  130.96    6.74
  -5   4   5  154.48    8.17
   5  -4  -5  155.50    7.13
  -5   4   4   82.28    5.22
   5  -4  -4   86.32    4.64
  -5   4   3  260.66    9.82
  -5   4   3  272.54   10.42
   5  -4  -3  266.12    9.75
  -5   4   2  741.35   22.46
  -5   4   2  769.20   22.83
  -5   4   2  693.89   21.67
  -5   4   1   61.86    3.71
  -5   4   1   58.39    3.19
  -5   4   0   27.40    2.32
  -5   4  -1    0.94    0.51
  -5   4  -1    0.14    0.46
  -5   4  -1    1.02    0.48
  -5   4  -2    8.36    1.27
  -5   4  -2   12.03    2.03
   5  -4   2    9.48    1.20
  -5   4  -3    0.31    0.50
   5  -4   3    0.38    0.33
   5  -4   4  537.47   16.45
   5  -4   5  345.59   12.22
   5  -4   5  347.96   11.45
  -5   4  -5  334.72   12.18
   5  -4   6  104.06    5.30
   5  -4   6   88.46    4.46
  -5   4  -6  104.51    5.45
   5  -4   7   21.26    2.16
   5  -4   7   17.84    1.73
  -5   4  -7   19.67    2.23
   5  -4   8  166.13    6.89
  -5   4  -8  158.41    7.13
   5  -4   9  217.60    7.91
  -5   4  -9  211.23    8.18
   5  -4  10   58.96    2.91
  -5   4 -10   57.71    2.98
  -5   3  12   10.22    1.05
  -5   3  11   52.84    3.38
  -5   3  10  189.43    8.23
   5  -3 -10  165.32    7.38
  -5   3   9  371.80   14.40
  -5   3   9  382.35   13.37
   5  -3  -9  369.45   13.80
  -5   3   8  238.67    9.92
   5  -3  -8  214.05    9.52
  -5   3   7  628.17   20.17
   5  -3  -7  552.27   18.30
  -5   3   6   42.80    3.90
  -5   3   6   29.73    2.96
  -5   3   5  105.93    5.85
  -5   3   5   98.72    5.33
  -5   3   3   77.96    4.20
  -5   3   2   91.18    5.26
  -5   3   1  208.38    7.65
  -5   3   0  581.12   18.21
  -5   3   0  504.35   15.85
  -5   3  -1  164.50    6.20
  -5   3  -1  191.23    8.35
  -5   3  -2   26.12    2.83
   5  -3   3  193.85    8.18
  -5   3  -3  183.95    8.90
   5  -3   4   39.03    3.42
  -5   3  -4   41.08    3.80
   5  -3   4   41.44    2.93
  -5   3  -4   34.77    2.81
   5  -3   5   56.81    4.44
   5  -3   5   49.90    3.41
  -5   3  -5   54.06    3.67
   5  -3   6   20.62    2.78
   5  -3   6   19.58    2.10
  -5   3  -6   20.96    2.32
   5  -3   7  132.08    6.11
  -5   3  -7  135.10    6.57
   5  -3   8    7.60    1.24
  -5   3  -8   11.20    1.62
   5  -3   9   10.61    1.30
  -5   3  -9   11.94    1.49
   5  -3  10  116.90    4.42
  -5   3 -10  108.13    4.45
  -5   2  13   32.08    1.87
  -5   2  12   76.05    4.14
  -5   2  11   27.14    2.78
  -5   2  10   17.56    2.51
  -5   2   9   14.01    2.44
  -5   2   8  146.53    7.35
  -5   2   8  134.89    8.39
  -5   2   7   76.85    4.90
  -5   2   7   81.86    5.61
  -5   2   6  148.49    7.30
  -5   2   6  150.09    6.98
  -5   2   6  156.24    7.18
  -5   2   6  145.35    6.81
  -5   2   5  456.64   13.42
  -5   2   4 1425.40   39.64
  -5   2   3   63.46    3.94
  -5   2   2  907.87   27.99
  -5   2   1  289.05   10.61
  -5   2   0    5.04    1.09
   5  -2   1   39.84    2.56
  -5   2  -1   45.56    3.43
   5  -2   2  107.04    5.27
  -5   2  -2  101.71    5.76
   5  -2   3    2.76    0.88
   5  -2   3    5.12    0.94
   5  -2   4   67.33    4.65
   5  -2   4   61.45    3.63
  -5   2  -4   59.68    3.84
   5  -2   5  282.89   11.76
   5  -2   5  259.84    9.71
  -5   2  -5  252.73   10.13
   5  -2   6  319.86   13.09
   5  -2   6  308.90   10.97
  -5   2  -6  291.19   11.49
   5  -2   7   97.45    4.91
  -5   2  -7   97.76    5.42
   5  -2   8   42.06    2.81
  -5   2  -8   36.75    2.95
  -5   2  -9   38.47    2.28
   5  -2   9   43.22    2.56
  -5   2  -9   43.70    2.81
  -5   2 -10    2.18    0.41
  -5   2 -10    1.51    0.41
  -5   1  13    2.14    0.65
  -5   1  12   92.48    5.20
  -5   1  11  173.86    7.73
  -5   1  11  187.16    8.90
  -5   1  10  242.07   11.47
  -5   1  10  241.18   10.26
  -5   1   9  194.80    9.18
  -5   1   8  377.64   15.68
  -5   1   8  497.08   15.35
  -5   1   7  201.47    9.37
  -5   1   7  223.49   10.05
  -5   1   7  234.84    9.06
  -5   1   6  131.29    6.57
  -5   1   6  142.10    6.77
  -5   1   6  134.40    6.27
  -5   1   5    3.77    0.77
  -5   1   4    1.18    0.42
  -5   1   4    1.03    0.53
  -5   1   3  838.50   25.05
  -5   1   3  799.91   23.30
  -5   1   2  463.60   16.19
  -5   1   2  452.86   14.28
  -5   1   1  667.08   22.83
  -5   1   1  700.09   20.80
   5  -1   0  311.57   10.38
  -5   1   0  349.56   11.64
   5  -1   1  896.64   27.24
  -5   1  -1 1000.18   28.41
   5  -1   2  331.40   12.03
   5  -1   3    3.48    1.01
   5  -1   3    3.82    0.79
  -5   1  -3    5.58    1.15
  -5   1  -3    5.21    1.04
   5  -1   4    3.06    1.02
   5  -1   4    2.30    0.68
  -5   1  -4    2.69    0.87
   5  -1   5    4.01    1.25
  -5   1  -5    4.73    1.66
   5  -1   5    6.19    1.11
  -5   1  -5    6.69    1.35
   5  -1   6    8.86    1.85
  -5   1  -6   10.14    1.65
   5  -1   6   10.09    1.44
  -5   1  -6    7.57    1.47
   5  -1   7   10.70    1.41
  -5   1  -7   10.26    1.62
  -5   1  -7    9.91    1.39
   5  -1   8  213.75    7.61
  -5   1  -8  213.78    8.23
  -5   1  -9  124.47    5.16
  -5   0  14   62.53    3.03
  -5   0  13  113.00    4.86
  -5   0  13  127.85    5.82
  -5   0  12   42.44    3.30
  -5   0  12   50.17    3.87
  -5   0  11    2.36    0.95
  -5   0  11    3.80    1.25
  -5   0  10    0.15    0.59
  -5   0  10    0.85    0.61
  -5   0  10    0.38    0.72
  -5   0   9  151.35    9.06
  -5   0   9  152.32    6.90
  -5   0   9  135.53    7.21
  -5   0   8  681.85   24.74
  -5   0   8  812.20   25.91
  -5   0   8  846.17   23.91
  -5   0   8  672.68   23.87
  -5   0   8  741.42   24.13
  -5   0   7  167.20    7.38
  -5   0   7  156.68    7.92
  -5   0   7  177.47    8.10
  -5   0   7  140.86    7.39
  -5   0   7  152.95    7.75
  -5   0   6  488.88   17.74
  -5   0   6  543.77   15.87
  -5   0   6  548.17   17.30
  -5   0   6  506.97   17.15
  -5   0   6  509.03   17.44
  -5   0   5  432.77   15.32
  -5   0   5  437.85   14.03
  -5   0   4  232.41    9.56
  -5   0   4  239.65    9.10
  -5   0   3  907.38   27.54
  -5   0   1    1.00    0.74
  -5   0   0   31.63    3.48
  -5   0  -1   34.95    3.84
  -5   0  -2  267.44   13.14
  -5   0  -2  296.58    9.34
  -5   0  -2  275.24   10.63
   5   0   3  718.05   22.63
  -5   0  -3  683.20   21.19
  -5   0  -4   90.09    6.86
   5   0   4  107.43    6.40
  -5   0  -4   90.91    5.62
   5   0   4   99.40    4.66
  -5   0  -4  107.47    5.66
   5   0   5  191.28    9.41
  -5   0  -5  185.72    8.25
   5   0   5  183.05    7.32
  -5   0  -5  187.78    8.35
   5   0   6   44.93    2.98
  -5   0  -6   42.23    3.42
  -5   0  -6   41.14    2.91
  -5   0  -7  161.42    6.78
   5   0   7  164.58    6.55
  -5   0  -7  169.25    7.40
  -5   0  -8   46.18    3.02
  -5   0  -9   26.01    1.52
  -5   0  -9   30.17    1.88
  -5  -1  14   12.18    1.37
  -5  -1  14   12.88    1.16
  -5  -1  13   66.06    3.94
  -5  -1  12   86.79    5.35
  -5  -1  11  115.94    5.67
  -5  -1  11  122.04    7.08
  -5  -1  11  110.74    6.26
  -5  -1  10  348.18   15.28
  -5  -1  10  392.96   13.78
  -5  -1  10  392.53   14.76
  -5  -1   9   26.61    3.32
  -5  -1   9   25.74    2.67
  -5  -1   9   18.31    2.99
  -5  -1   9   20.02    2.73
  -5  -1   9   19.25    2.68
  -5  -1   8  254.11   11.92
  -5  -1   8  309.71   11.99
  -5  -1   8  288.93   10.99
  -5  -1   8  246.08   11.36
  -5  -1   8  239.85   11.48
  -5  -1   7    1.03    0.64
  -5  -1   7    1.88    0.85
  -5  -1   7    2.56    0.94
  -5  -1   7    0.95    0.68
  -5  -1   7    0.47    0.72
  -5  -1   6   23.76    2.53
  -5  -1   6   26.43    2.95
  -5  -1   6   30.72    2.29
  -5  -1   6   26.46    2.69
  -5  -1   5  309.45   12.14
  -5  -1   5  307.67   10.88
  -5  -1   4   78.42    4.85
  -5  -1   4   78.93    4.51
  -5  -1   3 1265.83   37.02
  -5  -1   2  278.57   11.27
  -5  -1   1  632.05   21.51
  -5  -1   0  745.76   25.08
  -5  -1  -1  360.17   14.90
  -5  -1  -1  333.65   13.21
  -5  -1  -1  376.51   11.54
  -5  -1  -1  364.38   11.63
  -5  -1  -1  358.59   12.67
  -5  -1  -2  281.39   12.94
  -5  -1  -2  277.38   11.46
  -5  -1  -2  308.62    9.85
  -5  -1  -2  291.46   10.77
  -5  -1  -2  295.30   10.60
  -5  -1  -3    3.75    1.27
  -5  -1  -3    4.75    1.19
  -5  -1  -3    4.22    1.08
  -5  -1  -3    4.56    0.83
   5   1   4   16.59    2.50
  -5  -1  -4   16.31    2.05
  -5  -1  -4   12.82    1.90
   5   1   5   83.35    5.83
  -5  -1  -5   80.06    4.87
  -5  -1  -5   86.18    5.15
  -5  -1  -6   26.72    2.36
   5   1   6   25.60    2.10
  -5  -1  -6   27.23    2.66
  -5  -1  -7   66.76    3.25
  -5  -1  -7   70.36    3.93
  -5  -1  -7   67.09    4.00
  -5  -1  -8  154.71    5.64
  -5  -1  -8  156.23    6.02
  -5  -2  14   53.10    3.10
  -5  -2  14   56.60    3.16
  -5  -2  13   23.09    2.44
  -5  -2  13   22.87    2.38
  -5  -2  12   61.86    4.63
  -5  -2  12   54.26    3.45
  -5  -2  12   57.58    4.34
  -5  -2  12   62.30    4.28
  -5  -2  11    1.93    0.79
  -5  -2  11    2.98    1.29
  -5  -2  11    1.88    0.73
  -5  -2  11    1.72    0.88
  -5  -2  11    1.70    0.97
  -5  -2  10   12.46    2.23
  -5  -2  10   13.26    2.69
  -5  -2  10   12.76    1.96
  -5  -2  10   13.45    2.29
  -5  -2  10   10.86    2.12
  -5  -2   9  289.79   11.80
  -5  -2   9  279.59   11.11
  -5  -2   9  239.74   12.67
  -5  -2   9  274.40   10.60
  -5  -2   9  241.15   11.89
  -5  -2   9  231.02   11.98
  -5  -2   8  734.50   22.77
  -5  -2   8  801.35   23.41
  -5  -2   8  713.96   23.00
  -5  -2   8  612.03   23.67
  -5  -2   8  608.14   24.50
  -5  -2   7  538.93   18.17
  -5  -2   7  529.08   17.45
  -5  -2   7  543.50   18.09
  -5  -2   7  509.86   17.87
  -5  -2   7  535.62   17.26
  -5  -2   7  465.36   18.01
  -5  -2   7  485.28   18.21
  -5  -2   7  527.67   19.71
  -5  -2   6  378.35   13.21
  -5  -2   6  365.42   13.29
  -5  -2   6  387.85   13.91
  -5  -2   6  358.93   13.54
  -5  -2   6  373.73   12.84
  -5  -2   6  374.88   14.62
  -5  -2   6  360.10   12.35
  -5  -2   6  325.62   13.71
  -5  -2   6  354.97   13.33
  -5  -2   5  444.23   16.06
  -5  -2   5  436.14   14.65
  -5  -2   3   13.67    1.91
  -5  -2   3   12.03    1.78
  -5  -2   2    2.09    0.85
  -5  -2   1    0.41    0.55
  -5  -2   1    1.53    0.63
  -5  -2   1    0.27    0.35
  -5  -2   1    1.72    0.70
  -5  -2   1    1.36    0.49
  -5  -2   0   10.74    2.02
  -5  -2   0    9.37    1.57
  -5  -2   0    9.74    1.18
  -5  -2   0   11.45    1.34
  -5  -2   0   10.22    1.48
  -5  -2  -1  474.12   17.98
  -5  -2  -1  497.16   16.91
  -5  -2  -1  503.07   15.38
  -5  -2  -1  485.26   16.16
  -5  -2  -1  512.18   16.09
  -5  -2  -2  558.99   20.24
  -5  -2  -2  597.88   19.33
  -5  -2  -2  595.12   19.51
  -5  -2  -2  577.27   17.86
  -5  -2  -2  581.84   19.18
  -5  -2  -2  612.24   18.17
  -5  -2  -3  284.95   10.51
  -5  -2  -3  258.22   10.71
  -5  -2  -3  272.95   10.95
   5   2   4  432.28   16.59
  -5  -2  -4  427.79   14.92
  -5  -2  -4  427.96   15.39
  -5  -2  -5  343.40   11.85
  -5  -2  -5  322.55   12.42
  -5  -2  -5  338.90   12.65
  -5  -2  -6   49.79    2.85
  -5  -2  -6   53.91    3.49
  -5  -2  -6   53.00    3.61
  -5  -2  -7   16.10    1.49
  -5  -2  -7   13.82    1.57
   5   2   8    0.66    0.25
  -5  -2  -8    0.17    0.18
  -5  -3  14   77.01    3.77
  -5  -3  14   87.11    4.34
  -5  -3  13  178.66    7.71
  -5  -3  13  183.95    6.81
  -5  -3  13  193.69    8.42
  -5  -3  13  193.56    8.01
  -5  -3  12  231.46   10.53
  -5  -3  12  224.64    9.67
  -5  -3  12  231.83    9.03
  -5  -3  12  223.53    9.90
  -5  -3  11  268.68   11.02
  -5  -3  11  265.50   12.57
  -5  -3  11  293.90   11.84
  -5  -3  11  281.63   12.18
  -5  -3  10  274.99   10.64
  -5  -3  10  295.55   11.81
  -5  -3  10  282.90   11.41
  -5  -3  10  249.10   12.19
  -5  -3  10  239.16   12.52
  -5  -3   9   89.21    5.49
  -5  -3   9   99.36    6.85
  -5  -3   9   80.33    5.19
  -5  -3   9   84.70    5.56
  -5  -3   9   72.29    6.25
  -5  -3   9   82.37    4.64
  -5  -3   9   79.85    5.63
  -5  -3   9   66.55    6.38
  -5  -3   8    8.12    1.68
  -5  -3   8   10.98    2.04
  -5  -3   8    9.91    1.78
  -5  -3   8    6.22    1.71
  -5  -3   8    9.46    1.45
  -5  -3   8    7.69    2.19
  -5  -3   8    7.45    1.46
  -5  -3   7   32.46    3.07
  -5  -3   7   29.94    2.99
  -5  -3   7   28.94    3.15
  -5  -3   7   27.16    2.62
  -5  -3   7   29.03    3.77
  -5  -3   7   24.28    2.35
  -5  -3   7   29.96    1.94
  -5  -3   7   24.19    3.26
  -5  -3   7   28.13    2.46
  -5  -3   7   29.94    3.21
  -5  -3   6  152.26    7.02
  -5  -3   6  153.85    7.57
  -5  -3   6  157.35    6.84
  -5  -3   6  154.89    8.02
  -5  -3   6  147.43    7.96
  -5  -3   6  145.86    8.32
  -5  -3   6  141.41    6.39
  -5  -3   6  159.50    5.87
  -5  -3   6  143.26    8.17
  -5  -3   6  161.88    6.68
  -5  -3   6  151.75    7.25
  -5  -3   6  158.39    6.21
  -5  -3   5   38.81    2.97
  -5  -3   5   41.72    3.54
  -5  -3   5   38.73    3.65
  -5  -3   5   39.62    3.04
  -5  -3   5   41.88    2.59
  -5  -3   5   46.09    3.00
  -5  -3   5   41.23    3.15
  -5  -3   5   40.79    2.82
  -5  -3   4  262.21   11.51
  -5  -3   4  271.29   10.79
  -5  -3   4  253.78   10.65
  -5  -3   4  251.61   10.02
  -5  -3   4  240.17    8.84
  -5  -3   4  260.76    9.13
  -5  -3   4  243.92    9.34
  -5  -3   3  224.98   10.77
  -5  -3   3  216.65    8.30
  -5  -3   3  219.51    9.77
  -5  -3   3  227.27    9.60
  -5  -3   3  217.34    9.30
  -5  -3   3  223.93    8.15
  -5  -3   3  231.60    8.27
  -5  -3   2  405.03   12.79
  -5  -3   2  441.85   15.57
  -5  -3   2  457.79   16.30
  -5  -3   2  379.13   13.41
  -5  -3   2  376.85   14.39
  -5  -3   2  409.27   12.81
  -5  -3   2  388.40   13.34
  -5  -3   2  392.13   13.58
  -5  -3   1  231.49   10.04
  -5  -3   1  248.86   10.74
  -5  -3   1  211.71    9.55
  -5  -3   1  224.10    9.02
  -5  -3   1  210.85    8.70
  -5  -3   1  199.81    7.63
  -5  -3   1  227.42    8.10
  -5  -3   1  214.57    8.54
  -5  -3   0  548.98   18.50
  -5  -3   0  534.54   19.11
  -5  -3   0  585.63   18.63
  -5  -3   0  563.98   18.68
  -5  -3   0  572.25   17.45
  -5  -3   0  553.43   18.15
  -5  -3   0  546.77   17.70
  -5  -3  -1   34.72    3.30
  -5  -3  -1   43.58    3.75
  -5  -3  -1   39.89    3.29
  -5  -3  -1   41.24    2.85
  -5  -3  -1   40.59    2.84
  -5  -3  -2    1.79    0.78
  -5  -3  -2    2.14    0.87
  -5  -3  -2    1.26    0.51
  -5  -3  -2    0.98    0.66
  -5  -3  -3    4.91    1.14
  -5  -3  -3    5.25    0.93
  -5  -3  -3    3.82    1.16
  -5  -3  -3    4.55    1.26
  -5  -3  -4  243.79    9.23
  -5  -3  -4  246.75   10.00
  -5  -3  -4  239.03   10.05
  -5  -3  -5  123.27    5.13
  -5  -3  -5  124.92    5.89
  -5  -3  -5  122.85    6.13
  -5  -3  -6  191.75    7.01
  -5  -3  -6  186.03    7.35
   5   3   7   85.19    3.36
  -5  -4  15   20.79    1.42
  -5  -4  14   24.34    2.15
  -5  -4  13   23.01    1.97
  -5  -4  13   20.52    2.29
  -5  -4  12   15.76    1.98
  -5  -4  12   15.63    1.94
  -5  -4  12   14.53    2.25
  -5  -4  11   98.53    6.59
  -5  -4  11   92.26    5.61
  -5  -4  11   93.44    5.45
  -5  -4  11   97.85    6.50
  -5  -4  10   20.80    2.41
  -5  -4  10   22.96    3.17
  -5  -4  10   16.64    2.23
  -5  -4  10   20.81    2.66
  -5  -4  10   13.77    2.30
  -5  -4  10   13.94    2.86
  -5  -4   9   79.21    5.61
  -5  -4   9   68.84    4.92
  -5  -4   9   68.17    4.47
  -5  -4   9   68.00    5.09
  -5  -4   9   57.67    5.06
  -5  -4   9   80.16    6.39
  -5  -4   9   56.79    6.36
  -5  -4   8  257.49   10.45
  -5  -4   8  224.85    9.22
  -5  -4   8  220.41   10.42
  -5  -4   8  245.81   13.09
  -5  -4   8  215.47    7.77
  -5  -4   8  206.67   11.24
  -5  -4   8  251.21   11.27
  -5  -4   7  939.20   27.93
  -5  -4   7  970.69   28.77
  -5  -4   7  959.66   29.53
  -5  -4   7  978.87   30.48
  -5  -4   7  865.83   30.09
  -5  -4   7  891.77   28.36
  -5  -4   7  948.20   26.67
  -5  -4   7  853.58   31.40
  -5  -4   7  998.40   29.59
  -5  -4   7  972.86   26.69
  -5  -4   7  900.23   26.57
  -5  -4   6   82.91    6.20
  -5  -4   6   82.01    4.75
  -5  -4   6   86.32    5.57
  -5  -4   6   89.83    6.16
  -5  -4   6   80.11    4.46
  -5  -4   6   92.09    6.24
  -5  -4   6   80.61    4.83
  -5  -4   6   90.98    4.17
  -5  -4   6   90.61    4.37
  -5  -4   6   83.32    4.98
  -5  -4   6   88.36    4.11
  -5  -4   6   85.97    4.12
  -5  -4   6   88.94    4.26
  -5  -4   5  419.15   16.33
  -5  -4   5  407.32   13.86
  -5  -4   5  404.21   15.55
  -5  -4   5  427.40   13.75
  -5  -4   5  434.53   16.09
  -5  -4   5  413.11   13.40
  -5  -4   5  447.33   16.20
  -5  -4   5  439.76   13.55
  -5  -4   5  397.21   14.09
  -5  -4   5  429.74   13.43
  -5  -4   5  411.17   13.48
  -5  -4   5  425.81   13.78
  -5  -4   4    8.39    1.17
  -5  -4   4    8.41    1.61
  -5  -4   4    6.15    1.47
  -5  -4   4    9.05    1.50
  -5  -4   4    8.45    1.15
  -5  -4   4   10.02    1.31
  -5  -4   4    8.39    1.26
  -5  -4   4    8.82    1.33
  -5  -4   3   10.81    1.27
  -5  -4   3   10.76    2.00
  -5  -4   3   10.99    1.50
  -5  -4   3   10.21    1.65
  -5  -4   3   14.61    1.67
  -5  -4   3   11.19    1.54
  -5  -4   3   12.17    1.36
  -5  -4   3   10.14    1.38
  -5  -4   2  160.81    8.73
  -5  -4   2  147.35    7.09
  -5  -4   2  144.02    6.36
  -5  -4   2  142.90    6.66
  -5  -4   2  139.67    5.72
  -5  -4   2  144.47    6.43
  -5  -4   1  469.45   15.84
  -5  -4   1  547.38   18.05
  -5  -4   1  541.54   19.58
  -5  -4   1  403.59   15.59
  -5  -4   1  466.79   15.27
  -5  -4   1  464.18   16.02
  -5  -4   1  458.77   15.06
  -5  -4   1  460.60   15.15
  -5  -4   0  509.26   16.58
  -5  -4   0  507.90   17.34
  -5  -4   0  490.39   17.36
  -5  -4   0  521.91   16.49
  -5  -4  -1   12.09    1.53
  -5  -4  -1   12.07    1.78
  -5  -4  -1   15.54    2.26
  -5  -4  -1   13.61    2.02
  -5  -4  -2   52.93    3.71
  -5  -4  -2   58.38    3.22
  -5  -4  -2   57.88    4.19
  -5  -4  -2   59.21    4.29
  -5  -4  -3  121.17    5.63
  -5  -4  -3  122.69    6.24
  -5  -4  -3  120.28    6.39
  -5  -4  -4  180.38    7.47
  -5  -4  -4  182.01    6.66
  -5  -4  -4  164.33    7.55
  -5  -4  -5   87.22    4.07
  -5  -4  -5   81.61    4.24
   5   4   6   23.84    1.51
  -5  -5  14   27.25    2.14
  -5  -5  13  109.04    5.49
  -5  -5  13   92.11    4.57
  -5  -5  13   99.70    5.35
  -5  -5  12  157.09    7.65
  -5  -5  12  144.05    6.89
  -5  -5  12  147.68    7.60
  -5  -5  11  531.92   18.21
  -5  -5  11  585.66   19.73
  -5  -5  10  153.56    7.84
  -5  -5  10  124.60    6.84
  -5  -5  10  136.57    7.58
  -5  -5  10  119.40    7.48
  -5  -5  10  157.47    8.73
  -5  -5  10  130.95    9.25
  -5  -5   9  222.32    9.69
  -5  -5   9  197.17    9.65
  -5  -5   9  213.63   12.38
  -5  -5   9  181.47   10.37
  -5  -5   9  239.20   11.06
  -5  -5   8    6.23    1.32
  -5  -5   8    2.83    1.21
  -5  -5   8    4.16    1.42
  -5  -5   8    4.66    1.31
  -5  -5   8    7.58    1.57
  -5  -5   8    5.28    0.93
  -5  -5   8    5.40    1.86
  -5  -5   8    5.49    1.44
  -5  -5   8    5.43    0.96
  -5  -5   7  240.51   12.21
  -5  -5   7  261.51   10.22
  -5  -5   7  267.19   11.62
  -5  -5   7  270.78   12.41
  -5  -5   7  309.14   13.33
  -5  -5   7  247.93   10.82
  -5  -5   7  272.07    9.39
  -5  -5   7  293.99   11.19
  -5  -5   7  261.20    9.43
  -5  -5   6  769.56   27.56
  -5  -5   6  738.78   25.48
  -5  -5   6  738.97   26.64
  -5  -5   6  777.54   26.25
  -5  -5   6  782.93   22.85
  -5  -5   6  815.13   26.83
  -5  -5   6  758.59   23.81
  -5  -5   6  811.44   23.01
  -5  -5   6  764.41   22.58
  -5  -5   6  755.68   22.92
  -5  -5   5  220.73   10.41
  -5  -5   5  192.24    9.63
  -5  -5   5  189.59    9.40
  -5  -5   5  196.62    7.66
  -5  -5   5  199.75    9.55
  -5  -5   5  188.78    7.01
  -5  -5   5  201.31    7.60
  -5  -5   5  202.94    7.87
  -5  -5   5  201.26    7.87
  -5  -5   4  189.09    8.32
  -5  -5   4  155.61    8.08
  -5  -5   4  170.22    6.99
  -5  -5   4  166.42    7.23
  -5  -5   4  167.22    6.91
  -5  -5   4  174.37    7.24
  -5  -5   4  166.25    7.08
  -5  -5   3  101.61    6.98
  -5  -5   3  107.29    5.19
  -5  -5   3   99.36    5.39
  -5  -5   3  111.27    5.34
  -5  -5   3  108.73    5.21
  -5  -5   2   14.63    2.76
  -5  -5   2   13.76    1.71
  -5  -5   2   14.46    1.97
  -5  -5   2   13.13    1.66
  -5  -5   2   14.90    1.89
  -5  -5   1  107.38    5.64
  -5  -5   1  105.53    6.55
  -5  -5   1  107.57    7.69
  -5  -5   1   99.17    5.00
  -5  -5   1  106.88    5.87
  -5  -5   1  107.85    5.16
  -5  -5   0    2.66    0.71
  -5  -5   0    1.83    0.79
  -5  -5  -1   17.09    2.25
  -5  -5  -1   18.91    1.68
  -5  -5  -1   18.35    2.26
  -5  -5  -1   16.94    1.97
  -5  -5  -2    2.19    0.69
  -5  -5  -2    1.65    0.70
  -5  -5  -3   11.40    1.52
  -5  -5  -3    9.92    1.18
   5   5   4   99.41    4.22
  -5  -5  -4  108.12    4.57
   5   5   5  180.67    5.83
  -5  -6  14   19.78    1.52
  -5  -6  14   18.89    1.24
  -5  -6  13    1.76    0.58
  -5  -6  13    1.57    0.61
  -5  -6  12   21.41    2.27
  -5  -6  12   19.64    2.20
  -5  -6  12   23.30    2.53
  -5  -6  11  294.90   11.11
  -5  -6  11  268.92   10.35
  -5  -6  11  288.68   11.51
  -5  -6  11  309.41   12.15
  -5  -6  11  260.03   11.52
  -5  -6  10   33.30    3.04
  -5  -6  10   32.34    3.20
  -5  -6  10   33.86    3.47
  -5  -6  10   33.15    3.71
  -5  -6  10   35.92    3.61
  -5  -6   9  407.91   14.18
  -5  -6   9  427.37   15.97
  -5  -6   9  425.15   17.21
  -5  -6   9  468.84   15.90
  -5  -6   9  369.67   12.98
  -5  -6   8  301.85   12.51
  -5  -6   8  304.00   13.40
  -5  -6   8  291.32   13.38
  -5  -6   8  324.87   14.40
  -5  -6   8  281.23   12.19
  -5  -6   8  323.12   12.10
  -5  -6   8  300.93   10.59
  -5  -6   7  158.52    9.29
  -5  -6   7  148.54    9.03
  -5  -6   7  163.13    8.55
  -5  -6   7  160.51    9.06
  -5  -6   7  165.28    6.76
  -5  -6   7  162.32    6.85
  -5  -6   6  179.81    9.65
  -5  -6   6  156.23    8.63
  -5  -6   6  156.93    9.53
  -5  -6   6  146.76    8.42
  -5  -6   6  174.04    6.96
  -5  -6   6  186.79    9.22
  -5  -6   6  167.79    7.07
  -5  -6   5    4.66    1.28
  -5  -6   5    4.12    1.43
  -5  -6   5    5.07    1.39
  -5  -6   5    4.68    1.05
  -5  -6   4   15.32    1.75
  -5  -6   4   15.40    1.88
  -5  -6   3    1.75    1.12
  -5  -6   3    3.18    0.84
  -5  -6   2    0.81    0.88
  -5  -6   2    0.89    0.55
  -5  -6   2    0.93    0.54
  -5  -6   2    0.56    0.46
  -5  -6   1   98.44    4.65
  -5  -6   1   93.45    5.79
  -5  -6   1  109.30    7.07
  -5  -6   1  102.24    5.30
  -5  -6   0  107.23    6.31
  -5  -6   0  103.09    4.58
  -5  -6   0  115.58    5.91
  -5  -6   0  114.94    5.43
   5   6   1  240.06    8.65
  -5  -6  -1  256.69    9.86
  -5  -6  -1  266.09   10.00
  -5  -6  -1  281.85    9.38
   5   6   2  229.18    7.96
  -5  -6  -2  251.10    8.10
   5   6   3   20.45    1.42
  -5  -7  13   65.89    3.30
  -5  -7  12    9.23    1.43
  -5  -7  12   12.04    1.63
  -5  -7  11  165.35    7.48
  -5  -7  11  176.69    7.46
  -5  -7  10   85.33    5.29
  -5  -7  10   97.36    6.27
  -5  -7  10   98.37    5.34
  -5  -7   9    1.19    0.86
  -5  -7   9    0.29    0.63
  -5  -7   9    0.22    0.35
  -5  -7   8   38.62    3.59
  -5  -7   8   36.45    3.89
  -5  -7   8   42.21    4.13
  -5  -7   8   37.80    2.79
  -5  -7   7    4.05    1.29
  -5  -7   7    7.68    1.78
  -5  -7   7    5.04    1.60
  -5  -7   7    5.66    1.09
  -5  -7   7    7.95    1.85
  -5  -7   6  164.40    8.67
  -5  -7   6  181.09    8.61
  -5  -7   6  162.34    7.03
  -5  -7   5  476.30   15.00
  -5  -7   5  424.71   18.51
  -5  -7   5  447.18   17.40
  -5  -7   5  456.94   15.60
  -5  -7   5  467.74   15.36
  -5  -7   4  793.92   23.37
  -5  -7   4  748.58   27.56
  -5  -7   3  130.45    5.63
  -5  -7   3  122.85    7.59
  -5  -7   3  134.40    6.10
  -5  -7   2    2.78    0.69
  -5  -7   2    2.97    1.17
  -5  -7   2    1.85    0.90
  -5  -7   2    1.97    0.72
  -5  -7   1    5.69    0.86
  -5  -7   1    7.19    1.53
  -5  -7   1    5.99    1.07
  -5  -7   0   10.77    1.57
  -5  -7   0   10.22    1.24
  -5  -7  -1   10.21    1.02
  -5  -8  13    0.15    0.23
  -5  -8  12   91.92    4.26
  -5  -8  11  104.18    4.56
  -5  -8  10  159.31    7.11
  -5  -8  10  169.15    7.44
  -5  -8   9  110.75    6.16
  -5  -8   9  111.41    6.01
  -5  -8   9  111.08    4.92
  -5  -8   8  218.92    9.45
  -5  -8   8  228.79   10.33
  -5  -8   8  248.41   10.03
  -5  -8   8  231.83    8.58
  -5  -8   7   27.23    2.89
  -5  -8   7   27.66    3.33
  -5  -8   7   27.03    2.70
  -5  -8   7   31.62    2.48
  -5  -8   6  167.76    8.39
  -5  -8   6  179.84    7.24
  -5  -8   5   10.33    2.12
  -5  -8   5   17.11    2.39
  -5  -8   4   96.77    6.14
  -5  -8   4   97.58    4.81
  -5  -8   3  103.22    6.09
  -5  -8   3  106.08    5.86
  -5  -8   3  111.66    5.02
  -5  -8   2  251.45   10.11
  -5  -8   2  261.87    8.92
  -5  -8   1   65.42    3.74
  -5  -8   1   70.54    3.23
  -5  -8   0    3.07    0.46
  -5  -9  11   28.25    1.91
  -5  -9  10    3.92    0.84
  -5  -9  10    6.49    1.00
  -5  -9   9   11.32    1.53
  -5  -9   9   12.46    1.43
  -5  -9   8   52.42    3.68
  -5  -9   8   57.97    3.06
  -5  -9   7  108.13    5.48
  -5  -9   7  113.93    6.06
  -5  -9   6  158.36    6.97
  -5  -9   5   79.68    4.56
  -5  -9   5   82.64    4.76
  -5  -9   5   84.48    3.93
  -5  -9   4  223.42    8.90
  -5  -9   4  224.14    8.63
  -5  -9   3  287.36    9.95
  -5  -9   3  289.80    9.11
  -5  -9   2    4.61    0.72
  -5  -9   2    5.09    0.60
  -5 -10   8   44.13    2.37
  -5 -10   7   12.74    1.24
   6 -11   1   17.68    1.27
   6 -11   2    9.51    0.81
   6 -11   2   11.20    1.02
   6 -11   3    4.07    0.55
   6 -11   4   37.32    1.77
  -6  10   3    0.04    0.20
   6 -10  -3    0.39    0.25
  -6  10   2   23.34    1.78
   6 -10  -2   24.03    1.46
   6 -10  -2   27.87    1.92
  -6  10   1   10.87    1.27
   6 -10  -1   13.82    1.25
   6 -10   0   63.88    3.11
   6 -10   0   61.20    3.39
   6 -10   1   68.68    3.37
   6 -10   1   67.55    3.63
   6 -10   2  374.06   11.81
   6 -10   2  371.30   12.13
   6 -10   3   85.52    3.76
   6 -10   3  100.75    4.41
   6 -10   4   13.79    1.32
   6 -10   5    0.59    0.32
   6 -10   5    0.58    0.35
   6 -10   5    0.14    0.30
   6 -10   6    4.52    0.67
   6 -10   6    4.69    0.69
   6 -10   7    3.15    0.44
   6 -10   7    2.80    0.48
   6 -10   7    2.36    0.47
  -6   9   5    4.07    0.75
  -6   9   4  128.97    5.61
   6  -9  -4  124.13    4.68
  -6   9   3   73.93    4.33
   6  -9  -3   81.67    3.80
  -6   9   2   57.15    3.84
   6  -9  -2   61.12    3.40
  -6   9   1   12.39    1.75
   6  -9  -1   12.05    1.52
  -6   9   0   15.35    1.91
   6  -9   0   17.57    1.83
   6  -9   0   19.15    2.08
  -6   9  -1    4.00    0.96
   6  -9   1    2.96    0.69
   6  -9   1    3.43    0.97
   6  -9   2  185.72    7.64
   6  -9   3  118.47    5.34
   6  -9   3  112.34    5.37
   6  -9   4  119.10    5.33
   6  -9   4  126.69    5.54
   6  -9   5  127.54    5.59
   6  -9   5  126.69    5.34
   6  -9   6  119.95    5.03
   6  -9   6  119.80    4.88
   6  -9   6  115.73    4.84
   6  -9   7   33.43    2.05
   6  -9   7   32.38    2.01
   6  -9   7   32.12    1.97
   6  -9   8   16.35    1.12
   6  -9   8   16.24    1.14
   6  -9   8   13.17    1.08
  -6   8   7   38.36    2.11
   6  -8  -7   39.32    2.07
   6  -8  -6   61.40    2.90
   6  -8  -6   61.68    3.35
   6  -8  -5   31.50    2.59
  -6   8   4   38.38    3.42
   6  -8  -4   41.10    3.17
  -6   8   3   46.68    3.90
   6  -8  -3   54.31    3.77
  -6   8   2   94.12    5.78
   6  -8  -2  107.93    5.47
   6  -8  -2  100.10    5.51
  -6   8   1  222.52    9.69
  -6   8   0   25.08    2.70
  -6   8  -1  183.42    8.40
   6  -8   1  197.72    8.07
   6  -8   1  199.59    8.31
   6  -8   2   10.72    1.55
   6  -8   2   11.65    1.68
   6  -8   3    4.80    1.06
   6  -8   3    5.63    1.14
   6  -8   4    5.12    1.03
   6  -8   4    3.63    0.94
   6  -8   5    2.63    0.78
   6  -8   6    0.60    0.47
   6  -8   7   58.72    2.96
   6  -8   7   49.56    2.81
   6  -8   8   72.90    3.23
   6  -8   8   85.25    3.38
  -6   7   8    0.37    0.33
   6  -7  -8    0.25    0.31
  -6   7   7  101.32    5.04
   6  -7  -7  101.06    4.90
  -6   7   6  274.73   11.09
   6  -7  -6  279.82   10.63
   6  -7  -5   67.14    4.43
   6  -7  -4  108.62    5.99
  -6   7   3    3.70    1.27
   6  -7  -3    3.14    1.01
  -6   7   2   17.25    2.41
   6  -7  -2   16.70    2.14
  -6   7   1   18.35    2.45
   6  -7  -1   18.40    2.17
  -6   7   0   27.57    2.90
  -6   7   0   23.26    2.80
   6  -7   0   24.10    2.45
  -6   7  -1  217.52    9.42
  -6   7  -1  210.73   11.53
  -6   7  -1  207.26    9.78
   6  -7   1  224.86    8.88
   6  -7   1  217.85    8.84
  -6   7  -2   13.46    2.61
  -6   7  -2   12.58    2.07
   6  -7   2   14.53    1.81
   6  -7   2   17.68    1.98
   6  -7   3   86.05    4.66
   6  -7   3   88.61    4.73
   6  -7   4   80.27    4.33
   6  -7   4   72.56    4.17
   6  -7   5  296.58   10.93
   6  -7   5  282.03   10.23
   6  -7   6   83.82    4.62
   6  -7   6   89.15    4.35
   6  -7   7  129.46    5.59
   6  -7   7  114.32    4.93
   6  -7   7  132.59    5.23
   6  -7   8    1.98    0.60
   6  -7   8    1.69    0.45
   6  -7   8    1.81    0.48
   6  -7   9    1.41    0.41
   6  -6  -9   23.10    1.83
  -6   6   8  156.25    6.73
   6  -6  -8  162.18    6.89
  -6   6   7   12.84    1.97
   6  -6  -7   12.41    1.82
  -6   6   6   65.30    5.15
   6  -6  -6   67.49    4.62
  -6   6   5  194.53   10.28
   6  -6  -5  235.54    9.78
   6  -6  -4   70.73    4.72
   6  -6  -3  167.93    7.76
  -6   6   2   84.08    5.44
   6  -6  -2   76.80    4.66
  -6   6   1  217.86    9.59
  -6   6   1  210.09    9.45
   6  -6  -1  212.44    8.68
  -6   6   0   93.11    5.51
  -6   6   0   89.09    5.62
   6  -6   0   93.36    5.04
  -6   6  -1  119.62    6.40
  -6   6  -1  124.23    6.83
  -6   6  -1  129.94    8.23
   6  -6   1  123.79    5.90
   6  -6   1  122.35    5.81
  -6   6  -2   15.39    2.71
   6  -6   2   16.90    1.87
   6  -6   2   16.77    1.86
  -6   6  -3    0.20    0.57
   6  -6   3    0.66    0.48
   6  -6   3    0.91    0.52
   6  -6   4    1.46    0.60
   6  -6   5  156.93    6.61
   6  -6   5  165.99    7.30
   6  -6   6  101.48    5.16
   6  -6   6   96.14    4.59
   6  -6   7    7.86    1.08
   6  -6   7    6.12    1.12
   6  -6   8  123.28    5.09
   6  -6   8  113.69    4.41
   6  -6   9  123.84    4.68
   6  -5 -10   24.97    1.91
   6  -5  -9  152.80    6.70
  -6   5   8  257.64   10.35
   6  -5  -8  259.68    9.99
   6  -5  -8  260.24   10.50
  -6   5   7  361.98   14.15
   6  -5  -7  319.81   12.75
   6  -5  -7  346.59   13.23
  -6   5   6  146.88    8.84
   6  -5  -6  141.60    7.22
   6  -5  -6  149.12    7.52
  -6   5   5   50.69    4.71
   6  -5  -5   47.11    3.72
   6  -5  -5   54.57    4.04
  -6   5   4  115.45    6.92
   6  -5  -4  110.92    5.91
  -6   5   3  128.87    7.03
   6  -5  -3  131.49    6.28
   6  -5  -2   29.68    2.55
  -6   5   1   15.43    2.34
  -6   5   1   14.68    2.00
  -6   5   1   14.70    2.01
   6  -5  -1   14.79    1.72
  -6   5   0   40.34    3.32
  -6   5   0   43.30    4.28
  -6   5   0   37.01    3.21
  -6   5  -1  195.34    8.52
  -6   5  -1  197.62    8.65
  -6   5  -1  195.23   10.17
   6  -5   1  211.88    8.02
  -6   5  -2  172.16    9.28
   6  -5   2  165.47    6.79
  -6   5  -3  312.27   13.65
   6  -5   3  307.16   10.65
  -6   5  -4   90.45    6.39
   6  -5   4   92.18    4.54
   6  -5   5   34.48    2.90
   6  -5   5   32.42    2.42
  -6   5  -5   33.89    2.78
   6  -5   6   40.59    3.03
   6  -5   6   38.90    2.57
  -6   5  -6   38.07    2.91
   6  -5   7    0.87    0.51
  -6   5  -7    0.31    0.37
   6  -5   8   25.10    1.99
   6  -5   9    7.16    0.90
   6  -4 -11   10.99    1.19
  -6   4  10  134.15    5.72
   6  -4 -10  152.29    6.44
  -6   4   9  197.37    7.92
  -6   4   9  190.93    8.10
  -6   4   8   24.59    2.73
  -6   4   8   41.72    3.60
  -6   4   7   15.26    2.17
  -6   4   7   19.66    2.92
  -6   4   6    9.88    1.69
  -6   4   6   14.13    2.47
  -6   4   5   29.16    2.78
  -6   4   5   35.02    3.59
   6  -4  -5   32.60    2.95
  -6   4   4  407.22   15.07
   6  -4  -4  403.15   13.80
  -6   4   3  589.58   19.56
  -6   4   2  582.56   19.81
  -6   4   2  578.19   19.00
  -6   4   1  472.53   17.96
  -6   4   0  102.99    5.17
  -6   4   0  119.68    6.92
  -6   4   0  107.51    5.58
  -6   4  -1   43.00    4.02
   6  -4   1   45.37    2.83
  -6   4  -1   38.69    3.01
  -6   4  -2    4.06    1.29
   6  -4   2    2.42    0.65
  -6   4  -3   11.59    2.16
   6  -4   3   11.47    1.36
  -6   4  -4  158.12    8.50
   6  -4   4  148.71    6.70
   6  -4   4  141.47    5.86
   6  -4   5   10.12    1.52
  -6   4  -5   11.66    1.63
   6  -4   6  146.13    6.48
  -6   4  -6  142.78    6.51
   6  -4   7   53.22    3.26
  -6   4  -7   48.13    3.23
  -6   4  -8   35.38    2.63
   6  -4   8   41.35    2.56
   6  -4   9   41.22    2.23
  -6   3  12    1.80    0.42
   6  -3 -12    1.40    0.39
  -6   3  11   29.60    2.41
  -6   3  10    1.38    0.69
  -6   3   9   48.72    4.15
  -6   3   8  237.98   11.52
  -6   3   8  302.07   11.38
  -6   3   7 1413.22   45.24
  -6   3   7 1697.84   46.44
  -6   3   6  141.48    7.27
  -6   3   6  132.51    6.62
  -6   3   6  155.23    7.90
  -6   3   6  146.90    6.71
  -6   3   5  346.75   12.78
  -6   3   5  372.51   13.32
  -6   3   5  367.92   13.70
  -6   3   5  365.92   12.89
  -6   3   4   13.20    1.73
  -6   3   4   10.50    1.65
  -6   3   4   11.86    1.65
  -6   3   4   12.89    1.73
  -6   3   4   11.82    1.47
  -6   3   3    0.69    0.50
  -6   3   3    0.18    0.28
  -6   3   3    0.09    0.37
  -6   3   3    0.09    0.33
  -6   3   2  125.84    6.17
  -6   3   2  136.75    6.19
  -6   3   2  133.17    6.93
  -6   3   2  139.55    7.51
  -6   3   1  236.41   11.22
  -6   3   1  236.17    9.98
  -6   3   1  216.75    8.83
  -6   3   0  397.72   14.99
  -6   3   0  415.99   13.01
  -6   3   0  398.34   13.94
  -6   3  -1  157.41    7.94
  -6   3  -1  151.78    5.87
  -6   3  -1  148.36    6.52
  -6   3  -2  236.06   10.54
  -6   3  -3  249.81   10.91
   6  -3   3  222.97    8.75
   6  -3   4  174.19    7.29
   6  -3   5   16.62    1.87
  -6   3  -5   14.43    1.86
   6  -3   6   60.80    3.69
  -6   3  -6   67.54    4.10
   6  -3   7    0.85    0.53
  -6   3  -7    0.83    0.49
   6  -3   8    1.29    0.50
  -6   3  -8    1.31    0.49
  -6   3  -9   97.27    3.76
   6  -3   9  111.13    3.99
  -6   2  12  177.13    7.11
  -6   2  11   24.15    2.61
  -6   2  10    2.03    0.98
  -6   2   9   30.65    2.96
  -6   2   9   30.37    3.69
  -6   2   8   70.48    4.91
  -6   2   8   74.12    5.83
  -6   2   8   88.87    5.04
  -6   2   7    6.38    1.33
  -6   2   7    5.11    1.30
  -6   2   7    4.27    1.17
  -6   2   7    3.40    1.25
  -6   2   6  193.30    8.90
  -6   2   6  194.83    8.66
  -6   2   6  206.02    8.59
  -6   2   6  178.21    8.35
  -6   2   5  332.59   12.22
  -6   2   5  329.04   11.94
  -6   2   5  320.04   12.20
  -6   2   5  321.76   12.19
  -6   2   5  332.71   10.99
  -6   2   4  587.25   18.74
  -6   2   4  564.17   18.53
  -6   2   4  569.46   18.40
  -6   2   4  556.33   18.72
  -6   2   4  628.91   18.85
  -6   2   3  253.33    9.54
  -6   2   3  250.77    9.43
  -6   2   3  247.47   10.46
  -6   2   3  236.71    9.40
  -6   2   3  255.75    9.71
  -6   2   3  254.14    9.66
  -6   2   2 1682.61   49.06
  -6   2   2 1598.20   46.71
  -6   2   2 1694.39   46.48
  -6   2   1  169.56    9.19
  -6   2   1  169.38    7.48
  -6   2   1  150.62    7.01
  -6   2   0   72.14    5.99
  -6   2   0   66.70    4.42
  -6   2   0   65.68    3.56
  -6   2   0   63.06    3.87
  -6   2  -1  117.70    5.05
  -6   2  -1  124.71    6.57
  -6   2  -1  117.03    4.94
  -6   2  -1  118.67    5.42
   6  -2   2   19.46    1.84
  -6   2  -2   17.72    1.50
   6  -2   3  124.62    5.57
  -6   2  -3  123.38    6.53
   6  -2   4  295.77   10.34
  -6   2  -4  280.01   10.75
   6  -2   5  191.49    7.53
  -6   2  -5  201.38    8.25
  -6   2  -6  108.27    6.08
   6  -2   6  122.58    5.38
  -6   2  -6  121.57    5.88
  -6   2  -7   25.48    2.17
   6  -2   7   25.78    2.04
  -6   2  -7   24.84    2.22
  -6   2  -8   99.78    4.37
   6  -2   8  101.74    4.16
  -6   2  -8  100.57    4.38
  -6   2  -9   76.86    3.19
  -6   1  13    5.47    0.95
  -6   1  12   36.39    3.08
  -6   1  12   37.03    2.46
  -6   1  11   90.71    5.12
  -6   1  11  101.59    6.31
  -6   1  10   94.72    6.82
  -6   1  10   95.30    5.79
  -6   1  10   98.64    5.37
  -6   1   9  104.79    6.60
  -6   1   9  106.94    7.89
  -6   1   9  115.68    6.36
  -6   1   9  115.15    5.81
  -6   1   8   12.93    2.23
  -6   1   8   18.81    2.85
  -6   1   8   21.19    2.62
  -6   1   7  542.32   19.58
  -6   1   7  603.14   20.23
  -6   1   7  585.31   18.90
  -6   1   7  542.77   19.41
  -6   1   6  360.53   13.62
  -6   1   6  330.12   13.41
  -6   1   6  387.32   13.41
  -6   1   6  357.32   13.74
  -6   1   6  389.18   12.02
  -6   1   5  197.89    8.60
  -6   1   5  209.94    8.48
  -6   1   5  189.89    8.40
  -6   1   5  199.65    8.77
  -6   1   5  207.50    8.13
  -6   1   4    0.27    0.48
  -6   1   4    0.99    0.55
  -6   1   4    0.43    0.47
  -6   1   4    0.38    0.39
  -6   1   4    1.04    0.58
  -6   1   3  127.55    5.88
  -6   1   3  129.63    5.99
  -6   1   3  130.05    6.94
  -6   1   3  121.03    5.88
  -6   1   3  125.00    6.02
  -6   1   3  127.02    6.27
  -6   1   2  666.76   21.88
  -6   1   2  588.51   18.56
  -6   1   2  638.42   19.09
  -6   1   2  579.51   19.27
  -6   1   1  492.94   15.77
  -6   1   1  515.92   16.26
  -6   1   1  489.65   15.71
  -6   1   1  497.45   16.19
  -6   1   0 1364.91   38.14
  -6   1   0 1321.59   42.83
  -6   1   0 1342.64   37.97
  -6   1   0 1393.99   38.59
  -6   1  -1  196.03   11.37
  -6   1  -1  225.87    7.79
  -6   1  -1  207.43    7.96
  -6   1  -2  398.38   17.90
  -6   1  -2  387.91   12.08
  -6   1  -2  378.10   14.15
  -6   1  -3  126.55    9.11
   6  -1   3  150.30    7.43
  -6   1  -3  129.52    6.45
  -6   1  -4   70.86    6.45
   6  -1   4   74.08    5.24
   6  -1   4   78.45    3.99
  -6   1  -4   69.47    4.41
   6  -1   5    6.25    1.48
  -6   1  -5    4.11    1.19
   6  -1   5    6.09    1.04
  -6   1  -5    7.44    1.37
  -6   1  -6   11.57    1.57
   6  -1   6    8.79    1.18
  -6   1  -6   10.26    1.52
  -6   1  -7    8.42    1.25
   6  -1   7    7.97    1.02
  -6   1  -7    8.03    1.17
  -6   1  -8   31.74    1.78
  -6   0  14   10.02    1.02
  -6   0  13   57.02    3.53
  -6   0  13   51.52    2.87
  -6   0  12   23.12    2.35
  -6   0  12   22.42    2.58
  -6   0  11  193.54    8.99
  -6   0  11  192.48    9.80
  -6   0  11  186.43    8.28
  -6   0  10   21.01    2.92
  -6   0  10   22.04    3.38
  -6   0   9   43.86    3.52
  -6   0   9   48.92    4.85
  -6   0   8  630.02   23.46
  -6   0   8  708.03   23.99
  -6   0   8  714.19   22.40
  -6   0   8  688.05   21.72
  -6   0   7  185.14    9.47
  -6   0   7  206.76    8.98
  -6   0   7  215.37    9.56
  -6   0   7  193.95    9.43
  -6   0   7  214.69    8.91
  -6   0   6  387.58   12.74
  -6   0   6  372.54   14.00
  -6   0   6  399.21   14.15
  -6   0   6  364.97   13.70
  -6   0   6  375.26   13.65
  -6   0   6  364.81   13.14
  -6   0   5  484.91   16.63
  -6   0   5  494.71   16.51
  -6   0   5  487.39   16.41
  -6   0   5  502.71   16.41
  -6   0   5  465.40   16.78
  -6   0   5  491.41   16.75
  -6   0   5  505.35   16.71
  -6   0   4  638.46   20.96
  -6   0   4  656.33   20.88
  -6   0   4  720.79   22.03
  -6   0   4  732.47   22.13
  -6   0   4  649.24   20.99
  -6   0   4  671.03   21.27
  -6   0   3  157.38    6.95
  -6   0   3  180.74    8.48
  -6   0   3  167.81    7.25
  -6   0   3  168.72    7.12
  -6   0   2   26.44    2.28
  -6   0   2   25.40    2.22
  -6   0   2   19.54    2.37
  -6   0   2   22.23    2.10
  -6   0   2   24.18    2.31
  -6   0   1   22.71    2.07
  -6   0   1   24.75    3.24
  -6   0   1   21.99    2.00
  -6   0   1   24.55    2.73
  -6   0   1   24.91    2.23
  -6   0   0   26.31    2.12
  -6   0   0   26.96    3.58
  -6   0   0   24.11    2.01
  -6   0   0   24.67    2.17
  -6   0   0   24.01    2.70
   6   0   1   16.07    2.06
  -6   0  -1   18.71    3.12
  -6   0  -1   18.19    1.64
  -6   0  -1   17.67    2.25
  -6   0  -2  237.51   12.65
   6   0   2  248.73   10.55
  -6   0  -2  235.00   10.82
  -6   0  -2  254.05    8.75
  -6   0  -2  270.58   10.22
  -6   0  -3  228.82   12.03
   6   0   3  232.18   10.25
  -6   0  -3  217.44   10.03
  -6   0  -3  227.80    9.20
  -6   0  -3  221.97    8.66
  -6   0  -4   95.89    7.10
  -6   0  -4  115.40    6.26
   6   0   4  119.30    6.80
  -6   0  -4  102.89    5.63
  -6   0  -5  679.02   21.23
  -6   0  -5  686.38   21.53
  -6   0  -6  234.30    9.00
  -6   0  -6  240.59    9.11
  -6   0  -7   86.84    3.85
  -6   0  -7   93.75    4.46
  -6   0  -7   88.49    4.16
  -6   0  -8    3.87    0.60
  -6  -1  14   13.60    1.15
  -6  -1  14   16.79    1.48
  -6  -1  13  118.43    5.45
  -6  -1  13  105.79    4.59
  -6  -1  12   46.72    3.77
  -6  -1  12   44.11    3.11
  -6  -1  12   49.89    3.55
  -6  -1  11  197.01    9.76
  -6  -1  11  198.65    8.21
  -6  -1  11  184.74    8.44
  -6  -1  10  363.11   16.93
  -6  -1  10  469.14   15.49
  -6  -1   9   10.53    2.32
  -6  -1   9   16.16    2.22
  -6  -1   9   11.46    2.21
  -6  -1   9   12.22    2.25
  -6  -1   8    9.96    1.94
  -6  -1   8   10.20    2.14
  -6  -1   8   11.44    1.91
  -6  -1   8    9.34    2.08
  -6  -1   8   12.90    2.32
  -6  -1   8   12.50    1.66
  -6  -1   7   29.23    2.99
  -6  -1   7   30.95    3.26
  -6  -1   7   32.83    3.22
  -6  -1   7   21.87    3.12
  -6  -1   7   28.28    2.89
  -6  -1   7   26.91    2.53
  -6  -1   6  132.94    7.13
  -6  -1   6  128.33    6.59
  -6  -1   6  119.10    6.64
  -6  -1   6  130.47    7.69
  -6  -1   6  146.69    6.37
  -6  -1   6  145.21    6.88
  -6  -1   6  132.88    6.36
  -6  -1   6  131.02    6.18
  -6  -1   5   95.34    5.37
  -6  -1   5  101.71    5.39
  -6  -1   5   98.35    5.51
  -6  -1   5  100.43    6.29
  -6  -1   5  105.91    5.61
  -6  -1   5  100.56    5.36
  -6  -1   5  100.27    5.27
  -6  -1   5   95.74    5.36
  -6  -1   4    4.41    1.00
  -6  -1   4    3.07    0.86
  -6  -1   4    3.63    1.12
  -6  -1   4    3.58    1.07
  -6  -1   4    3.73    0.92
  -6  -1   4    6.63    1.16
  -6  -1   4    2.20    0.73
  -6  -1   4    2.90    0.89
  -6  -1   4    2.44    0.86
  -6  -1   4    3.10    0.84
  -6  -1   3  271.00    9.98
  -6  -1   3  285.13   10.98
  -6  -1   3  270.84   11.20
  -6  -1   3  270.58    9.96
  -6  -1   3  256.31   10.24
  -6  -1   3  285.95   10.26
  -6  -1   3  248.23   10.66
  -6  -1   2   85.97    5.10
  -6  -1   2   84.37    5.19
  -6  -1   2   83.46    4.37
  -6  -1   2   78.21    5.56
  -6  -1   2   74.28    4.78
  -6  -1   2   77.69    4.20
  -6  -1   2   81.97    4.32
  -6  -1   2   79.62    4.36
  -6  -1   2   72.69    4.84
  -6  -1   1  319.77   10.64
  -6  -1   1  318.17   11.78
  -6  -1   1  330.62   11.58
  -6  -1   1  285.07   12.98
  -6  -1   1  272.88   11.63
  -6  -1   1  304.14   10.45
  -6  -1   1  288.88   10.51
  -6  -1   1  289.51   11.66
  -6  -1   0  903.49   30.50
  -6  -1   0  842.18   28.30
  -6  -1   0  918.24   26.30
  -6  -1   0  949.68   26.65
  -6  -1   0  910.29   27.96
  -6  -1  -1  965.47   32.87
  -6  -1  -1 1016.11   31.09
  -6  -1  -1  998.72   28.33
  -6  -1  -1 1040.98   28.69
  -6  -1  -1  934.56   29.64
   6   1   2   89.74    5.71
  -6  -1  -2   75.60    6.09
  -6  -1  -2   82.84    5.37
  -6  -1  -2   84.64    4.11
  -6  -1  -2   93.77    5.03
  -6  -1  -2   85.20    4.62
  -6  -1  -3   24.37    3.22
   6   1   3   31.19    3.29
  -6  -1  -3   25.70    2.69
  -6  -1  -3   26.14    2.63
  -6  -1  -4    0.75    0.56
  -6  -1  -4    1.25    0.73
  -6  -1  -4    0.65    0.54
  -6  -1  -5   18.75    2.04
  -6  -1  -5   16.85    1.97
  -6  -1  -6  101.48    4.45
  -6  -1  -6  101.87    4.96
  -6  -1  -6   96.10    4.70
  -6  -1  -7  140.11    5.32
  -6  -2  14   92.37    4.09
  -6  -2  14   81.16    3.85
  -6  -2  13   94.79    5.11
  -6  -2  13   93.41    4.96
  -6  -2  13   87.21    4.62
  -6  -2  12    2.20    0.76
  -6  -2  12    3.57    1.18
  -6  -2  12    1.42    0.75
  -6  -2  11   23.50    2.98
  -6  -2  11   17.96    2.90
  -6  -2  11   26.09    2.60
  -6  -2  11   17.76    2.06
  -6  -2  11   22.05    2.81
  -6  -2  10    1.80    0.91
  -6  -2  10    2.14    1.33
  -6  -2  10    3.80    1.08
  -6  -2  10    2.93    1.30
  -6  -2  10    2.66    1.13
  -6  -2  10    4.19    1.41
  -6  -2   9    2.49    1.02
  -6  -2   9    3.99    1.39
  -6  -2   9    1.35    0.97
  -6  -2   9    2.48    1.07
  -6  -2   9    1.21    0.70
  -6  -2   9    0.84    0.86
  -6  -2   8   14.08    2.26
  -6  -2   8   14.13    2.20
  -6  -2   8   16.01    2.25
  -6  -2   8   12.42    2.66
  -6  -2   8   15.61    2.10
  -6  -2   8   10.18    2.18
  -6  -2   8   11.24    1.45
  -6  -2   7  110.51    6.30
  -6  -2   7  112.11    6.51
  -6  -2   7  106.98    5.91
  -6  -2   7   96.09    6.10
  -6  -2   7   94.00    7.07
  -6  -2   7  102.14    5.60
  -6  -2   7   96.84    4.98
  -6  -2   7   96.88    4.66
  -6  -2   6  495.73   16.93
  -6  -2   6  489.39   16.58
  -6  -2   6  498.92   18.07
  -6  -2   6  461.02   17.32
  -6  -2   6  489.51   18.73
  -6  -2   6  510.51   16.49
  -6  -2   6  482.62   14.89
  -6  -2   6  510.13   16.54
  -6  -2   6  481.58   15.92
  -6  -2   6  482.71   15.86
  -6  -2   5  626.51   19.91
  -6  -2   5  615.85   20.02
  -6  -2   5  628.67   21.03
  -6  -2   5  621.49   20.63
  -6  -2   5  639.39   21.99
  -6  -2   5  639.57   19.82
  -6  -2   5  615.45   19.54
  -6  -2   5  617.16   19.91
  -6  -2   4  388.99   13.37
  -6  -2   4  387.87   14.62
  -6  -2   4  408.59   15.54
  -6  -2   4  368.94   12.50
  -6  -2   4  388.81   13.32
  -6  -2   4  392.03   13.59
  -6  -2   4  375.18   14.33
  -6  -2   4  407.70   13.46
  -6  -2   4  402.86   13.31
  -6  -2   4  364.14   13.44
  -6  -2   4  405.61   13.31
  -6  -2   4  375.32   13.78
  -6  -2   3  234.37    8.79
  -6  -2   3  248.33   10.50
  -6  -2   3  236.04   10.72
  -6  -2   3  229.09    8.81
  -6  -2   3  222.36    8.69
  -6  -2   3  241.80   10.41
  -6  -2   3  234.20    9.33
  -6  -2   3  209.58    8.21
  -6  -2   3  230.83    8.73
  -6  -2   3  226.50    8.84
  -6  -2   2  129.53    5.66
  -6  -2   2  122.53    6.95
  -6  -2   2  138.49    7.25
  -6  -2   2  121.16    5.97
  -6  -2   2  129.16    7.24
  -6  -2   2  113.70    5.61
  -6  -2   2  122.75    5.50
  -6  -2   2  119.69    6.27
  -6  -2   1  215.55    7.94
  -6  -2   1  233.97   10.11
  -6  -2   1  232.55    9.45
  -6  -2   1  203.86    8.89
  -6  -2   1  203.05   10.11
  -6  -2   1  205.10    9.18
  -6  -2   1  207.15    8.71
  -6  -2   1  212.46    7.91
  -6  -2   1  212.60    8.11
  -6  -2   1  207.83    8.91
  -6  -2   0  113.76    7.21
  -6  -2   0  123.76    6.65
  -6  -2   0  130.91    5.41
  -6  -2   0  124.93    5.52
  -6  -2   0  125.26    6.15
  -6  -2  -1  443.20   17.29
  -6  -2  -1  474.13   16.39
  -6  -2  -1  465.67   16.37
  -6  -2  -1  472.98   14.83
  -6  -2  -1  453.56   15.19
  -6  -2  -2   13.27    1.86
  -6  -2  -2   13.64    1.98
  -6  -2  -2   10.69    1.70
  -6  -2  -2   11.47    1.44
  -6  -2  -3  286.74   11.13
  -6  -2  -3  288.39   11.18
  -6  -2  -4   62.94    3.82
  -6  -2  -4   49.50    2.80
  -6  -2  -4   59.66    4.03
  -6  -2  -4   54.59    3.77
  -6  -2  -5  198.47    7.39
  -6  -2  -5  211.63    8.16
  -6  -2  -5  197.11    7.84
  -6  -2  -6   77.27    3.09
  -6  -2  -6   89.74    3.94
  -6  -3  14   43.46    2.76
  -6  -3  14   37.99    2.27
  -6  -3  14   45.49    2.56
  -6  -3  13   23.67    2.47
  -6  -3  13   21.65    2.09
  -6  -3  12  281.28   11.81
  -6  -3  12  268.78   10.64
  -6  -3  12  263.60   10.04
  -6  -3  12  248.84   10.87
  -6  -3  11  153.34    7.76
  -6  -3  11  150.22    7.36
  -6  -3  11  146.74    8.32
  -6  -3  10  656.04   22.72
  -6  -3  10  604.92   19.28
  -6  -3  10  610.28   19.97
  -6  -3  10  569.70   19.65
  -6  -3  10  544.60   17.85
  -6  -3  10  531.38   21.36
  -6  -3  10  459.49   21.07
  -6  -3   9    5.82    1.50
  -6  -3   9    4.74    1.54
  -6  -3   9    2.39    1.08
  -6  -3   9    3.98    1.75
  -6  -3   9    5.64    1.42
  -6  -3   8  626.90   20.90
  -6  -3   8  586.19   19.71
  -6  -3   8  559.06   20.49
  -6  -3   8  576.98   23.55
  -6  -3   8  600.65   19.04
  -6  -3   8  579.13   21.48
  -6  -3   7    9.78    1.62
  -6  -3   7   10.29    2.04
  -6  -3   7   14.61    2.09
  -6  -3   7   10.57    2.16
  -6  -3   7   10.41    2.43
  -6  -3   7   11.26    1.26
  -6  -3   7   11.27    1.61
  -6  -3   7   11.27    2.04
  -6  -3   7   11.93    1.41
  -6  -3   6    1.77    0.90
  -6  -3   6    2.13    0.81
  -6  -3   6    1.72    0.96
  -6  -3   6    1.19    0.45
  -6  -3   6    1.46    0.89
  -6  -3   6    1.43    0.66
  -6  -3   6    0.79    0.42
  -6  -3   6    2.13    0.72
  -6  -3   6    3.50    0.88
  -6  -3   5   58.97    3.92
  -6  -3   5   67.77    5.50
  -6  -3   5   60.78    3.90
  -6  -3   5   66.80    4.72
  -6  -3   5   62.70    5.04
  -6  -3   5   62.99    4.31
  -6  -3   5   64.58    3.61
  -6  -3   5   66.39    3.90
  -6  -3   5   63.56    4.27
  -6  -3   5   61.37    3.43
  -6  -3   5   61.92    3.90
  -6  -3   4  203.07    7.99
  -6  -3   4  202.29    9.75
  -6  -3   4  211.20   10.73
  -6  -3   4  202.47    7.99
  -6  -3   4  197.99    7.73
  -6  -3   4  199.72    8.40
  -6  -3   4  187.09    8.83
  -6  -3   4  189.18    7.73
  -6  -3   4  198.08    7.83
  -6  -3   4  201.41    8.22
  -6  -3   4  186.35    7.39
  -6  -3   4  201.05    7.89
  -6  -3   4  196.47    8.32
  -6  -3   3  548.23   17.02
  -6  -3   3  572.47   20.10
  -6  -3   3  586.19   20.92
  -6  -3   3  525.94   17.33
  -6  -3   3  528.53   18.80
  -6  -3   3  526.51   17.14
  -6  -3   3  535.80   16.89
  -6  -3   3  539.45   17.01
  -6  -3   3  554.99   17.16
  -6  -3   2  122.92    5.36
  -6  -3   2  141.08    8.09
  -6  -3   2  140.17    7.68
  -6  -3   2  123.39    6.13
  -6  -3   2  116.24    6.85
  -6  -3   2  122.65    6.03
  -6  -3   2  124.24    5.43
  -6  -3   2  126.65    5.67
  -6  -3   2  118.90    6.07
  -6  -3   1  185.45    9.51
  -6  -3   1  188.81    8.47
  -6  -3   1  153.10    8.24
  -6  -3   1  165.90    7.70
  -6  -3   1  170.30    7.01
  -6  -3   1  171.48    7.50
  -6  -3   0  185.88    8.66
  -6  -3   0  168.14    7.85
  -6  -3   0  149.76    7.95
  -6  -3   0  172.53    7.98
  -6  -3   0  160.95    6.85
  -6  -3   0  167.43    7.13
  -6  -3  -1    1.27    0.77
  -6  -3  -1    0.38    0.51
  -6  -3  -1    0.68    0.47
  -6  -3  -1    1.29    0.64
  -6  -3  -2   25.55    2.18
  -6  -3  -2   27.19    2.63
  -6  -3  -2   24.76    2.59
  -6  -3  -2   29.68    2.09
  -6  -3  -3  102.67    5.15
  -6  -3  -3   97.80    4.27
  -6  -3  -3  108.32    5.70
  -6  -3  -3   97.42    5.34
  -6  -3  -4    1.41    0.52
  -6  -3  -4    3.12    0.86
  -6  -3  -4    1.73    0.69
  -6  -3  -5   48.35    2.79
  -6  -3  -5   46.31    2.23
  -6  -3  -6   68.30    2.68
  -6  -4  14   65.06    3.41
  -6  -4  13   49.40    2.96
  -6  -4  12   24.87    2.85
  -6  -4  12   20.55    2.10
  -6  -4  12   25.43    2.45
  -6  -4  12   20.34    2.58
  -6  -4  11   45.75    4.29
  -6  -4  11   41.12    3.28
  -6  -4  11   36.02    3.36
  -6  -4  10   13.69    2.42
  -6  -4  10   13.02    1.91
  -6  -4  10   12.30    2.06
  -6  -4  10   13.27    2.15
  -6  -4   9   49.89    3.72
  -6  -4   9   53.19    4.44
  -6  -4   9   40.97    3.93
  -6  -4   9   49.67    6.01
  -6  -4   9   55.70    5.15
  -6  -4   8  419.80   14.34
  -6  -4   8  440.80   15.34
  -6  -4   8  399.25   15.95
  -6  -4   8  373.89   15.87
  -6  -4   8  416.50   18.48
  -6  -4   8  392.05   12.65
  -6  -4   8  408.25   13.34
  -6  -4   8  430.62   16.11
  -6  -4   8  392.63   12.52
  -6  -4   7  451.79   15.38
  -6  -4   7  423.09   16.27
  -6  -4   7  418.77   17.03
  -6  -4   7  437.77   14.73
  -6  -4   7  418.73   17.34
  -6  -4   7  435.92   13.63
  -6  -4   7  442.16   14.13
  -6  -4   7  421.39   13.55
  -6  -4   7  447.74   13.86
  -6  -4   7  405.67   13.40
  -6  -4   6  139.97    6.61
  -6  -4   6  133.59    7.75
  -6  -4   6  139.23    6.34
  -6  -4   6  149.42    8.37
  -6  -4   6  135.54    8.23
  -6  -4   6  141.52    5.93
  -6  -4   6  140.07    6.06
  -6  -4   6  140.35    5.94
  -6  -4   6  131.12    5.75
  -6  -4   6  152.84    6.32
  -6  -4   5  167.19    7.13
  -6  -4   5  182.76    7.18
  -6  -4   5  164.03    9.88
  -6  -4   5  174.16    8.40
  -6  -4   5  166.64    8.89
  -6  -4   5  161.27    6.86
  -6  -4   5  170.82    6.86
  -6  -4   5  160.47    7.39
  -6  -4   5  172.41    6.96
  -6  -4   5  179.00    7.35
  -6  -4   5  168.13    6.94
  -6  -4   4   58.61    3.38
  -6  -4   4   58.14    5.01
  -6  -4   4   59.60    5.93
  -6  -4   4   56.71    4.16
  -6  -4   4   53.90    3.50
  -6  -4   4   60.41    3.41
  -6  -4   4   57.73    3.64
  -6  -4   4   55.34    3.46
  -6  -4   4   63.28    3.93
  -6  -4   3  173.83    9.63
  -6  -4   3  190.25   10.33
  -6  -4   3  167.11    7.31
  -6  -4   3  152.47    7.71
  -6  -4   3  167.99    7.18
  -6  -4   3  167.07    6.56
  -6  -4   3  159.56    7.18
  -6  -4   3  168.56    6.98
  -6  -4   3  164.26    7.25
  -6  -4   2   74.03    6.23
  -6  -4   2   73.71    5.55
  -6  -4   2   63.01    4.46
  -6  -4   2   68.43    4.14
  -6  -4   2   71.70    4.46
  -6  -4   2   68.98    4.15
  -6  -4   1  141.76    6.85
  -6  -4   1  155.69    7.50
  -6  -4   1  128.55    6.70
  -6  -4   1  144.83    6.49
  -6  -4   1  141.11    6.99
  -6  -4   1  138.66    6.30
  -6  -4   1  133.22    6.20
  -6  -4   0  106.79    6.38
  -6  -4   0  110.68    5.74
  -6  -4   0  104.36    5.13
  -6  -4   0  104.22    5.89
  -6  -4   0  100.38    4.92
  -6  -4  -1   70.22    3.77
  -6  -4  -1   73.05    4.37
  -6  -4  -1   72.64    3.70
  -6  -4  -2  279.48    9.83
  -6  -4  -2  254.63    8.64
  -6  -4  -2  264.27   10.33
  -6  -4  -3  101.26    4.97
  -6  -4  -3   94.33    4.34
  -6  -4  -4  144.68    5.52
  -6  -4  -4  129.73    4.68
   6   4   5   20.70    1.23
  -6  -5  14   82.16    3.67
  -6  -5  14   81.71    3.84
  -6  -5  13  205.51    7.94
  -6  -5  13  192.12    7.31
  -6  -5  12  141.31    6.85
  -6  -5  12  136.17    6.41
  -6  -5  11  200.22    8.92
  -6  -5  11  173.54    7.74
  -6  -5  11  179.20    8.42
  -6  -5  11  200.65    9.56
  -6  -5  10  402.81   14.92
  -6  -5  10  375.78   14.64
  -6  -5   9  198.64    8.78
  -6  -5   9  185.03    9.38
  -6  -5   9  176.22    9.40
  -6  -5   8   12.68    2.62
  -6  -5   8   12.76    1.44
  -6  -5   8   16.77    2.09
  -6  -5   8    9.98    2.24
  -6  -5   8   15.73    2.65
  -6  -5   8   14.81    1.53
  -6  -5   7    3.05    1.16
  -6  -5   7    4.06    1.48
  -6  -5   7    2.14    1.28
  -6  -5   7    2.27    0.76
  -6  -5   7    2.40    0.68
  -6  -5   7    1.60    1.04
  -6  -5   7    4.57    0.78
  -6  -5   7    2.58    0.70
  -6  -5   7    1.68    0.58
  -6  -5   6   33.88    3.70
  -6  -5   6   39.80    4.00
  -6  -5   6   34.06    3.82
  -6  -5   6   30.10    2.40
  -6  -5   6   28.90    2.69
  -6  -5   6   29.04    2.11
  -6  -5   6   30.25    2.40
  -6  -5   6   31.68    2.49
  -6  -5   6   34.68    2.61
  -6  -5   5   17.86    3.36
  -6  -5   5   27.48    2.80
  -6  -5   5   23.94    1.88
  -6  -5   5   21.21    2.05
  -6  -5   5   25.00    2.32
  -6  -5   5   22.46    2.16
  -6  -5   4  245.40    9.09
  -6  -5   4  216.25   11.39
  -6  -5   4  245.66   13.61
  -6  -5   4  231.48    8.94
  -6  -5   4  238.64    9.25
  -6  -5   3  434.67   19.09
  -6  -5   3  479.58   15.70
  -6  -5   3  463.34   16.07
  -6  -5   3  477.38   16.08
  -6  -5   3  502.14   15.92
  -6  -5   2   90.16    6.98
  -6  -5   2   74.42    5.40
  -6  -5   2   72.70    4.13
  -6  -5   2   73.87    4.58
  -6  -5   2   72.49    4.12
  -6  -5   1  197.78    9.74
  -6  -5   1  167.98    7.81
  -6  -5   1  183.38    7.28
  -6  -5   1  184.47    8.18
  -6  -5   1  190.74    8.01
  -6  -5   1  185.77    7.33
  -6  -5   0   94.97    4.41
  -6  -5   0   98.06    5.60
  -6  -5   0   99.96    5.11
  -6  -5  -1   71.28    3.27
  -6  -5  -1   72.72    3.92
  -6  -5  -2    3.51    0.72
  -6  -5  -2    3.70    0.88
   6   5   3   13.74    1.13
  -6  -5  -3   14.10    1.08
  -6  -6  13    3.18    0.71
  -6  -6  13    2.69    0.60
  -6  -6  12    2.23    0.77
  -6  -6  12    3.66    0.84
  -6  -6  11  322.82   11.22
  -6  -6  11  304.44   11.24
  -6  -6  11  323.71   12.03
  -6  -6  10   10.99    1.52
  -6  -6  10   11.41    1.94
  -6  -6  10   12.29    2.03
  -6  -6   9  214.08    9.88
  -6  -6   9  192.18    9.66
  -6  -6   8  114.46    6.80
  -6  -6   8  118.57    7.45
  -6  -6   8  124.23    7.60
  -6  -6   8  126.19    6.22
  -6  -6   8  122.50    5.35
  -6  -6   7  236.27    8.48
  -6  -6   7  223.18   10.48
  -6  -6   7  204.80   10.98
  -6  -6   7  237.63   11.01
  -6  -6   7  215.54    8.36
  -6  -6   6  141.71    6.03
  -6  -6   6  123.73    7.62
  -6  -6   6  137.02    7.08
  -6  -6   6  136.86    6.08
  -6  -6   5  308.59   15.16
  -6  -6   5  323.01   11.43
  -6  -6   4   23.39    2.11
  -6  -6   4   18.05    2.90
  -6  -6   4   23.48    3.55
  -6  -6   4   24.70    2.32
  -6  -6   3   25.20    2.14
  -6  -6   3   17.00    2.89
  -6  -6   3   18.42    2.73
  -6  -6   2    1.23    0.54
  -6  -6   2    1.20    0.92
  -6  -6   2    1.40    0.77
  -6  -6   2    1.33    0.73
  -6  -6   1  112.71    4.69
  -6  -6   1  104.56    6.00
  -6  -6   1  108.65    5.19
  -6  -6   0  200.26    6.81
  -6  -6   0  216.61    7.70
  -6  -6  -1   54.53    2.76
  -6  -6  -2  165.41    5.19
  -6  -7  13   32.99    1.90
  -6  -7  13   26.09    1.72
  -6  -7  12    9.91    1.31
  -6  -7  12   10.77    1.29
  -6  -7  11   94.71    4.65
  -6  -7  11  103.94    4.85
  -6  -7  10   14.56    1.97
  -6  -7  10   16.91    2.10
  -6  -7   9   22.32    2.69
  -6  -7   9   24.28    2.70
  -6  -7   8    1.16    0.77
  -6  -7   8    3.17    1.17
  -6  -7   8    1.67    0.60
  -6  -7   8    2.62    1.02
  -6  -7   7    3.45    1.16
  -6  -7   7    3.87    1.07
  -6  -7   7    3.24    1.28
  -6  -7   7    3.50    0.81
  -6  -7   6   93.67    6.02
  -6  -7   6   95.77    4.73
  -6  -7   5  198.86    7.48
  -6  -7   5  188.79   10.07
  -6  -7   5  190.37    7.65
  -6  -7   4  303.65   10.22
  -6  -7   4  275.43   12.34
  -6  -7   4  316.49   12.83
  -6  -7   3  558.40   17.04
  -6  -7   3  545.57   19.69
  -6  -7   3  568.72   18.73
  -6  -7   3  600.40   17.76
  -6  -7   2  190.85    6.77
  -6  -7   2  187.00    8.38
  -6  -7   1   13.03    1.48
  -6  -7   1   15.95    1.44
  -6  -7   0    0.58    0.30
  -6  -8  11   75.03    3.39
  -6  -8  11   83.16    3.81
  -6  -8  10  117.59    5.38
  -6  -8  10  128.38    5.45
  -6  -8   9  198.35    8.45
  -6  -8   9  223.97    8.15
  -6  -8   8   71.16    4.62
  -6  -8   8   74.79    3.56
  -6  -8   7   60.72    4.06
  -6  -8   7   65.93    3.39
  -6  -8   6   94.83    5.48
  -6  -8   6  106.09    6.06
  -6  -8   6  108.88    4.70
  -6  -8   5    0.78    0.68
  -6  -8   4   40.84    3.26
  -6  -8   4   45.35    3.11
  -6  -8   4   48.36    2.73
  -6  -8   3   10.65    1.44
  -6  -8   3   13.92    1.29
  -6  -8   2   30.80    2.02
  -6  -8   2   38.84    1.99
  -6  -9   9   21.42    1.70
  -6  -9   8   16.68    1.62
  -6  -9   7   30.30    1.78
  -6  -9   6   39.35    2.50
  -6  -9   6   44.12    2.22
   7 -10  -2   13.80    0.98
   7 -10  -1   17.18    1.27
   7 -10  -1   17.24    1.33
   7 -10   0    4.25    0.68
   7 -10   0    4.67    0.72
   7 -10   1   61.01    2.86
   7 -10   2  251.82    8.03
   7 -10   3   26.54    1.61
   7 -10   3   37.57    2.01
   7 -10   4   39.90    2.10
   7 -10   4   41.31    2.05
   7 -10   5    7.36    0.74
   7 -10   5    6.17    0.67
  -7   9   4  164.63    6.34
   7  -9  -4  169.76    5.67
   7  -9  -4  160.94    5.85
  -7   9   3   76.87    4.18
   7  -9  -3   89.91    3.83
   7  -9  -3   83.10    3.92
  -7   9   2   51.46    3.39
   7  -9  -2   59.63    3.26
  -7   9   1   10.14    1.47
   7  -9  -1   11.35    1.41
   7  -9   0   15.94    1.61
   7  -9   0   15.12    1.60
   7  -9   1   11.06    1.36
   7  -9   1   11.13    1.36
   7  -9   2   12.46    1.42
   7  -9   2    9.77    1.23
   7  -9   3    6.23    1.00
   7  -9   4  122.69    5.16
   7  -9   4  111.94    4.70
   7  -9   4  125.01    4.91
   7  -9   5   42.86    2.52
   7  -9   5   48.46    2.48
   7  -9   6  155.39    5.43
   7  -9   6  161.88    5.35
  -7   8   6  119.21    4.98
   7  -8  -6  120.13    4.50
   7  -8  -5   58.91    3.15
   7  -8  -5   54.78    3.18
  -7   8   4   76.29    4.74
  -7   8   3   41.84    3.46
  -7   8   2   83.84    5.28
   7  -8  -2  105.19    5.12
  -7   8   1   56.14    4.09
   7  -8  -1   66.35    3.90
   7  -8  -1   62.62    3.80
  -7   8   0   73.50    4.66
   7  -8   0   80.53    4.37
   7  -8   0   80.78    4.35
   7  -8   1   34.22    2.64
   7  -8   1   33.09    2.58
   7  -8   2   42.72    2.90
   7  -8   2   39.45    2.75
   7  -8   3    3.95    0.89
   7  -8   3    3.08    0.74
   7  -8   4  152.26    6.09
   7  -8   5   10.56    1.36
   7  -8   5    9.39    1.15
   7  -8   6    8.14    1.06
   7  -8   6    7.64    0.96
   7  -8   6    7.59    0.90
   7  -8   7   19.51    1.34
   7  -8   7   20.02    1.22
   7  -7  -8   26.05    1.50
  -7   7   8   21.72    1.47
  -7   7   7   90.82    4.21
   7  -7  -7   84.07    3.88
  -7   7   6  178.53    7.51
   7  -7  -6  165.63    6.65
  -7   7   5    0.54    0.71
   7  -7  -5    1.31    0.59
   7  -7  -4   89.84    4.98
  -7   7   3  178.15    8.87
   7  -7  -3  187.86    7.91
  -7   7   2   98.49    6.02
  -7   7   1   14.18    2.13
   7  -7  -1   14.64    1.87
  -7   7   0    9.91    1.73
   7  -7   0   10.68    1.58
   7  -7   0   10.93    1.52
   7  -7   1    4.36    1.00
   7  -7   1    4.63    0.97
   7  -7   2   13.73    1.67
   7  -7   2   11.29    1.43
   7  -7   3  103.50    4.94
   7  -7   4  200.02    7.92
   7  -7   4  177.67    7.08
   7  -7   5  200.59    7.81
   7  -7   5  195.75    7.19
   7  -7   6   31.35    2.28
   7  -7   6   32.31    2.01
   7  -7   7   77.49    3.45
   7  -7   7   70.42    2.99
   7  -7   8    1.06    0.31
  -7   6   9   94.67    3.82
   7  -6  -9   73.93    3.22
  -7   6   8  107.95    4.79
   7  -6  -8  100.08    4.68
  -7   6   7   10.74    1.73
   7  -6  -7   11.09    1.60
  -7   6   6  136.26    7.69
   7  -6  -6  140.82    6.72
  -7   6   5    4.72    1.50
   7  -6  -5    4.18    1.08
  -7   6   4   14.83    2.41
  -7   6   4   14.81    2.03
   7  -6  -4   14.28    1.93
   7  -6  -3   87.71    4.88
  -7   6   2  239.51   10.70
   7  -6  -2  249.99    9.46
  -7   6   1  445.93   16.36
   7  -6  -1  468.20   15.47
  -7   6   1  434.58   18.26
  -7   6   0  298.26   11.99
  -7   6   0  303.66   13.98
   7  -6   0  314.36   11.26
  -7   6  -1  146.12    9.53
  -7   6  -1  151.79    8.87
   7  -6   1  149.53    6.51
  -7   6  -1  140.66    6.72
  -7   6  -2   65.45    5.57
   7  -6   2   71.77    3.97
   7  -6   3    0.98    0.55
   7  -6   4    4.06    1.00
   7  -6   4    3.07    0.75
   7  -6   5   21.99    2.11
   7  -6   5   21.79    1.81
   7  -6   6    9.77    1.30
   7  -6   7   19.79    1.62
   7  -6   7   19.07    1.30
  -7   6  -8   25.54    1.80
   7  -6   8   31.46    1.73
   7  -5 -10    5.85    0.73
   7  -5  -9   17.58    1.74
  -7   5   8   15.18    1.88
   7  -5  -8   15.55    1.91
  -7   5   7  489.40   17.02
   7  -5  -7  420.66   15.40
  -7   5   6  536.62   20.14
   7  -5  -6  495.94   17.16
  -7   5   5  122.10    7.42
   7  -5  -5  103.24    5.65
  -7   5   4  286.18   12.29
   7  -5  -4  273.69   10.43
  -7   5   3   71.48    5.13
  -7   5   3   75.39    4.69
  -7   5   2   34.08    3.98
  -7   5   1   18.07    2.74
  -7   5   1   18.99    2.87
  -7   5   0  111.52    7.90
  -7   5   0  120.70    7.50
   7  -5   0  105.57    5.26
  -7   5  -1  247.64   13.47
  -7   5  -1  227.38   11.06
   7  -5   1  228.08    8.48
  -7   5  -1  209.58    8.87
  -7   5  -2    4.62    1.41
   7  -5   2    4.05    0.86
  -7   5  -3  175.82    9.36
   7  -5   3  180.13    6.93
   7  -5   4  136.20    6.26
   7  -5   4  135.40    5.52
   7  -5   5  194.60    7.78
   7  -5   6   63.86    3.53
   7  -5   7   48.85    2.70
  -7   5  -8    0.50    0.28
   7  -5   8    0.64    0.29
  -7   4  11   89.03    4.08
   7  -4 -10   31.13    2.25
  -7   4   9    2.89    0.82
   7  -4  -9    2.85    0.87
  -7   4   8   50.92    3.77
  -7   4   8   59.89    4.13
   7  -4  -8   55.06    4.06
  -7   4   7    1.06    0.64
  -7   4   7    1.56    0.90
   7  -4  -7    1.16    0.67
  -7   4   6  125.25    6.59
   7  -4  -6  132.79    6.53
  -7   4   5   80.55    4.86
  -7   4   5   86.56    5.84
  -7   4   4  167.74    8.26
  -7   4   4  157.11    7.14
  -7   4   3  205.91    8.10
  -7   4   3  189.40    8.85
  -7   4   3  191.83    8.54
  -7   4   3  195.60    9.76
  -7   4   2  220.42    9.71
  -7   4   2  249.93   11.06
  -7   4   2  233.03   10.83
  -7   4   2  234.09    9.27
  -7   4   1  687.91   24.15
  -7   4   1  623.63   22.38
  -7   4   0  248.53   12.98
  -7   4   0  234.95   10.78
   7  -4   0  217.84    8.29
  -7   4   0  230.30    9.50
  -7   4  -1  607.12   21.24
   7  -4   1  585.68   17.95
  -7   4  -1  587.38   18.87
  -7   4  -2   32.36    3.56
   7  -4   3    0.89    0.51
   7  -4   4   25.13    2.31
  -7   4  -4   26.88    2.77
   7  -4   5   22.58    2.07
   7  -4   6  271.08    9.37
  -7   4  -7   21.54    2.04
   7  -4   7   24.57    1.76
   7  -4   8   63.80    2.66
  -7   3  12    0.27    0.28
  -7   3  11   46.26    2.85
   7  -3 -11   45.65    2.56
  -7   3  10   73.60    4.47
   7  -3 -10   66.51    3.95
  -7   3   9  128.39    7.15
   7  -3  -9  143.30    6.86
  -7   3   8    4.42    1.33
  -7   3   8    3.15    0.93
  -7   3   8    5.15    1.10
   7  -3  -8    7.09    1.46
  -7   3   7   90.41    5.31
  -7   3   7   93.44    5.99
  -7   3   7  111.95    6.31
  -7   3   7  100.43    5.31
  -7   3   6  255.18   10.33
  -7   3   6  243.67   10.67
  -7   3   6  246.54   10.13
  -7   3   5  655.35   21.79
  -7   3   5  716.09   22.40
  -7   3   5  711.46   22.78
  -7   3   5  676.71   21.93
  -7   3   4  268.78   10.65
  -7   3   4  287.36   11.20
  -7   3   4  273.15   11.22
  -7   3   3   71.82    4.67
  -7   3   3   77.73    4.51
  -7   3   3   74.43    4.66
  -7   3   3   85.55    5.44
  -7   3   2    2.57    0.88
  -7   3   2    3.12    0.88
  -7   3   2    4.83    1.22
  -7   3   2    3.03    1.24
  -7   3   2    2.49    0.80
  -7   3   1  162.52    6.63
  -7   3   1  161.03    9.53
  -7   3   1  150.70    7.75
  -7   3   1  145.87    6.51
  -7   3   1  154.29    7.39
  -7   3   0  232.35    8.61
  -7   3   0  248.58   13.21
  -7   3   0  242.06   10.55
  -7   3   0  241.64    8.68
  -7   3   0  234.44    9.46
  -7   3  -1  563.10   23.46
  -7   3  -1  552.65   19.00
  -7   3  -1  500.89   16.72
   7  -3   2  133.51    5.95
   7  -3   3  387.94   12.76
  -7   3  -3  396.84   14.45
   7  -3   4   98.81    4.77
  -7   3  -4   82.54    7.97
   7  -3   5   36.28    2.55
   7  -3   6   94.00    4.19
  -7   3  -6   88.59    5.04
   7  -3   7   26.97    1.72
  -7   3  -7   22.31    1.80
  -7   3  -8    0.78    0.30
  -7   2  12  142.41    5.82
  -7   2  12  144.99    5.87
  -7   2  11   36.14    3.10
  -7   2  10  249.81    9.47
  -7   2  10  246.95   11.15
  -7   2   9   43.85    3.57
  -7   2   9   45.69    3.32
  -7   2   9   51.32    3.69
  -7   2   8   80.42    5.33
  -7   2   8   84.10    6.18
  -7   2   8   89.21    5.25
  -7   2   7  328.73   13.24
  -7   2   7  301.04   12.32
  -7   2   7  296.22   12.08
  -7   2   6    1.99    0.78
  -7   2   6    2.99    1.05
  -7   2   6    1.81    0.77
  -7   2   6    2.46    0.95
  -7   2   5    5.24    1.21
  -7   2   5    6.64    1.40
  -7   2   5    6.30    1.39
  -7   2   5    5.05    1.08
  -7   2   5    5.68    1.29
  -7   2   4  313.13   12.00
  -7   2   4  330.46   12.18
  -7   2   4  295.47   11.60
  -7   2   4  332.48   12.50
  -7   2   4  322.84   12.37
  -7   2   4  334.20   12.35
  -7   2   3  772.31   24.36
  -7   2   3  834.74   26.47
  -7   2   3  825.45   24.88
  -7   2   3  782.61   24.59
  -7   2   3  783.05   25.48
  -7   2   2  440.50   14.48
  -7   2   2  448.37   17.44
  -7   2   2  405.45   14.31
  -7   2   2  421.44   15.14
  -7   2   1  101.61    5.00
  -7   2   1  107.65    7.67
  -7   2   1  101.64    5.62
  -7   2   1   95.74    4.90
  -7   2   1   94.11    5.32
  -7   2   0   28.01    2.26
  -7   2   0   30.41    4.32
  -7   2   0   25.79    2.16
  -7   2   0   20.94    2.22
  -7   2  -1  446.11   13.61
  -7   2  -1  415.55   14.10
  -7   2  -2   33.54    5.01
  -7   2  -2   46.64    3.93
   7  -2   3   52.18    3.11
  -7   2  -3   50.02    3.78
   7  -2   4  113.03    4.99
   7  -2   5  103.06    4.51
  -7   2  -5   99.04    5.72
   7  -2   6  221.59    7.44
  -7   2  -6  213.34    8.23
  -7   2  -7  186.60    6.82
  -7   2  -8  161.57    5.44
  -7   1  13   43.64    2.23
  -7   1  13    4.44    0.62
  -7   1  12    2.83    0.69
  -7   1  12    3.67    0.86
  -7   1  12    3.41    0.94
  -7   1  11   38.35    3.01
  -7   1  11   40.13    3.75
  -7   1  10  120.90    6.61
  -7   1  10  111.23    7.67
  -7   1  10  120.91    6.07
  -7   1   9  301.60   13.17
  -7   1   9  297.75   14.57
  -7   1   9  338.25   12.94
  -7   1   9  350.36   12.19
  -7   1   8   69.41    5.36
  -7   1   8   86.30    6.23
  -7   1   8   77.01    5.41
  -7   1   8   92.89    5.44
  -7   1   7  148.14    7.98
  -7   1   7  162.60    8.40
  -7   1   7  139.57    7.81
  -7   1   7  159.23    7.97
  -7   1   6    8.07    1.69
  -7   1   6    9.19    1.36
  -7   1   6    7.71    1.57
  -7   1   6    8.17    1.68
  -7   1   6    6.06    1.40
  -7   1   6    7.36    1.62
  -7   1   5   11.62    1.85
  -7   1   5   11.63    1.83
  -7   1   5   12.82    1.84
  -7   1   5   10.51    1.81
  -7   1   5   10.75    1.80
  -7   1   5   11.86    1.96
  -7   1   4   77.38    4.77
  -7   1   4   83.69    4.98
  -7   1   4   90.60    5.59
  -7   1   4   83.53    4.69
  -7   1   4   79.93    5.00
  -7   1   4   79.49    4.92
  -7   1   3   73.56    4.45
  -7   1   3   78.36    5.62
  -7   1   3   68.44    4.64
  -7   1   3   75.68    4.52
  -7   1   3   77.93    4.86
  -7   1   2   18.38    2.03
  -7   1   2   20.23    3.02
  -7   1   2   16.53    2.37
  -7   1   2   20.77    2.13
  -7   1   2   19.52    2.26
  -7   1   1   13.54    1.65
  -7   1   1   14.72    1.73
  -7   1   1   11.85    1.70
  -7   1   0  599.54   18.45
  -7   1   0  609.20   23.81
  -7   1   0  645.53   18.50
  -7   1   0  570.27   20.69
  -7   1   0  556.36   18.63
  -7   1  -1  532.88   22.91
  -7   1  -1  581.85   17.21
  -7   1  -1  551.34   19.54
  -7   1  -2  846.47   32.28
  -7   1  -2  915.76   25.97
  -7   1  -2  915.39   28.08
  -7   1  -3   49.45    5.49
  -7   1  -3   58.26    4.68
  -7   1  -3   58.06    3.73
  -7   1  -4  254.40   10.65
  -7   1  -5    0.55    0.47
  -7   1  -6    7.18    1.15
  -7   1  -6    6.33    0.87
  -7   1  -7   51.57    2.49
  -7   1  -7   59.30    2.96
  -7   0  13  195.22    7.02
  -7   0  13  243.86    8.22
  -7   0  12   91.89    4.83
  -7   0  12  103.57    5.63
  -7   0  12   91.10    4.64
  -7   0  12   87.24    4.21
  -7   0  11   59.26    4.40
  -7   0  11   56.51    4.87
  -7   0  11   62.95    4.30
  -7   0  11   59.56    4.01
  -7   0  10    0.17    0.65
  -7   0  10   -0.22    0.89
  -7   0  10    0.84    0.70
  -7   0   9   96.52    7.00
  -7   0   9  120.32    6.35
  -7   0   9  118.74    7.80
  -7   0   9  135.99    7.52
  -7   0   9   99.95    6.65
  -7   0   9  110.77    5.52
  -7   0   8  122.27    7.66
  -7   0   8  143.95    8.09
  -7   0   8  141.39    7.21
  -7   0   8  146.04    7.91
  -7   0   8  116.27    7.49
  -7   0   8  131.81    6.63
  -7   0   7    1.08    0.78
  -7   0   7    1.59    0.84
  -7   0   7    2.49    1.06
  -7   0   7    1.14    0.88
  -7   0   7    1.10    0.71
  -7   0   6  451.47   16.38
  -7   0   6  429.40   15.93
  -7   0   6  424.77   15.74
  -7   0   6  499.31   15.55
  -7   0   6  429.62   16.45
  -7   0   6  445.46   15.93
  -7   0   6  445.43   15.73
  -7   0   5  175.79    8.37
  -7   0   5  194.73    8.75
  -7   0   5  186.48    8.35
  -7   0   5  213.15    9.05
  -7   0   5  203.77    7.75
  -7   0   5  191.97    8.64
  -7   0   5  194.60    8.72
  -7   0   5  194.47    9.07
  -7   0   4   50.71    4.12
  -7   0   4   45.13    3.30
  -7   0   4   44.85    3.45
  -7   0   4   47.13    4.02
  -7   0   4   40.77    3.22
  -7   0   4   42.59    3.51
  -7   0   4   44.66    3.46
  -7   0   4   41.28    3.84
  -7   0   3  134.22    6.88
  -7   0   3  128.12    6.09
  -7   0   3  111.46    5.41
  -7   0   3  127.18    7.40
  -7   0   3  117.19    6.30
  -7   0   3  121.22    6.07
  -7   0   3  118.47    5.89
  -7   0   3  107.70    5.88
  -7   0   3  112.81    6.81
  -7   0   2  624.77   19.05
  -7   0   2  566.32   20.18
  -7   0   2  596.21   18.86
  -7   0   2  598.85   19.18
  -7   0   2  581.35   20.69
  -7   0   1  203.72    8.02
  -7   0   1  207.29   11.11
  -7   0   1  199.47    7.89
  -7   0   1  200.33    8.21
  -7   0   1  200.03    9.52
  -7   0   0    4.67    1.69
  -7   0   0    6.34    1.60
  -7   0   0    3.23    0.80
  -7   0   0    3.68    1.17
  -7   0  -1    1.45    1.16
  -7   0  -1    6.53    1.65
  -7   0  -1    3.49    0.75
  -7   0  -1    3.87    1.17
  -7   0  -1    5.48    1.01
  -7   0  -2  142.81    9.23
  -7   0  -2  153.32    7.96
  -7   0  -2  148.81    5.93
  -7   0  -2  154.17    6.94
  -7   0  -3   74.72    4.90
  -7   0  -3   68.51    3.71
  -7   0  -4  151.39    7.16
  -7   0  -4  153.96    6.91
  -7   0  -5  184.88    7.49
  -7   0  -5  186.04    6.85
  -7   0  -6  150.85    5.62
  -7   0  -6  147.54    5.99
  -7   0  -7   61.39    2.65
  -7  -1  14   53.04    2.55
  -7  -1  13   19.67    1.85
  -7  -1  13   16.38    1.45
  -7  -1  12   70.14    4.55
  -7  -1  12   72.19    4.22
  -7  -1  12   62.26    3.58
  -7  -1  11  330.40   13.85
  -7  -1  11  342.36   12.38
  -7  -1  11  331.60   13.14
  -7  -1  10  183.69   10.71
  -7  -1  10  221.41    9.25
  -7  -1  10  212.78    9.40
  -7  -1  10  202.70   10.22
  -7  -1   9   70.43    5.95
  -7  -1   9   75.21    5.01
  -7  -1   9   81.08    5.33
  -7  -1   9   66.40    3.86
  -7  -1   8    5.49    1.56
  -7  -1   8    4.88    1.31
  -7  -1   8    5.06    1.11
  -7  -1   7  658.93   21.92
  -7  -1   7  589.65   21.15
  -7  -1   7  637.53   22.36
  -7  -1   7  636.16   21.19
  -7  -1   7  653.17   20.46
  -7  -1   7  618.47   19.61
  -7  -1   6   85.15    5.49
  -7  -1   6   88.39    5.17
  -7  -1   6   90.65    4.21
  -7  -1   6   99.60    5.63
  -7  -1   6   92.73    5.29
  -7  -1   6   95.48    5.32
  -7  -1   5   15.98    2.11
  -7  -1   5   16.80    2.56
  -7  -1   5   14.48    1.99
  -7  -1   5   17.04    2.26
  -7  -1   5   15.62    2.19
  -7  -1   5   16.68    2.11
  -7  -1   5   17.28    2.12
  -7  -1   5   14.71    2.13
  -7  -1   4   82.19    4.80
  -7  -1   4   86.58    5.79
  -7  -1   4   77.06    4.06
  -7  -1   4   80.96    4.53
  -7  -1   4   75.58    4.62
  -7  -1   4   77.43    5.42
  -7  -1   4   82.47    4.78
  -7  -1   4   82.30    4.93
  -7  -1   4   73.74    4.62
  -7  -1   4   75.55    5.14
  -7  -1   3   42.70    3.90
  -7  -1   3   39.86    3.03
  -7  -1   3   41.08    3.49
  -7  -1   3   45.79    3.28
  -7  -1   3   50.45    3.49
  -7  -1   3   41.65    3.22
  -7  -1   2   62.87    4.34
  -7  -1   2   52.27    3.75
  -7  -1   2   48.71    4.60
  -7  -1   2   57.30    4.33
  -7  -1   2   49.30    3.35
  -7  -1   2   55.85    3.53
  -7  -1   2   51.33    4.16
  -7  -1   1    2.39    0.93
  -7  -1   1    1.55    0.97
  -7  -1   1    4.13    1.23
  -7  -1   1    2.17    0.65
  -7  -1   1    3.50    1.08
  -7  -1   1    2.70    0.83
  -7  -1   0  877.51   28.54
  -7  -1   0  892.25   30.98
  -7  -1   0  901.78   29.16
  -7  -1   0  935.57   26.62
  -7  -1   0  932.37   26.93
  -7  -1   0  940.44   28.41
  -7  -1  -1  168.11    8.22
  -7  -1  -1  162.06    6.56
  -7  -1  -1  177.46    7.49
  -7  -1  -2   60.14    4.26
  -7  -1  -2   52.35    4.03
  -7  -1  -2   53.92    3.15
  -7  -1  -2   54.98    3.37
  -7  -1  -3  159.69    7.53
  -7  -1  -3  169.70    7.33
  -7  -1  -4   71.69    4.11
  -7  -1  -5    2.37    0.65
  -7  -1  -5    0.58    0.44
  -7  -1  -6   11.72    0.87
  -7  -1  -6   12.47    1.17
  -7  -2  14   18.30    1.40
  -7  -2  14   24.20    1.64
  -7  -2  13  168.29    6.99
  -7  -2  13  155.45    6.62
  -7  -2  13  163.38    6.57
  -7  -2  12  136.36    7.13
  -7  -2  12  134.45    6.71
  -7  -2  12  125.12    6.55
  -7  -2  11  152.90    9.00
  -7  -2  11  183.82    8.78
  -7  -2  11  172.16    7.60
  -7  -2  11  154.28    6.83
  -7  -2  10   13.90    2.78
  -7  -2  10   19.28    2.73
  -7  -2  10   15.59    2.20
  -7  -2  10   14.79    1.97
  -7  -2   9   25.00    2.97
  -7  -2   9   23.28    2.83
  -7  -2   9   17.48    3.20
  -7  -2   9   21.20    2.45
  -7  -2   8   16.17    2.49
  -7  -2   8   15.62    2.29
  -7  -2   8   16.45    2.55
  -7  -2   8   13.07    2.22
  -7  -2   8   15.06    2.98
  -7  -2   8   14.59    2.03
  -7  -2   8   13.87    1.68
  -7  -2   7  295.61   11.93
  -7  -2   7  308.48   12.45
  -7  -2   7  308.69   13.05
  -7  -2   7  268.99   12.38
  -7  -2   7  295.49    9.79
  -7  -2   7  317.68   11.82
  -7  -2   7  319.59   13.20
  -7  -2   7  305.12   11.04
  -7  -2   7  296.79   10.64
  -7  -2   6  334.78   12.78
  -7  -2   6  323.81   13.09
  -7  -2   6  326.43   12.47
  -7  -2   6  340.90   12.57
  -7  -2   6  312.13   10.95
  -7  -2   6  339.63   12.42
  -7  -2   6  337.22   13.28
  -7  -2   6  338.82   12.03
  -7  -2   6  330.09   12.04
  -7  -2   5  329.57   12.28
  -7  -2   5  330.93   14.17
  -7  -2   5  316.79   10.83
  -7  -2   5  334.54   12.21
  -7  -2   5  325.64   12.34
  -7  -2   5  327.96   12.01
  -7  -2   5  331.90   12.59
  -7  -2   5  325.31   11.83
  -7  -2   5  322.91   12.29
  -7  -2   4  245.90    9.62
  -7  -2   4  234.23    9.21
  -7  -2   4  237.76    9.01
  -7  -2   4  262.46   11.42
  -7  -2   4  252.13   11.73
  -7  -2   4  250.65    9.69
  -7  -2   4  244.08   10.83
  -7  -2   4  251.52    9.58
  -7  -2   4  248.11    9.82
  -7  -2   4  225.81   10.00
  -7  -2   3  152.48    8.24
  -7  -2   3  151.31    6.59
  -7  -2   3  163.56    8.41
  -7  -2   3  141.88    6.62
  -7  -2   3  141.77    7.98
  -7  -2   3  142.80    7.13
  -7  -2   3  137.55    6.15
  -7  -2   3  143.83    6.49
  -7  -2   2  207.23    7.90
  -7  -2   2  212.70    9.94
  -7  -2   2  216.06    9.36
  -7  -2   2  191.48    8.48
  -7  -2   2  179.57    9.68
  -7  -2   2  184.49    8.04
  -7  -2   2  209.59    8.16
  -7  -2   2  195.45    8.80
  -7  -2   1    8.02    1.51
  -7  -2   1    6.86    1.47
  -7  -2   1    4.95    1.47
  -7  -2   1    5.88    1.45
  -7  -2   1    6.24    1.31
  -7  -2   1    6.26    1.06
  -7  -2   1    5.69    1.28
  -7  -2   1    7.55    1.25
  -7  -2   0    5.78    1.59
  -7  -2   0    9.96    1.78
  -7  -2   0    7.89    1.54
  -7  -2   0   10.00    1.38
  -7  -2   0    9.49    1.49
  -7  -2  -1   20.47    2.40
  -7  -2  -1   19.15    2.28
  -7  -2  -1   20.83    2.45
  -7  -2  -1   16.92    1.76
  -7  -2  -1   18.88    1.90
  -7  -2  -2    2.12    0.79
  -7  -2  -2    0.91    0.62
  -7  -2  -2    0.98    0.42
  -7  -2  -3  146.76    6.34
  -7  -2  -3  133.69    5.41
  -7  -2  -4   82.14    3.92
  -7  -2  -4   82.71    4.28
  -7  -2  -5  314.40    9.55
  -7  -2  -5  336.02   10.28
  -7  -3  14    1.16    0.42
  -7  -3  14    0.76    0.32
  -7  -3  13   20.72    1.85
  -7  -3  13   22.26    2.21
  -7  -3  13   24.12    2.20
  -7  -3  12  129.83    6.21
  -7  -3  12  135.33    6.05
  -7  -3  12  129.19    6.86
  -7  -3  11  182.11    8.26
  -7  -3  11  171.75    7.88
  -7  -3  10  823.84   27.22
  -7  -3  10  813.12   25.46
  -7  -3   9  372.91   13.80
  -7  -3   9  396.81   15.17
  -7  -3   9  353.08   14.09
  -7  -3   9  365.97   12.73
  -7  -3   8  342.90   12.97
  -7  -3   8  365.40   13.83
  -7  -3   8  334.89   13.98
  -7  -3   8  319.40   14.00
  -7  -3   8  337.15   16.35
  -7  -3   8  322.89   10.67
  -7  -3   8  345.99   12.32
  -7  -3   8  346.25   11.36
  -7  -3   8  350.38   11.05
  -7  -3   7    9.86    1.74
  -7  -3   7    7.67    1.79
  -7  -3   7    7.79    1.92
  -7  -3   7    7.91    1.50
  -7  -3   7    4.31    1.68
  -7  -3   7    7.23    1.06
  -7  -3   7    8.03    1.36
  -7  -3   7    8.96    1.80
  -7  -3   7    7.31    1.20
  -7  -3   7    6.63    1.14
  -7  -3   6    0.87    0.63
  -7  -3   6    0.68    0.52
  -7  -3   6    0.51    0.33
  -7  -3   6    0.53    0.51
  -7  -3   6    1.11    0.52
  -7  -3   6    0.48    0.44
  -7  -3   6    1.79    0.87
  -7  -3   6    0.74    0.50
  -7  -3   6    0.79    0.51
  -7  -3   5   16.94    2.03
  -7  -3   5   14.15    2.42
  -7  -3   5   18.61    3.08
  -7  -3   5   16.63    1.98
  -7  -3   5   19.57    2.30
  -7  -3   5   21.02    2.51
  -7  -3   5   18.78    1.93
  -7  -3   5   15.61    1.86
  -7  -3   5   15.23    2.03
  -7  -3   5   14.66    1.79
  -7  -3   5   15.07    1.68
  -7  -3   5   17.00    2.05
  -7  -3   4    5.65    1.63
  -7  -3   4    7.13    1.29
  -7  -3   4    6.93    1.22
  -7  -3   4   11.76    2.41
  -7  -3   4    5.74    1.42
  -7  -3   4    6.01    1.18
  -7  -3   4    6.12    1.10
  -7  -3   4    5.88    1.15
  -7  -3   4    5.68    1.02
  -7  -3   4    5.24    1.18
  -7  -3   4    6.39    1.19
  -7  -3   3  142.04    6.06
  -7  -3   3  156.19    8.84
  -7  -3   3  156.74    8.42
  -7  -3   3  145.68    6.64
  -7  -3   3  128.19    7.34
  -7  -3   3  137.31    6.28
  -7  -3   3  136.12    6.03
  -7  -3   3  132.57    6.67
  -7  -3   2   76.72    5.79
  -7  -3   2   70.41    4.84
  -7  -3   2   67.54    4.34
  -7  -3   2   58.79    4.72
  -7  -3   2   74.27    4.39
  -7  -3   2   62.89    3.57
  -7  -3   2   66.74    3.91
  -7  -3   2   67.80    4.26
  -7  -3   1   32.30    3.28
  -7  -3   1   25.11    2.95
  -7  -3   1   26.73    2.70
  -7  -3   1   31.63    2.53
  -7  -3   1   33.19    2.70
  -7  -3   0  124.37    6.33
  -7  -3   0  123.32    6.40
  -7  -3   0  120.81    5.55
  -7  -3   0  122.45    5.58
  -7  -3  -1  257.11    9.89
  -7  -3  -1  255.53    9.15
  -7  -3  -1  254.77   10.15
  -7  -3  -1  242.19    8.66
  -7  -3  -2  121.93    5.65
  -7  -3  -2  119.19    5.90
  -7  -3  -2  124.24    4.96
  -7  -3  -3   74.43    3.65
  -7  -3  -4    8.51    1.04
  -7  -3  -4    8.84    0.88
  -7  -4  14   56.45    2.74
  -7  -4  13   63.42    3.69
  -7  -4  13   63.48    3.24
  -7  -4  13   62.30    3.76
  -7  -4  12   15.27    2.06
  -7  -4  12   12.71    1.66
  -7  -4  11    9.10    1.60
  -7  -4  11    8.44    1.73
  -7  -4  11    7.17    1.28
  -7  -4  10    4.76    1.38
  -7  -4  10    5.72    1.53
  -7  -4  10    3.32    0.93
  -7  -4   9   88.88    5.51
  -7  -4   9   80.52    5.51
  -7  -4   9   87.29    4.84
  -7  -4   9   84.29    5.83
  -7  -4   9   74.89    3.89
  -7  -4   8  415.76   14.86
  -7  -4   8  392.26   15.98
  -7  -4   8  423.49   14.21
  -7  -4   8  408.40   16.65
  -7  -4   8  397.94   12.80
  -7  -4   8  410.80   13.32
  -7  -4   8  459.05   16.16
  -7  -4   8  387.40   12.72
  -7  -4   8  421.75   12.90
  -7  -4   7  138.77    6.66
  -7  -4   7  128.87    8.06
  -7  -4   7  129.27    6.19
  -7  -4   7  137.85    8.10
  -7  -4   7  137.59    5.70
  -7  -4   7  134.96    5.88
  -7  -4   7  146.47    7.25
  -7  -4   7  134.99    5.74
  -7  -4   7  143.59    5.94
  -7  -4   7  129.24    5.44
  -7  -4   6  152.47    6.74
  -7  -4   6  147.12    6.47
  -7  -4   6  139.25    8.89
  -7  -4   6  150.87    7.71
  -7  -4   6  148.71    6.28
  -7  -4   6  145.17    6.23
  -7  -4   6  156.22    7.15
  -7  -4   6  146.99    6.27
  -7  -4   6  144.36    6.10
  -7  -4   6  155.35    6.59
  -7  -4   5  117.92    5.29
  -7  -4   5  100.31    7.00
  -7  -4   5  116.74    8.34
  -7  -4   5  109.54    5.62
  -7  -4   5  114.61    5.43
  -7  -4   5  109.63    5.43
  -7  -4   5  113.21    5.16
  -7  -4   5  121.08    5.50
  -7  -4   5  118.78    5.45
  -7  -4   5  111.38    5.59
  -7  -4   4  292.82   13.68
  -7  -4   4  335.03   14.70
  -7  -4   4  287.51   11.64
  -7  -4   4  290.97   10.19
  -7  -4   4  289.11   10.55
  -7  -4   4  316.83   10.81
  -7  -4   4  292.64   10.82
  -7  -4   3   88.70    6.84
  -7  -4   3   94.21    6.24
  -7  -4   3   77.63    4.59
  -7  -4   3   76.83    4.99
  -7  -4   3   83.97    4.60
  -7  -4   3   79.14    4.53
  -7  -4   3   80.74    4.55
  -7  -4   2  427.32   14.69
  -7  -4   2  449.29   15.37
  -7  -4   2  420.49   14.28
  -7  -4   2  423.67   14.65
  -7  -4   2  411.52   14.10
  -7  -4   2  404.66   14.04
  -7  -4   1    2.52    0.94
  -7  -4   1    0.41    0.48
  -7  -4   1    2.18    0.79
  -7  -4   1    1.13    0.55
  -7  -4   0    8.84    1.43
  -7  -4   0    8.80    1.21
  -7  -4   0    9.53    1.57
  -7  -4   0    9.36    1.20
  -7  -4  -1  140.14    5.96
  -7  -4  -1  133.77    5.20
  -7  -4  -1  138.53    6.25
  -7  -4  -2  113.54    4.73
  -7  -4  -3  251.21    7.97
  -7  -4  -3  230.16    7.33
  -7  -5  14  132.87    4.66
  -7  -5  13    8.20    1.08
  -7  -5  13    7.53    0.99
  -7  -5  12   93.77    4.76
  -7  -5  12   89.84    4.63
  -7  -5  12  105.38    5.47
  -7  -5  11   55.09    3.74
  -7  -5  11   60.27    4.47
  -7  -5  10  252.48    9.63
  -7  -5  10  233.30    9.89
  -7  -5  10  263.81   10.95
  -7  -5   9   68.62    4.19
  -7  -5   9   65.92    4.91
  -7  -5   9   65.43    5.08
  -7  -5   9   73.53    4.93
  -7  -5   8  231.52    8.93
  -7  -5   8  228.61   10.97
  -7  -5   8  248.00   11.59
  -7  -5   8  229.24    8.23
  -7  -5   8  241.34    9.78
  -7  -5   7   29.63    3.26
  -7  -5   7   33.00    2.38
  -7  -5   7   32.54    2.78
  -7  -5   7   29.93    2.01
  -7  -5   7   32.62    2.36
  -7  -5   7   31.63    2.36
  -7  -5   7   28.80    2.22
  -7  -5   6    1.19    0.53
  -7  -5   6    2.79    0.88
  -7  -5   6    2.69    1.45
  -7  -5   6    1.49    0.55
  -7  -5   6    3.14    0.80
  -7  -5   6    1.48    0.60
  -7  -5   5   47.16    4.65
  -7  -5   5   45.61    5.30
  -7  -5   5   49.34    3.22
  -7  -5   5   49.11    3.26
  -7  -5   5   46.99    3.12
  -7  -5   4  239.75    8.80
  -7  -5   4  213.59   11.44
  -7  -5   4  243.57   11.72
  -7  -5   4  221.03    8.83
  -7  -5   3  614.81   19.07
  -7  -5   3  613.30   23.04
  -7  -5   3  637.81   21.11
  -7  -5   3  616.64   19.51
  -7  -5   3  625.71   19.15
  -7  -5   2  150.19    7.87
  -7  -5   2  156.39    6.21
  -7  -5   2  141.01    6.54
  -7  -5   2  146.38    6.13
  -7  -5   1  177.16    6.61
  -7  -5   1  171.87    7.33
  -7  -5   1  182.56    7.26
  -7  -5   0   32.81    1.94
  -7  -5   0   28.67    2.36
  -7  -5   0   29.49    2.23
  -7  -5  -1   71.20    3.30
  -7  -5  -2    7.43    0.70
  -7  -6  13    4.23    0.65
  -7  -6  13    3.27    0.60
  -7  -6  12    6.10    1.02
  -7  -6  11   23.61    2.25
  -7  -6  11   22.19    2.17
  -7  -6  10   12.75    1.82
  -7  -6  10   10.66    1.69
  -7  -6  10   10.40    1.51
  -7  -6   9  230.89    9.99
  -7  -6   9  228.37    9.85
  -7  -6   8  268.34   12.02
  -7  -6   8  307.39   11.68
  -7  -6   7  180.18    6.85
  -7  -6   7  186.50    7.65
  -7  -6   7  171.50    6.72
  -7  -6   6  324.15   10.83
  -7  -6   6  312.77   14.14
  -7  -6   6  319.30   10.87
  -7  -6   5  166.14    8.95
  -7  -6   5  149.92    6.26
  -7  -6   4    5.95    1.02
  -7  -6   4    6.14    1.70
  -7  -6   4    7.06    1.60
  -7  -6   4    7.29    1.16
  -7  -6   3    3.76    0.79
  -7  -6   3    2.99    1.10
  -7  -6   2   13.26    1.28
  -7  -6   2   11.10    1.59
  -7  -6   2   14.37    1.50
  -7  -6   1   36.36    1.95
  -7  -6   1   39.34    2.36
  -7  -6   0    5.83    0.73
  -7  -7  12   63.89    2.89
  -7  -7  11   11.62    1.28
  -7  -7  10   39.53    2.82
  -7  -7  10   40.43    2.73
  -7  -7   9    4.40    0.93
  -7  -7   9    3.38    1.05
  -7  -7   8    4.22    1.19
  -7  -7   7    7.35    0.98
  -7  -7   6   19.90    2.56
  -7  -7   6   20.18    1.70
  -7  -7   5   67.47    3.31
  -7  -7   5   62.31    4.36
  -7  -7   5   70.29    4.41
  -7  -7   5   69.93    3.48
  -7  -7   4   44.40    2.44
  -7  -7   4   37.70    3.16
  -7  -7   4   46.28    2.65
  -7  -7   3  315.75   10.74
  -7  -7   2  121.38    4.50
  -7  -8  10   31.01    1.92
  -7  -8   9   52.19    2.96
  -7  -8   7   99.31    4.75
  -7  -8   7  103.48    3.87
  -7  -8   6   29.97    2.20
  -7  -8   6   34.94    1.91
  -7  -8   5   41.99    2.13
   8 -10   0   20.73    1.21
   8 -10   1   56.83    2.42
   8 -10   1   53.57    2.25
   8 -10   2    0.58    0.24
   8  -9  -4    8.94    0.77
  -8   9   3   36.02    2.19
   8  -9  -2   57.31    2.69
  -8   9   2   40.61    2.45
   8  -9  -1   67.70    3.20
   8  -9   0   54.90    2.83
   8  -9   1    8.84    0.93
   8  -9   1   19.65    1.50
   8  -9   2    0.15    0.24
   8  -9   2    1.06    0.43
   8  -9   3    1.50    0.47
   8  -9   3    1.14    0.37
   8  -9   3    1.44    0.41
   8  -9   4   31.41    1.81
   8  -9   4   29.02    1.57
   8  -9   5   25.60    1.32
   8  -9   5   16.28    1.09
  -8   8   6   44.94    2.38
  -8   8   5   82.60    4.02
   8  -8  -4    5.28    0.92
   8  -8  -4    3.10    0.63
  -8   8   3   41.87    3.17
   8  -8  -3   40.34    2.48
   8  -8  -2   14.28    1.55
   8  -8  -1   80.69    3.93
  -8   8   1   64.80    3.91
   8  -8   0  122.26    5.26
   8  -8   1  200.11    7.34
   8  -8   2  219.23    7.71
   8  -8   3    1.85    0.62
   8  -8   3    0.59    0.36
   8  -8   4   10.22    1.16
   8  -8   4    8.82    0.95
   8  -8   5    0.54    0.29
   8  -8   5    0.04    0.20
   8  -8   5    0.25    0.18
   8  -8   6   13.53    0.97
  -8   7   7   26.65    2.00
  -8   7   6  194.30    7.72
  -8   7   5   11.10    1.81
  -8   7   4   77.03    5.13
   8  -7  -4   95.85    4.78
   8  -7  -3  198.83    7.99
  -8   7   2   78.33    5.04
   8  -7  -2   89.08    4.63
   8  -7  -1  158.60    6.54
  -8   7   1  136.98    6.92
   8  -7   0   27.68    2.28
  -8   7   0   27.38    2.44
   8  -7   1   16.09    1.67
   8  -7   2    2.79    0.74
   8  -7   3    5.56    1.02
   8  -7   3    5.46    0.89
   8  -7   4  172.01    6.52
   8  -7   4  162.26    5.80
   8  -7   5   48.08    2.62
   8  -7   6   18.72    1.30
   8  -7   6   15.77    1.09
  -8   6   8   39.80    2.44
  -8   6   8   43.28    2.64
  -8   6   7   33.30    2.62
  -8   6   7   28.99    2.44
  -8   6   6   19.49    2.50
  -8   6   6   15.66    1.90
  -8   6   5   38.79    3.85
  -8   6   5   37.02    2.94
  -8   6   4    2.52    1.11
  -8   6   3   17.17    2.41
   8  -6  -2   47.54    3.32
   8  -6  -1   67.00    3.90
  -8   6   1   60.62    4.38
   8  -6   0  328.86   11.16
  -8   6   0  316.52   11.79
   8  -6   1  262.20    9.27
   8  -6   2  512.73   15.70
   8  -6   3    3.89    0.92
   8  -6   3    3.86    0.73
   8  -6   4   34.16    2.44
   8  -6   5    3.62    0.72
   8  -6   6   16.60    1.26
   8  -6   6   11.58    0.91
  -8   6  -7   16.44    1.23
  -8   5  10   15.89    1.25
  -8   5   9    3.13    0.80
  -8   5   9    2.06    0.53
  -8   5   8   65.65    4.45
  -8   5   8   74.68    4.34
  -8   5   7   47.49    3.71
  -8   5   7   34.05    3.45
  -8   5   6  211.43   10.11
  -8   5   6  182.67    8.89
  -8   5   5  152.15    8.16
  -8   5   5  125.42    6.81
  -8   5   4  256.15   11.30
  -8   5   4  255.92   10.25
  -8   5   3  101.57    6.15
  -8   5   3  104.70    5.37
   8  -5  -2  146.43    6.50
  -8   5   2  140.90    7.66
   8  -5  -1    8.40    1.30
  -8   5   1    7.85    1.55
   8  -5   0    2.15    0.65
  -8   5   0    4.13    1.01
   8  -5   1   59.45    3.27
   8  -5   2    3.36    0.87
   8  -5   3  166.21    6.79
   8  -5   4  189.72    7.03
  -8   5  -4  171.79    7.35
   8  -5   5  134.92    5.28
  -8   5  -6   59.47    3.55
   8  -5   6   62.89    2.77
  -8   4  11   61.60    2.77
  -8   4  10   98.13    4.85
  -8   4   9  167.11    7.83
  -8   4   9  159.48    6.44
  -8   4   8   33.07    2.77
  -8   4   8   38.47    4.10
  -8   4   7   65.06    4.58
  -8   4   7   70.30    4.28
  -8   4   7   54.73    4.97
  -8   4   6    1.98    1.01
  -8   4   6    0.96    0.83
  -8   4   6    3.20    0.91
  -8   4   5    0.15    0.64
  -8   4   5    0.98    0.78
  -8   4   5   -0.10    0.29
  -8   4   4   24.50    2.39
  -8   4   4   22.59    2.75
  -8   4   4   25.81    2.75
  -8   4   3   68.16    4.00
  -8   4   3   71.31    4.42
  -8   4   3   66.97    5.19
  -8   4   2  387.61   13.11
  -8   4   2  406.49   15.96
  -8   4   2  390.43   13.55
   8  -4  -2  413.59   13.36
  -8   4   2  408.11   15.18
  -8   4   1  157.15    6.34
  -8   4   1  177.10   10.01
   8  -4  -1  158.47    6.41
  -8   4   1  164.00    7.76
  -8   4   0   52.70    5.85
  -8   4   0   58.57    3.89
  -8   4  -1  223.44   13.46
  -8   4  -1  207.24    8.09
   8  -4   2  416.48   13.64
   8  -4   3  153.36    6.24
  -8   4  -3  149.14    7.31
   8  -4   4   10.51    1.26
   8  -4   5    9.39    1.06
  -8   4  -5    8.38    1.51
   8  -4   6   66.06    2.77
  -8   4  -6   70.12    3.64
  -8   4  -7   41.67    2.15
  -8   3  11    7.33    0.91
  -8   3  10    7.52    1.26
  -8   3  10    9.92    1.70
  -8   3   9   69.91    4.71
  -8   3   9   83.50    5.98
  -8   3   9   82.90    4.55
  -8   3   8  130.25    7.27
  -8   3   8  142.40    8.97
  -8   3   7  336.95   13.87
  -8   3   7  385.34   13.67
  -8   3   7  370.32   15.66
  -8   3   6   61.16    4.48
  -8   3   6   73.62    4.91
  -8   3   6   67.60    5.19
  -8   3   5    8.75    1.65
  -8   3   5    7.54    1.51
  -8   3   5    9.52    1.83
  -8   3   4   83.59    4.92
  -8   3   4   79.27    5.07
  -8   3   4   77.88    5.69
  -8   3   3   62.95    4.05
  -8   3   3   59.90    4.80
  -8   3   3   63.81    4.42
  -8   3   3   67.05    4.31
  -8   3   3   68.49    4.98
  -8   3   2   60.46    3.73
  -8   3   2   55.31    5.11
  -8   3   2   55.41    3.69
  -8   3   2   52.91    4.14
  -8   3   1    1.72    0.69
  -8   3   1    1.18    0.96
  -8   3   1    0.48    0.39
  -8   3   1    1.14    0.66
  -8   3   0   26.40    4.15
  -8   3   0   24.00    1.97
  -8   3   0   23.39    2.34
  -8   3  -1  318.49   16.99
  -8   3  -1  328.30   11.19
  -8   3  -2   74.72    5.11
  -8   3  -3  323.74   11.90
  -8   3  -4  130.00    6.93
  -8   3  -5  255.53    9.75
  -8   3  -6   56.66    2.87
  -8   3  -7   13.05    0.98
  -8   2  12  156.53    5.67
  -8   2  12  163.18    5.82
  -8   2  11  127.98    5.94
  -8   2  11  132.18    6.08
  -8   2  10  253.86    9.21
  -8   2  10  253.03   10.76
  -8   2   9   47.10    3.61
  -8   2   9   47.34    4.43
  -8   2   9   55.89    3.60
  -8   2   9   56.60    3.75
  -8   2   8   43.81    3.72
  -8   2   8   41.31    4.02
  -8   2   8   55.35    5.09
  -8   2   8   43.65    3.54
  -8   2   8   51.74    4.04
  -8   2   7   50.23    4.08
  -8   2   7   52.58    4.42
  -8   2   7   54.46    4.77
  -8   2   7   55.36    4.19
  -8   2   7   55.36    4.56
  -8   2   6   16.40    2.29
  -8   2   6   11.98    1.98
  -8   2   6   17.88    2.57
  -8   2   6   14.20    2.14
  -8   2   6   16.83    2.35
  -8   2   6   15.58    2.52
  -8   2   5  581.56   19.37
  -8   2   5  546.36   19.28
  -8   2   5  586.30   19.75
  -8   2   4   48.18    3.72
  -8   2   4   49.62    4.18
  -8   2   4   52.75    3.63
  -8   2   4   50.13    3.86
  -8   2   4   52.88    4.33
  -8   2   3   15.07    1.94
  -8   2   3   17.20    2.66
  -8   2   3   15.52    2.19
  -8   2   3   15.42    1.96
  -8   2   3   18.65    2.42
  -8   2   2   24.77    2.35
  -8   2   2   23.54    3.37
  -8   2   2   21.52    2.85
  -8   2   2   19.54    2.14
  -8   2   2   23.74    2.59
  -8   2   1  366.81   12.51
  -8   2   1  381.50   16.97
  -8   2   1  358.13   12.40
  -8   2   1  369.72   13.22
  -8   2   0   24.10    3.93
  -8   2   0   20.38    1.85
  -8   2   0   23.86    3.07
  -8   2   0   22.28    2.20
  -8   2  -1  440.32   20.83
  -8   2  -1  467.69   14.34
  -8   2  -1  500.78   17.52
  -8   2  -2    2.97    1.21
  -8   2  -2    0.47    0.54
  -8   2  -3    4.63    1.32
  -8   2  -3    4.34    0.95
  -8   2  -4    0.76    0.58
  -8   2  -5   43.28    2.82
  -8   2  -6  169.19    6.06
  -8   1  12    7.40    1.17
  -8   1  12    5.77    0.92
  -8   1  11   51.96    3.28
  -8   1  11   56.34    4.16
  -8   1  11   54.19    3.67
  -8   1  11   49.65    2.86
  -8   1  10   49.53    3.83
  -8   1  10   54.72    4.92
  -8   1  10   66.15    4.70
  -8   1  10   55.72    3.70
  -8   1   9  201.24    9.84
  -8   1   9  216.01   11.03
  -8   1   9  218.19    9.59
  -8   1   9  231.41    8.91
  -8   1   8   10.59    2.03
  -8   1   8    9.75    2.03
  -8   1   8   10.90    1.96
  -8   1   8   11.41    1.84
  -8   1   7  102.82    6.43
  -8   1   7  106.93    6.53
  -8   1   7  112.91    6.83
  -8   1   7  101.88    6.40
  -8   1   7  115.10    6.48
  -8   1   7  102.08    5.55
  -8   1   6  601.94   20.63
  -8   1   6  589.29   20.59
  -8   1   6  601.44   19.22
  -8   1   6  610.77   20.93
  -8   1   6  615.97   20.90
  -8   1   6  619.39   21.01
  -8   1   6  604.72   20.60
  -8   1   5  109.69    6.38
  -8   1   5  117.81    6.44
  -8   1   5  116.86    6.44
  -8   1   5  124.81    6.77
  -8   1   5  125.04    6.65
  -8   1   5  125.90    7.27
  -8   1   4    2.94    1.10
  -8   1   4    4.00    1.15
  -8   1   4    2.99    0.94
  -8   1   4    3.12    0.96
  -8   1   4    2.73    1.19
  -8   1   4    2.65    1.00
  -8   1   3  144.14    6.75
  -8   1   3  141.26    8.20
  -8   1   3  127.56    6.94
  -8   1   3  141.77    6.72
  -8   1   3  129.01    7.88
  -8   1   3  136.82    6.99
  -8   1   2   17.51    1.97
  -8   1   2   14.82    2.68
  -8   1   2   17.62    2.53
  -8   1   2   12.57    1.72
  -8   1   2   13.78    1.91
  -8   1   2   14.17    2.45
  -8   1   1   77.37    4.22
  -8   1   1   67.44    5.32
  -8   1   1   74.10    4.10
  -8   1   1   69.45    4.28
  -8   1   1   75.97    5.54
  -8   1   0   36.51    2.54
  -8   1   0   37.19    3.63
  -8   1  -1  631.63   22.36
  -8   1  -1  653.13   19.28
  -8   1  -1  661.40   21.30
  -8   1  -2  171.13    8.68
  -8   1  -2  182.63    6.53
  -8   1  -2  181.18    7.68
  -8   1  -3   89.37    5.26
  -8   1  -3   81.46    3.91
  -8   1  -4  145.53    6.52
  -8   1  -4  142.41    6.27
  -8   1  -5   45.58    2.75
  -8   1  -6   56.04    2.42
  -8   0  13    9.94    1.11
  -8   0  12  151.12    6.10
  -8   0  12  152.10    6.71
  -8   0  12  143.03    5.47
  -8   0  12  140.50    5.71
  -8   0  11  169.16    7.80
  -8   0  11  185.81    8.87
  -8   0  11  165.74    7.22
  -8   0  11  168.08    7.39
  -8   0  10  142.52    8.10
  -8   0  10  157.14    9.09
  -8   0  10  156.78    7.78
  -8   0  10  176.85    8.13
  -8   0   9   31.68    3.69
  -8   0   9   45.43    4.37
  -8   0   9   32.74    3.54
  -8   0   9   42.88    3.87
  -8   0   9   36.13    2.81
  -8   0   8   62.81    5.13
  -8   0   8   66.76    5.13
  -8   0   8   62.31    5.12
  -8   0   8   70.99    5.15
  -8   0   8   64.28    4.27
  -8   0   7   16.62    2.45
  -8   0   7   18.64    2.59
  -8   0   7   17.49    2.59
  -8   0   7   14.72    2.12
  -8   0   7   17.51    2.05
  -8   0   6   56.89    4.44
  -8   0   6   59.37    4.43
  -8   0   6   60.68    4.16
  -8   0   6   62.03    4.77
  -8   0   6   64.04    4.53
  -8   0   6   61.72    4.41
  -8   0   5  367.14   13.55
  -8   0   5  362.13   13.90
  -8   0   5  368.56   13.54
  -8   0   5  343.72   13.49
  -8   0   5  356.32   14.13
  -8   0   4  597.78   20.06
  -8   0   4  632.68   21.79
  -8   0   4  644.80   20.20
  -8   0   4  609.75   20.07
  -8   0   4  611.57   20.31
  -8   0   4  610.17   21.53
  -8   0   3  609.78   19.37
  -8   0   3  566.91   18.68
  -8   0   3  578.23   21.58
  -8   0   3  605.89   20.24
  -8   0   3  609.13   19.30
  -8   0   3  618.72   19.72
  -8   0   2   37.79    2.92
  -8   0   2   37.67    3.15
  -8   0   2   34.95    3.50
  -8   0   2   39.49    2.95
  -8   0   2   38.50    3.07
  -8   0   2   38.66    3.74
  -8   0   1    3.93    1.11
  -8   0   1    3.44    1.39
  -8   0   1    4.01    0.89
  -8   0   1    3.12    1.07
  -8   0   0   12.80    2.00
  -8   0   0   11.34    2.49
  -8   0   0   15.12    2.35
  -8   0   0   14.08    1.49
  -8   0   0   13.55    1.59
  -8   0   0   12.20    1.95
  -8   0  -1   15.35    2.24
  -8   0  -1   14.24    2.08
  -8   0  -1   12.45    1.42
  -8   0  -1   12.01    1.71
  -8   0  -2    7.75    1.51
  -8   0  -2    7.95    1.19
  -8   0  -2    6.89    0.95
  -8   0  -3    0.67    0.57
  -8   0  -3    0.70    0.47
  -8   0  -4   21.72    1.93
  -8   0  -4   19.53    1.90
  -8   0  -5   96.61    3.89
  -8  -1  13    0.98    0.41
  -8  -1  13    0.30    0.21
  -8  -1  12    1.22    0.63
  -8  -1  12    0.38    0.42
  -8  -1  11   31.21    3.27
  -8  -1  11   28.84    2.86
  -8  -1  11   31.43    2.57
  -8  -1  10  143.05    8.93
  -8  -1  10  158.16    8.55
  -8  -1  10  174.37    7.72
  -8  -1   9  396.02   15.93
  -8  -1   9  345.17   15.45
  -8  -1   9  412.21   14.46
  -8  -1   9  367.21   12.43
  -8  -1   8  615.49   21.64
  -8  -1   8  586.18   20.62
  -8  -1   8  603.00   22.04
  -8  -1   8  632.17   20.66
  -8  -1   8  600.64   19.25
  -8  -1   7  573.13   20.43
  -8  -1   7  625.19   20.39
  -8  -1   7  594.95   19.59
  -8  -1   7  617.03   19.17
  -8  -1   6    6.11    1.40
  -8  -1   6    6.18    1.45
  -8  -1   6    5.52    1.27
  -8  -1   6    5.84    0.98
  -8  -1   6    4.32    1.16
  -8  -1   6    6.16    1.55
  -8  -1   6    5.66    1.31
  -8  -1   6    6.43    1.33
  -8  -1   5   39.58    3.36
  -8  -1   5   48.80    4.43
  -8  -1   5   37.54    3.62
  -8  -1   5   40.92    3.50
  -8  -1   5   40.01    3.30
  -8  -1   5   37.62    3.49
  -8  -1   4    4.54    1.57
  -8  -1   4    2.60    0.72
  -8  -1   4    2.09    0.99
  -8  -1   4    1.57    0.72
  -8  -1   4    1.22    0.63
  -8  -1   4    1.99    0.82
  -8  -1   4    3.23    1.11
  -8  -1   3    2.44    0.81
  -8  -1   3    2.65    1.11
  -8  -1   3    3.53    1.09
  -8  -1   2  390.73   13.73
  -8  -1   2  360.66   15.62
  -8  -1   2  375.30   14.37
  -8  -1   2  395.40   12.93
  -8  -1   2  376.31   12.86
  -8  -1   2  386.76   13.13
  -8  -1   2  353.53   14.07
  -8  -1   1    0.36    0.54
  -8  -1   1    0.39    0.62
  -8  -1   1    1.10    0.77
  -8  -1   1    1.11    0.63
  -8  -1   1    0.71    0.44
  -8  -1   1    2.84    1.02
  -8  -1   1    1.45    0.61
  -8  -1   0   39.12    3.40
  -8  -1   0   41.15    3.58
  -8  -1   0   37.73    3.20
  -8  -1   0   40.57    2.70
  -8  -1   0   34.26    2.94
  -8  -1  -1   14.62    1.96
  -8  -1  -1   14.82    1.97
  -8  -1  -1   15.56    1.55
  -8  -1  -1   13.33    1.57
  -8  -1  -2  199.41    8.17
  -8  -1  -2  201.48    8.25
  -8  -1  -2  188.62    6.76
  -8  -1  -3  200.90    7.62
  -8  -1  -3  192.10    7.69
  -8  -1  -4  211.93    7.21
  -8  -1  -4  210.14    7.46
  -8  -2  13  270.08    9.31
  -8  -2  13  286.42    9.11
  -8  -2  13  263.01    8.91
  -8  -2  12   47.90    3.31
  -8  -2  12   47.65    3.58
  -8  -2  12   49.90    3.43
  -8  -2  11  132.06    7.51
  -8  -2  11  117.31    5.26
  -8  -2  11  119.86    6.84
  -8  -2  10   21.18    2.62
  -8  -2  10   20.49    2.15
  -8  -2  10   23.61    3.31
  -8  -2   9  107.71    6.28
  -8  -2   9  100.64    6.07
  -8  -2   9  113.54    5.75
  -8  -2   9   98.76    4.52
  -8  -2   8  189.16    8.94
  -8  -2   8  167.95    8.63
  -8  -2   8  178.60    8.34
  -8  -2   8  178.06    7.85
  -8  -2   8  163.66    9.02
  -8  -2   8  157.30    6.32
  -8  -2   7  255.45   10.67
  -8  -2   7  243.10   10.75
  -8  -2   7  250.11   10.31
  -8  -2   7  239.25    8.35
  -8  -2   7  249.10    9.98
  -8  -2   7  250.04   11.02
  -8  -2   7  243.23    9.18
  -8  -2   6  100.04    5.67
  -8  -2   6  100.60    6.81
  -8  -2   6  101.80    5.64
  -8  -2   6  102.60    5.75
  -8  -2   6   91.91    5.57
  -8  -2   6   92.88    4.58
  -8  -2   6   97.62    5.36
  -8  -2   6  106.69    6.03
  -8  -2   6   99.03    5.35
  -8  -2   5  119.67    7.56
  -8  -2   5  123.38    6.08
  -8  -2   5  123.95    5.82
  -8  -2   5  110.43    5.42
  -8  -2   5  115.24    5.80
  -8  -2   5  119.16    6.15
  -8  -2   5  111.33    5.03
  -8  -2   5  113.15    6.12
  -8  -2   4   74.87    5.36
  -8  -2   4   77.09    4.43
  -8  -2   4   88.35    5.98
  -8  -2   4   82.13    4.33
  -8  -2   4   70.81    4.79
  -8  -2   3  318.96   13.85
  -8  -2   3  352.79   12.04
  -8  -2   3  345.58   12.37
  -8  -2   3  345.99   12.21
  -8  -2   3  342.66   13.01
  -8  -2   2  576.06   18.70
  -8  -2   2  561.97   18.05
  -8  -2   2  559.17   17.55
  -8  -2   2  583.83   17.93
  -8  -2   2  569.71   18.77
  -8  -2   1  162.21    7.55
  -8  -2   1  160.53    7.26
  -8  -2   1  171.88    6.82
  -8  -2   1  163.45    7.23
  -8  -2   0    6.65    1.30
  -8  -2   0    4.95    0.94
  -8  -2   0    6.64    1.13
  -8  -2  -1    6.67    1.29
  -8  -2  -1    7.47    1.30
  -8  -2  -1    8.45    1.06
  -8  -2  -2    4.33    0.91
  -8  -2  -2    4.81    0.99
  -8  -2  -2    4.04    0.73
  -8  -2  -3   37.83    2.21
  -8  -2  -3   31.26    1.58
  -8  -2  -3   36.01    2.32
  -8  -2  -4  111.56    3.76
  -8  -3  13   52.87    2.57
  -8  -3  13   65.38    3.25
  -8  -3  12   81.95    4.13
  -8  -3  12   92.50    5.00
  -8  -3  11  202.94    9.22
  -8  -3  11  182.93    7.76
  -8  -3  11  190.60    7.83
  -8  -3  11  174.08    8.92
  -8  -3  10   66.64    4.23
  -8  -3  10   57.46    3.29
  -8  -3   9  170.41    8.23
  -8  -3   9  145.56    7.87
  -8  -3   9  160.96    7.41
  -8  -3   9  152.06    6.56
  -8  -3   9  178.34    9.14
  -8  -3   8  315.58   11.88
  -8  -3   8  291.50   12.46
  -8  -3   8  301.62   11.24
  -8  -3   8  289.86   12.53
  -8  -3   8  272.46    9.23
  -8  -3   8  288.47   10.48
  -8  -3   8  316.64   12.55
  -8  -3   8  272.31    9.73
  -8  -3   8  301.49    9.68
  -8  -3   7  562.25   18.69
  -8  -3   7  557.79   18.40
  -8  -3   7  582.40   19.66
  -8  -3   7  546.15   16.95
  -8  -3   7  566.90   17.96
  -8  -3   7  595.87   19.44
  -8  -3   7  559.77   17.52
  -8  -3   7  576.74   17.58
  -8  -3   6   28.50    3.72
  -8  -3   6   28.44    2.56
  -8  -3   6   28.79    2.75
  -8  -3   6   35.25    2.49
  -8  -3   6   29.10    2.48
  -8  -3   6   34.66    2.98
  -8  -3   6   31.81    2.53
  -8  -3   6   26.29    2.03
  -8  -3   6   32.84    2.69
  -8  -3   5   53.60    3.44
  -8  -3   5   55.03    5.15
  -8  -3   5   55.27    3.44
  -8  -3   5   51.95    3.33
  -8  -3   5   50.51    3.45
  -8  -3   5   58.27    3.56
  -8  -3   5   49.01    3.11
  -8  -3   5   57.79    3.79
  -8  -3   4   25.86    2.19
  -8  -3   4   30.73    3.50
  -8  -3   4   29.79    2.54
  -8  -3   4   26.59    2.21
  -8  -3   4   28.51    2.41
  -8  -3   3  116.69    6.20
  -8  -3   3  103.16    5.27
  -8  -3   3  102.78    4.75
  -8  -3   3   99.25    4.88
  -8  -3   3  104.25    5.07
  -8  -3   3  105.23    5.40
  -8  -3   2  232.51    9.08
  -8  -3   2  220.54    8.80
  -8  -3   2  220.72    8.69
  -8  -3   2  223.14    8.48
  -8  -3   2  233.37    8.80
  -8  -3   1  112.39    5.58
  -8  -3   1  109.75    5.22
  -8  -3   1  114.01    5.50
  -8  -3   1  110.30    5.04
  -8  -3   1  105.27    4.94
  -8  -3   0  445.01   13.76
  -8  -3   0  423.58   14.31
  -8  -3   0  429.84   13.38
  -8  -3  -1   52.01    3.04
  -8  -3  -1   48.23    2.58
  -8  -3  -1   50.23    3.12
  -8  -3  -2    7.69    0.70
  -8  -3  -2    8.23    1.07
  -8  -3  -2    8.29    0.99
  -8  -3  -3   11.56    0.97
  -8  -3  -3   10.34    0.82
  -8  -4  13    5.95    0.83
  -8  -4  13    6.01    0.91
  -8  -4  12   10.96    1.44
  -8  -4  12   10.48    1.29
  -8  -4  11   38.94    3.11
  -8  -4  11   38.54    3.45
  -8  -4  10    0.23    0.57
  -8  -4  10    0.84    0.59
  -8  -4  10    0.71    0.44
  -8  -4  10    0.14    0.61
  -8  -4   9    7.02    1.32
  -8  -4   9    3.06    0.79
  -8  -4   9    3.87    1.25
  -8  -4   9    4.82    1.53
  -8  -4   9    4.41    1.19
  -8  -4   8   72.90    4.26
  -8  -4   8   71.74    5.30
  -8  -4   8   69.74    3.88
  -8  -4   8   81.88    5.47
  -8  -4   8   65.47    3.30
  -8  -4   8   69.37    3.52
  -8  -4   8   81.06    4.83
  -8  -4   8   74.10    3.51
  -8  -4   8   74.92    3.50
  -8  -4   7  127.16    5.49
  -8  -4   7  131.64    6.46
  -8  -4   7  124.03    5.19
  -8  -4   7  126.80    6.06
  -8  -4   7  120.69    5.18
  -8  -4   7  116.09    5.17
  -8  -4   7  130.07    5.43
  -8  -4   6  391.17   12.62
  -8  -4   6  407.04   16.85
  -8  -4   6  406.83   12.83
  -8  -4   6  385.02   12.97
  -8  -4   6  385.70   12.49
  -8  -4   6  396.11   12.85
  -8  -4   6  373.60   12.39
  -8  -4   6  409.40   13.11
  -8  -4   5  522.80   16.60
  -8  -4   5  508.56   16.03
  -8  -4   5  532.23   16.63
  -8  -4   5  547.94   16.95
  -8  -4   5  524.72   16.45
  -8  -4   4  303.20   10.99
  -8  -4   4  320.46   11.20
  -8  -4   3    3.14    0.79
  -8  -4   3    2.31    0.75
  -8  -4   3    3.09    0.82
  -8  -4   2  164.66    6.42
  -8  -4   2  149.18    6.44
  -8  -4   2  159.41    6.68
  -8  -4   2  156.78    6.24
  -8  -4   1    0.29    0.32
  -8  -4   1    0.44    0.44
  -8  -4   1    0.16    0.26
  -8  -4   0    3.94    0.82
  -8  -4   0    3.26    0.72
  -8  -4   0    3.12    0.58
  -8  -4  -1    1.49    0.41
  -8  -4  -1    1.98    0.50
  -8  -4  -1    1.64    0.32
  -8  -5  12  209.97    7.58
  -8  -5  11   92.83    4.62
  -8  -5  11  100.99    4.97
  -8  -5  10  134.57    6.44
  -8  -5  10  146.75    6.43
  -8  -5   9   91.42    5.37
  -8  -5   9   93.42    5.34
  -8  -5   9   86.27    4.57
  -8  -5   8   27.27    1.87
  -8  -5   8   26.24    2.55
  -8  -5   7   48.03    2.73
  -8  -5   7   41.13    4.18
  -8  -5   6   48.58    2.83
  -8  -5   6   42.34    4.42
  -8  -5   6   44.63    2.68
  -8  -5   5   11.93    2.21
  -8  -5   5   11.64    1.36
  -8  -5   5   11.70    1.39
  -8  -5   4  109.62    4.80
  -8  -5   4  114.83    5.70
  -8  -5   4  105.75    4.84
  -8  -5   3  230.12    8.09
  -8  -5   3  239.57    8.45
  -8  -5   2  244.92    8.09
  -8  -5   1  156.14    5.33
  -8  -5   1  162.34    5.83
  -8  -5   0   75.16    3.04
  -8  -6  11   22.52    1.68
  -8  -6  10   10.45    1.27
  -8  -6   9   67.40    4.11
  -8  -6   7   56.56    2.85
  -8  -6   7   56.12    4.22
  -8  -6   6  113.92    4.62
  -8  -6   6  120.52    6.24
  -8  -6   6  112.63    4.53
  -8  -6   5   95.25    4.73
  -8  -6   5   83.49    3.80
  -8  -6   4  182.72    6.39
  -8  -6   4  187.35    6.59
  -8  -6   3   26.03    1.60
  -8  -6   3   24.92    1.71
  -8  -7   9   10.71    1.27
  -8  -7   7    1.08    0.63
  -8  -7   6    1.09    0.54
  -8  -7   6    0.24    0.18
  -8  -7   5   55.29    2.39
   9  -8  -4   40.97    2.07
  -9   8   4   33.57    2.20
   9  -8  -3    5.53    0.78
  -9   8   3    5.24    0.85
   9  -8  -2    0.40    0.30
  -9   8   2    0.24    0.26
   9  -8  -1    7.64    0.92
   9  -8   0   51.82    2.54
   9  -8   1  171.39    6.03
   9  -8   1  164.95    5.62
   9  -8   2  128.07    4.44
   9  -8   2  105.18    3.84
  -9   8  -3   37.77    2.26
   9  -8   3   37.49    1.82
   9  -7  -6   89.12    3.69
  -9   7   6   91.66    4.22
   9  -7  -5  107.16    4.48
  -9   7   5  101.80    5.28
   9  -7  -4  134.05    5.23
  -9   7   4  105.73    5.87
   9  -7  -3  164.39    6.05
  -9   7   3  130.25    6.54
   9  -7  -2   22.96    1.83
  -9   7   2   18.53    1.97
   9  -7  -1  134.04    5.20
  -9   7   1  121.84    5.32
   9  -7   0    8.19    1.01
   9  -7   1    7.31    1.04
   9  -7   1    7.31    0.89
   9  -7   2    0.25    0.30
   9  -7   3    9.92    1.01
  -9   7  -3    7.82    1.13
  -9   7  -4   24.48    2.08
   9  -7   4   24.81    1.39
   9  -6  -8   82.79    3.19
  -9   6   8   74.68    3.10
  -9   6   7   37.16    2.09
  -9   6   7   64.30    3.37
  -9   6   6   35.00    2.22
  -9   6   6   51.90    3.74
   9  -6  -5   25.17    2.16
  -9   6   5   23.55    3.01
   9  -6  -4    8.57    1.27
  -9   6   4    7.00    1.63
   9  -6  -3    6.12    1.05
  -9   6   3    5.25    1.28
   9  -6  -2   37.36    2.50
  -9   6   2   33.81    2.97
   9  -6  -1   94.13    4.26
  -9   6   1   96.73    4.89
   9  -6   0   57.62    2.93
  -9   6   0   53.88    3.07
   9  -6   1   53.18    3.05
   9  -6   2  338.98   10.83
   9  -6   3  134.24    5.01
  -9   6  -3  135.79    5.80
   9  -6   4   80.98    3.14
  -9   6  -5    5.07    0.81
  -9   5   9    5.96    0.77
  -9   5   8   12.18    1.47
  -9   5   8   14.66    1.55
  -9   5   7   34.55    2.89
  -9   5   7   62.27    4.04
  -9   5   6   82.30    4.63
  -9   5   5   70.20    4.09
  -9   5   5   66.95    5.47
  -9   5   4  234.29    9.13
   9  -5  -4  271.76    9.43
  -9   5   4  256.73   11.44
   9  -5  -3  226.47    8.43
  -9   5   3  236.00   10.25
   9  -5  -2   43.54    2.71
  -9   5   2   44.37    3.54
  -9   5   1    3.70    1.18
  -9   5   1    3.65    0.94
   9  -5   0    0.40    0.40
  -9   5   0    0.86    0.44
   9  -5   1   64.39    3.37
   9  -5   2    0.32    0.29
  -9   5  -2    0.55    0.59
   9  -5   3   41.29    2.21
  -9   5  -3   40.26    2.74
  -9   5  -4  102.47    5.20
  -9   5  -5   73.12    3.48
  -9   4  10  160.58    5.82
  -9   4   9  123.53    5.77
  -9   4   9  117.73    4.80
  -9   4   8   67.43    3.45
  -9   4   8   67.30    4.75
  -9   4   7   19.48    1.89
  -9   4   7   23.10    2.68
  -9   4   6    3.64    0.86
  -9   4   6    2.20    0.87
  -9   4   6    3.38    0.96
  -9   4   5    1.67    0.63
  -9   4   5    1.65    0.80
  -9   4   5    2.22    1.10
  -9   4   4  136.07    5.83
  -9   4   4  138.09    6.42
   9  -4  -4  123.30    5.64
  -9   4   4  143.25    7.76
  -9   4   3   13.72    1.51
  -9   4   3   11.72    1.57
  -9   4   3   13.59    2.09
  -9   4   2  229.09    9.67
  -9   4   2  215.15    8.03
  -9   4   2  216.82    9.28
  -9   4   1   28.27    3.30
  -9   4   1   31.56    2.70
  -9   4   0   78.90    4.11
  -9   4  -1   53.64    4.26
  -9   4  -2  346.67   12.58
  -9   4  -3    1.87    0.83
  -9   4  -3    2.05    0.60
  -9   4  -4   30.27    2.51
  -9   4  -5   19.27    1.51
  -9   3  11   37.69    2.07
  -9   3  10    1.21    0.42
  -9   3  10    1.53    0.64
  -9   3   9    4.88    1.04
  -9   3   9    5.61    1.40
  -9   3   9    5.60    0.98
  -9   3   8  123.81    6.36
  -9   3   8  134.99    7.77
  -9   3   7   21.70    2.40
  -9   3   7   25.40    3.00
  -9   3   7   22.75    2.79
  -9   3   6   89.12    5.09
  -9   3   6   86.44    5.46
  -9   3   6   87.01    5.31
  -9   3   5  189.47    8.19
  -9   3   5  185.31    8.51
  -9   3   5  201.14    9.73
  -9   3   5  202.88    9.78
  -9   3   4  150.82    6.78
  -9   3   4  148.12    6.98
  -9   3   4  151.87    7.95
  -9   3   3   31.49    2.58
  -9   3   3   38.74    3.17
  -9   3   3   33.79    2.77
  -9   3   3   32.16    3.14
  -9   3   2   64.76    3.60
  -9   3   2   59.51    4.55
  -9   3   2   55.27    3.45
  -9   3   2   62.69    4.19
  -9   3   1   19.08    2.76
  -9   3   1   19.52    1.73
  -9   3   1   15.47    2.58
  -9   3   1   19.76    2.10
  -9   3   0   10.93    2.23
  -9   3   0   10.16    1.09
  -9   3   0   10.04    1.99
  -9   3  -1  125.14    7.67
  -9   3  -1  138.37    5.30
  -9   3  -1  147.39    7.25
  -9   3  -2  230.17   10.46
  -9   3  -2  257.67    9.52
  -9   3  -3  121.50    6.08
  -9   3  -3  116.71    4.70
  -9   3  -4   67.78    3.67
  -9   3  -5   35.11    1.91
  -9   3  -5   37.50    1.93
  -9   2  11   89.69    3.99
  -9   2  10   84.30    4.71
  -9   2   9  128.52    7.03
  -9   2   9  118.17    5.27
  -9   2   8   44.28    3.82
  -9   2   8   51.52    4.42
  -9   2   8   52.42    3.75
  -9   2   7  233.70   10.32
  -9   2   7  258.05   11.04
  -9   2   7  253.83   10.73
  -9   2   6   89.26    5.36
  -9   2   6   88.13    5.54
  -9   2   6   95.32    5.99
  -9   2   6   85.12    5.37
  -9   2   5   11.92    1.83
  -9   2   5   13.87    1.97
  -9   2   5   13.15    2.25
  -9   2   4  223.29    9.12
  -9   2   4  231.73    8.84
  -9   2   4  222.74    9.19
  -9   2   4  223.89    9.89
  -9   2   4  201.67   10.62
  -9   2   3  350.28   12.26
  -9   2   3  360.78   13.16
  -9   2   3  334.22   12.20
  -9   2   3  351.19   13.08
  -9   2   3  331.95   14.64
  -9   2   2  262.63    9.61
  -9   2   2  254.82    9.62
  -9   2   2  267.81   11.35
  -9   2   2  264.28    9.57
  -9   2   2  266.16   10.30
  -9   2   2  255.84   12.06
  -9   2   1  139.61    6.81
  -9   2   1  141.44    7.97
  -9   2   1  140.30    5.83
  -9   2   1  149.50    6.48
  -9   2   1  151.15    8.08
  -9   2   0   13.43    2.32
  -9   2   0   12.92    1.29
  -9   2   0   13.81    1.53
  -9   2   0   14.19    2.13
  -9   2  -1   41.58    2.40
  -9   2  -1   43.77    3.38
  -9   2  -2    9.10    1.62
  -9   2  -2    9.30    1.26
  -9   2  -3   10.40    1.48
  -9   2  -3   10.79    1.52
  -9   2  -4    0.48    0.33
  -9   2  -4    0.16    0.25
  -9   2  -5    3.22    0.51
  -9   1  12   20.74    1.52
  -9   1  12   20.13    1.32
  -9   1  11    0.69    0.53
  -9   1  11    0.28    0.36
  -9   1  10   -0.14    0.77
  -9   1  10    0.11    0.41
  -9   1   9   12.18    1.91
  -9   1   9   10.70    1.99
  -9   1   9   16.68    2.05
  -9   1   9   15.71    1.71
  -9   1   8   25.09    2.89
  -9   1   8   26.72    3.03
  -9   1   8   26.16    2.85
  -9   1   8   27.73    2.64
  -9   1   7  623.23   21.28
  -9   1   7  611.09   21.25
  -9   1   7  692.01   21.82
  -9   1   7  675.35   21.27
  -9   1   7  607.90   19.83
  -9   1   6  562.60   19.67
  -9   1   6  597.75   19.97
  -9   1   6  611.99   20.28
  -9   1   6  599.18   19.90
  -9   1   5   59.12    4.18
  -9   1   5   60.57    4.22
  -9   1   5   64.74    4.87
  -9   1   4  245.35    9.80
  -9   1   4  260.66    9.86
  -9   1   4  244.40    9.80
  -9   1   4  244.32   10.25
  -9   1   4  235.70   11.15
  -9   1   3   17.24    1.93
  -9   1   3   20.05    2.42
  -9   1   3   20.30    2.12
  -9   1   3   21.99    2.38
  -9   1   2    1.11    0.54
  -9   1   2    2.03    0.81
  -9   1   2    1.81    0.88
  -9   1   2    1.41    0.60
  -9   1   2    0.46    0.73
  -9   1   2    1.03    0.54
  -9   1   1  113.09    5.95
  -9   1   1  111.92    6.70
  -9   1   1  112.95    4.95
  -9   1   1  113.04    6.47
  -9   1   0   16.65    2.17
  -9   1   0   14.04    1.48
  -9   1   0   15.69    2.04
  -9   1  -1   26.17    2.64
  -9   1  -1   33.05    3.06
  -9   1  -1   27.17    2.53
  -9   1  -1   28.64    1.90
  -9   1  -1   30.47    2.49
  -9   1  -2   10.46    1.54
  -9   1  -2   10.89    1.57
  -9   1  -2    9.36    1.39
  -9   1  -2    9.23    1.09
  -9   1  -3  104.75    4.77
  -9   1  -3  114.12    4.89
  -9   1  -4  156.38    5.46
  -9   1  -4  142.79    5.28
  -9   0  12  173.56    6.35
  -9   0  12  154.56    5.38
  -9   0  11  159.06    6.94
  -9   0  11  175.56    7.76
  -9   0  11  173.50    6.68
  -9   0  11  178.20    6.79
  -9   0  10  262.95   11.29
  -9   0  10  302.24   12.37
  -9   0  10  273.08   10.78
  -9   0  10  312.19   11.03
  -9   0   9   56.98    4.58
  -9   0   9   65.86    4.87
  -9   0   9   53.11    4.30
  -9   0   9   66.20    4.46
  -9   0   9   57.28    3.32
  -9   0   8  112.03    6.53
  -9   0   8  114.13    6.49
  -9   0   8   99.66    6.28
  -9   0   8  107.55    5.43
  -9   0   7   11.86    1.91
  -9   0   7   12.35    2.09
  -9   0   7   11.28    1.77
  -9   0   7   12.29    1.62
  -9   0   6    0.12    0.59
  -9   0   6    1.16    0.67
  -9   0   6    0.34    0.52
  -9   0   6    0.46    0.53
  -9   0   5  143.71    6.93
  -9   0   5  148.38    6.99
  -9   0   5  142.68    7.48
  -9   0   4   31.56    2.72
  -9   0   4   29.43    2.61
  -9   0   4   25.04    2.53
  -9   0   4   26.88    3.04
  -9   0   3  211.71    8.40
  -9   0   3  205.67    8.08
  -9   0   3  217.40    9.29
  -9   0   3  218.51    8.39
  -9   0   2  336.23   12.08
  -9   0   2  343.32   13.16
  -9   0   2  343.46   11.45
  -9   0   2  341.98   11.82
  -9   0   2  324.23   12.93
  -9   0   1  570.64   18.69
  -9   0   1  569.16   17.14
  -9   0   1  568.23   17.48
  -9   0   1  576.41   18.89
  -9   0   0   15.85    2.00
  -9   0   0   12.65    1.91
  -9   0   0   12.53    1.62
  -9   0   0   14.27    1.43
  -9   0   0   14.32    1.73
  -9   0  -1    9.47    1.52
  -9   0  -1    9.54    1.48
  -9   0  -1    9.15    1.38
  -9   0  -1    8.45    1.15
  -9   0  -1    8.99    1.00
  -9   0  -2    0.14    0.32
  -9   0  -2    0.20    0.20
  -9   0  -3    0.05    0.29
  -9   0  -3    0.30    0.28
  -9   0  -3    0.11    0.20
  -9   0  -4    1.66    0.34
  -9  -1  12   11.53    1.33
  -9  -1  12   12.37    1.23
  -9  -1  11  100.99    5.55
  -9  -1  11  105.37    4.57
  -9  -1  11  112.28    5.37
  -9  -1  10  100.46    6.38
  -9  -1  10  105.19    5.09
  -9  -1  10   92.42    5.76
  -9  -1   9   54.24    4.43
  -9  -1   9   57.19    3.84
  -9  -1   9   51.05    4.45
  -9  -1   8  266.89   10.50
  -9  -1   7  215.85    9.02
  -9  -1   7  215.37    9.71
  -9  -1   7  214.42    8.26
  -9  -1   6  287.06    9.79
  -9  -1   6  305.03   11.70
  -9  -1   6  299.80   11.15
  -9  -1   5  111.23    5.17
  -9  -1   5  114.77    6.13
  -9  -1   4  154.58    6.25
  -9  -1   4  166.35    6.93
  -9  -1   4  165.23    7.10
  -9  -1   4  155.85    7.66
  -9  -1   3   31.91    2.53
  -9  -1   3   32.71    2.51
  -9  -1   3   32.03    2.56
  -9  -1   3   29.09    2.88
  -9  -1   2    0.73    0.54
  -9  -1   2    0.70    0.42
  -9  -1   2    1.69    0.60
  -9  -1   1    8.02    1.14
  -9  -1   1    6.85    1.23
  -9  -1   0  387.41   12.93
  -9  -1   0  373.36   12.48
  -9  -1   0  360.29   11.61
  -9  -1   0  372.46   12.03
  -9  -1  -1  333.48   11.37
  -9  -1  -1  334.63   10.43
  -9  -1  -2   37.67    2.28
  -9  -1  -2   33.25    1.92
  -9  -1  -3   15.31    1.12
  -9  -1  -3   14.07    1.06
  -9  -2  12    3.30    0.77
  -9  -2  12    4.29    0.75
  -9  -2  12    3.33    0.73
  -9  -2  11  112.06    5.30
  -9  -2  11  110.30    5.72
  -9  -2  10   94.70    5.08
  -9  -2  10   89.82    4.21
  -9  -2   9   10.59    1.81
  -9  -2   9    9.45    1.59
  -9  -2   9   10.41    1.41
  -9  -2   8    0.93    0.62
  -9  -2   8    0.35    0.50
  -9  -2   8    0.66    0.57
  -9  -2   8    2.48    0.66
  -9  -2   7   16.59    1.99
  -9  -2   7   16.98    1.89
  -9  -2   7   20.43    2.35
  -9  -2   7   15.61    1.74
  -9  -2   7   15.40    1.66
  -9  -2   6    3.72    0.88
  -9  -2   6    1.91    0.58
  -9  -2   6    2.20    0.72
  -9  -2   6    1.92    0.75
  -9  -2   6    2.23    0.76
  -9  -2   5  190.39    7.54
  -9  -2   5  178.05    7.18
  -9  -2   5  188.56    7.43
  -9  -2   5  188.91    7.52
  -9  -2   5  181.21    7.81
  -9  -2   4  422.55   13.89
  -9  -2   4  414.72   13.34
  -9  -2   3  451.39   14.53
  -9  -2   3  443.19   14.79
  -9  -2   3  445.72   14.06
  -9  -2   3  468.02   14.49
  -9  -2   3  442.90   14.95
  -9  -2   2  110.17    5.25
  -9  -2   2  110.27    4.89
  -9  -2   2  109.36    5.16
  -9  -2   1  212.80    7.95
  -9  -2   1  222.84    8.30
  -9  -2   1  216.48    7.72
  -9  -2   1  202.95    7.48
  -9  -2   0   92.59    4.36
  -9  -2   0   95.78    4.12
  -9  -2   0   82.05    4.06
  -9  -2   0   85.81    3.68
  -9  -2  -1   29.46    1.74
  -9  -2  -1   29.61    1.95
  -9  -2  -2   27.72    1.58
  -9  -2  -2   35.13    1.77
  -9  -3  12    1.20    0.35
  -9  -3  12    1.37    0.49
  -9  -3  11  103.48    4.94
  -9  -3  11   82.26    3.90
  -9  -3  10  113.48    5.63
  -9  -3  10  123.00    6.37
  -9  -3   9  193.78    7.53
  -9  -3   9  181.52    6.80
  -9  -3   8  155.55    6.34
  -9  -3   8  144.28    5.83
  -9  -3   8  158.99    7.03
  -9  -3   8  138.36    5.49
  -9  -3   7  204.28    7.72
  -9  -3   7  192.87    6.91
  -9  -3   7  200.06    7.44
  -9  -3   7  204.65    8.11
  -9  -3   7  200.37    7.36
  -9  -3   7  211.99    7.43
  -9  -3   6   98.66    4.56
  -9  -3   6  102.25    4.44
  -9  -3   6   92.63    4.40
  -9  -3   6   99.51    4.62
  -9  -3   6  103.84    4.76
  -9  -3   5  177.47    6.76
  -9  -3   5  163.91    6.43
  -9  -3   5  169.48    6.75
  -9  -3   5  184.06    7.14
  -9  -3   4   18.97    1.80
  -9  -3   4   18.04    1.69
  -9  -3   3    8.20    1.18
  -9  -3   3   11.85    1.39
  -9  -3   3    8.65    1.21
  -9  -3   2  148.79    5.84
  -9  -3   2  142.62    5.92
  -9  -3   2  142.74    5.62
  -9  -3   1  121.40    4.73
  -9  -3   1  119.36    5.00
  -9  -3   1  114.81    4.49
  -9  -3   0  124.55    4.43
  -9  -3  -1   95.36    3.49
  -9  -4  12   30.27    1.85
  -9  -4  11    0.74    0.48
  -9  -4  10   25.11    2.20
  -9  -4   9    5.30    1.02
  -9  -4   8  114.10    4.23
  -9  -4   7  146.93    5.39
  -9  -4   7  138.39    5.46
  -9  -4   7  155.06    5.60
  -9  -4   6   42.30    2.48
  -9  -4   6   47.39    2.69
  -9  -4   6   44.66    2.63
  -9  -4   5   63.27    3.17
  -9  -4   5   63.05    3.24
  -9  -4   4  184.28    6.63
  -9  -4   3  210.37    7.29
  -9  -4   3  209.21    7.39
  -9  -4   3  217.45    7.31
  -9  -4   2  217.93    7.20
  -9  -4   2  224.27    7.51
  -9  -4   1    0.39    0.23
  -9  -4   1    0.23    0.24
  -9  -5   7  107.42    4.08
  -9  -5   6    0.92    0.37
  -9  -5   5    2.43    0.53
  -9  -5   4    5.57    0.73
  -9  -5   4    6.07    0.75
  -9  -5   3    7.89    0.78
  -9  -5   3    8.00    0.82
 -10   7   4   31.87    1.98
 -10   7   3  159.91    5.78
 -10   7   3   97.40    4.19
 -10   7   2   82.99    4.66
 -10   7   2   51.18    2.34
 -10   7   0   10.58    1.54
 -10   7  -1    5.15    0.90
 -10   6   6   49.47    2.88
  10  -6  -5   18.72    1.34
 -10   6   5   15.90    1.83
  10  -6  -4    7.42    0.83
 -10   6   4    7.85    1.26
 -10   6   4    8.56    1.37
 -10   6   3    1.23    0.81
 -10   6   3    0.56    0.43
 -10   6   2    7.09    0.98
 -10   6   1   27.64    3.10
 -10   6   1   27.93    1.68
 -10   6   0   30.74    2.88
 -10   6  -1   60.69    3.45
 -10   6  -1   47.22    3.12
 -10   6  -2  124.92    4.95
 -10   6  -2   95.06    4.02
 -10   5   7   44.17    2.38
  10  -5  -7   49.52    2.45
 -10   5   6    3.29    0.63
  10  -5  -6    2.89    0.59
 -10   5   6    4.18    1.08
 -10   5   5   16.36    1.38
  10  -5  -5   20.04    1.50
 -10   5   5   17.82    2.24
 -10   5   5   20.73    2.04
 -10   5   4   39.47    3.16
 -10   5   4   44.61    3.70
 -10   5   3  184.32    9.06
 -10   5   3  151.22    6.75
 -10   5   2   74.90    3.87
 -10   5   1   99.22    6.12
 -10   5   1   98.45    4.15
 -10   5   0   36.91    3.02
 -10   5   0   28.87    2.83
 -10   5  -1    8.42    1.50
 -10   5  -1    7.11    1.22
 -10   5  -2   23.77    2.15
 -10   5  -2   19.38    1.52
 -10   4   9   52.93    2.52
 -10   4   8   42.54    2.84
 -10   4   8   57.78    2.95
 -10   4   7    2.98    0.81
 -10   4   7    6.10    1.20
 -10   4   6  140.63    6.05
 -10   4   5   65.20    3.55
 -10   4   5   73.93    4.72
 -10   4   5   71.55    4.40
 -10   4   4    4.92    0.87
 -10   4   4    6.43    1.58
 -10   4   4    5.10    1.17
 -10   4   3    1.20    0.43
 -10   4   3    1.37    0.59
 -10   4   2   22.46    2.03
 -10   4   1   55.85    3.84
 -10   4   1   43.75    3.84
 -10   4   0  204.52    8.93
 -10   4   0  185.71    8.23
 -10   4  -1  177.69    7.94
 -10   4  -1  170.02    6.90
 -10   4  -2   80.01    3.40
 -10   4  -3    5.18    0.68
 -10   4  -3    6.38    0.89
 -10   3  10   15.43    1.22
 -10   3   9   11.84    1.07
 -10   3   9   15.08    1.66
 -10   3   9   15.78    1.22
 -10   3   8    2.39    0.61
 -10   3   8    1.56    0.72
 -10   3   8    1.97    0.62
 -10   3   7    9.53    1.29
 -10   3   7   10.82    1.60
 -10   3   7   14.58    1.88
 -10   3   6  267.79    9.83
 -10   3   6  297.97   10.69
 -10   3   6  299.17   10.44
 -10   3   5  118.53    5.39
 -10   3   5  135.03    5.97
 -10   3   5  129.38    6.65
 -10   3   5  143.42    6.99
 -10   3   4  124.16    5.36
 -10   3   4  129.68    5.63
 -10   3   4  136.10    6.50
 -10   3   4  140.16    7.52
 -10   3   3  127.36    5.28
 -10   3   3  135.99    6.17
 -10   3   3  127.27    7.44
 -10   3   2   86.85    4.75
 -10   3   2   72.90    3.37
 -10   3   2   73.05    3.95
 -10   3   2   78.44    5.38
 -10   3   1    9.11    1.61
 -10   3   1    7.17    1.49
 -10   3   0   17.23    2.24
 -10   3   0   15.62    1.25
 -10   3   0   15.02    1.85
 -10   3  -1   26.69    2.52
 -10   3  -1   30.68    2.43
 -10   3  -1   24.90    2.02
 -10   3  -2   14.38    1.45
 -10   3  -2   11.35    0.99
 -10   3  -3    9.13    0.91
 -10   3  -3    9.73    1.01
 -10   2  10  209.99    7.48
 -10   2  10  252.36    8.15
 -10   2   9  201.08    8.00
 -10   2   9  184.48    6.34
 -10   2   8   57.80    3.77
 -10   2   8   62.37    4.22
 -10   2   8   69.18    3.74
 -10   2   7  246.50    9.72
 -10   2   7  249.30   10.08
 -10   2   6    9.11    1.41
 -10   2   6    9.88    1.54
 -10   2   6    9.73    1.50
 -10   2   5   11.13    1.49
 -10   2   5    9.19    1.40
 -10   2   5    9.59    1.62
 -10   2   5   11.12    1.81
 -10   2   4   90.51    4.46
 -10   2   4   93.80    4.57
 -10   2   4   87.08    4.92
 -10   2   4   85.79    5.67
 -10   2   3   14.20    1.74
 -10   2   3   13.23    1.43
 -10   2   3   12.23    1.61
 -10   2   2  106.56    4.45
 -10   2   2   97.18    5.88
 -10   2   1   88.61    5.18
 -10   2   1   84.78    3.86
 -10   2   1   82.49    4.85
 -10   2   0  118.35    5.87
 -10   2   0  107.82    5.10
 -10   2   0  103.59    4.02
 -10   2   0  105.14    5.07
 -10   2  -1   74.48    3.92
 -10   2  -1   72.69    3.40
 -10   2  -2   97.76    4.24
 -10   2  -2  106.32    4.46
 -10   2  -3   15.48    1.09
 -10   1  11    5.04    0.73
 -10   1  11    5.84    0.69
 -10   1  10    1.18    0.59
 -10   1   9    3.87    1.03
 -10   1   8  113.31    5.89
 -10   1   8  129.61    6.20
 -10   1   8  114.63    5.22
 -10   1   7  214.02    8.84
 -10   1   7  223.87    8.96
 -10   1   7  218.06    8.66
 -10   1   6  124.86    5.92
 -10   1   6  124.13    5.97
 -10   1   6  126.76    5.94
 -10   1   5   60.19    3.66
 -10   1   5   64.58    3.79
 -10   1   5   64.40    4.01
 -10   1   5   56.61    4.08
 -10   1   4  149.69    6.23
 -10   1   4  149.07    6.21
 -10   1   4  145.76    7.35
 -10   1   3  176.28    6.69
 -10   1   2  189.33    7.88
 -10   1   2  166.12    6.21
 -10   1   2  176.40    6.68
 -10   1   2  172.44    7.71
 -10   1   1   25.82    2.50
 -10   1   1   22.51    1.98
 -10   1   1   21.79    1.67
 -10   1   1   23.36    2.19
 -10   1   0    3.48    0.83
 -10   1   0    4.37    0.84
 -10   1   0    3.22    0.55
 -10   1  -1   60.03    3.19
 -10   1  -1   58.07    2.60
 -10   1  -2   42.96    2.23
 -10   0  11   42.22    2.49
 -10   0  11   41.31    2.04
 -10   0  10   66.85    4.05
 -10   0  10   68.68    3.47
 -10   0   9  131.36    6.26
 -10   0   9  129.67    5.76
 -10   0   9  116.37    4.61
 -10   0   8   53.27    3.68
 -10   0   7    8.41    1.38
 -10   0   7    7.67    1.33
 -10   0   7    9.15    1.16
 -10   0   6    1.45    0.65
 -10   0   6    1.42    0.63
 -10   0   6    1.99    0.71
 -10   0   5    8.00    1.23
 -10   0   5    9.80    1.13
 -10   0   5    8.77    1.26
 -10   0   5    6.19    1.28
 -10   0   4    3.27    0.76
 -10   0   4    3.93    0.83
 -10   0   4    3.70    1.07
 -10   0   4    4.08    0.95
 -10   0   3  331.56   10.57
 -10   0   3  320.14   10.82
 -10   0   3  320.52   11.75
 -10   0   2  188.58    6.85
 -10   0   2  192.14    7.63
 -10   0   1  182.28    6.52
 -10   0   1  191.63    7.14
 -10   0   0  260.59    8.67
 -10   0   0  239.88    7.96
 -10   0  -1  193.00    6.00
 -10   0  -1  197.86    6.23
 -10  -1  11   14.79    0.99
 -10  -1  10   55.86    2.81
 -10  -1   9   16.96    1.64
 -10  -1   8  101.11    4.76
 -10  -1   8   99.20    4.27
 -10  -1   7  207.99    7.72
 -10  -1   7  211.85    7.37
 -10  -1   6  347.59   11.74
 -10  -1   6  363.01   11.84
 -10  -1   5  106.06    4.48
 -10  -1   5  106.02    4.74
 -10  -1   5  109.38    5.18
 -10  -1   4   94.05    4.30
 -10  -1   4   85.36    4.00
 -10  -1   4   93.69    4.31
 -10  -1   3   15.31    1.57
 -10  -1   3   13.11    1.36
 -10  -1   3   12.22    1.52
 -10  -1   2   20.87    1.82
 -10  -1   2   20.96    1.71
 -10  -1   2   20.47    1.59
 -10  -1   2   20.17    1.73
 -10  -1   1    8.29    1.04
 -10  -1   1    8.53    1.08
 -10  -1   1    5.28    0.77
 -10  -1   0   87.12    3.42
 -10  -1   0   88.19    3.56
 -10  -1  -1   50.16    1.99
 -10  -1  -1   50.53    2.15
 -10  -2  11   48.79    2.29
 -10  -2  10   44.59    2.49
 -10  -2  10   33.06    1.78
 -10  -2   9   42.59    2.63
 -10  -2   9   39.96    2.26
 -10  -2   8   13.04    1.41
 -10  -2   8   11.35    1.23
 -10  -2   8   11.43    1.12
 -10  -2   7   57.38    3.13
 -10  -2   7   58.68    3.05
 -10  -2   7   52.61    2.88
 -10  -2   7   61.05    2.89
 -10  -2   6    2.76    0.55
 -10  -2   6    2.36    0.60
 -10  -2   6    3.69    0.74
 -10  -2   6    3.20    0.70
 -10  -2   5  102.71    4.26
 -10  -2   5  104.14    4.62
 -10  -2   4  102.82    4.29
 -10  -2   4   92.53    4.18
 -10  -2   3  145.99    5.55
 -10  -2   3  134.26    5.30
 -10  -2   3  151.80    5.58
 -10  -2   2  140.94    5.05
 -10  -2   2  127.91    4.85
 -10  -2   1  146.62    4.91
 -10  -2   1  137.92    4.93
 -10  -2   1  135.93    4.60
 -10  -3  10   35.33    1.68
 -10  -3   9   87.07    3.41
 -10  -3   8   70.23    2.88
 -10  -3   7   62.48    2.93
 -10  -3   7   69.75    2.92
 -10  -3   6   90.50    3.59
 -10  -3   6   91.86    3.86
 -10  -3   6   96.35    3.87
 -10  -3   5   51.84    2.52
 -10  -3   5   52.61    2.65
 -10  -3   5   47.51    2.56
 -10  -3   4    0.25    0.26
 -10  -3   3    1.46    0.40
 -10  -3   2    2.83    0.47
 -10  -4   6   19.08    1.18
 -10  -4   5   59.45    2.48
 -10  -4   4   76.70    2.89
 -11   5   5   59.57    2.95
 -11   5   4    6.62    0.84
 -11   5   4   10.33    1.14
 -11   5   3   88.77    4.49
 -11   5   1   79.09    3.76
 -11   5   0   11.01    0.98
 -11   4   7  195.04    6.47
 -11   4   6  281.88    9.56
 -11   4   5   10.32    1.26
 -11   4   5   13.86    1.29
 -11   4   4    6.84    0.95
 -11   4   4    8.32    1.24
 -11   4   3   20.58    2.17
 -11   4   2    2.18    0.72
 -11   4   2    1.62    0.37
 -11   4   1    0.75    0.38
 -11   4   0   14.02    1.13
 -11   3   8    7.74    0.86
 -11   3   7   19.68    1.56
 -11   3   7   28.33    1.91
 -11   3   6   69.74    3.22
 -11   3   6   82.09    3.96
 -11   3   5  128.76    4.95
 -11   3   5  144.86    5.83
 -11   3   4   69.13    2.92
 -11   3   4   89.34    4.45
 -11   3   3   44.78    2.43
 -11   3   2  108.84    4.01
 -11   3   2  115.92    5.17
 -11   3   1   43.45    2.52
 -11   3   0   13.80    1.06
 -11   2   9   36.33    1.91
 -11   2   8   62.88    2.95
 -11   2   8   83.58    3.68
 -11   2   7   54.08    2.71
 -11   2   7   56.55    2.99
 -11   2   6   26.09    1.84
 -11   2   6   21.12    1.57
 -11   2   5   58.85    2.93
 -11   2   5   72.34    3.63
 -11   2   4   15.17    1.21
 -11   2   4   16.10    1.49
 -11   2   4   16.89    1.80
 -11   2   3   15.22    1.31
 -11   2   2  111.70    4.09
 -11   2   2  118.66    4.96
 -11   2   1   36.58    2.09
 -11   2   0   92.84    3.58
 -11   1   9   17.30    1.38
 -11   1   9   20.83    1.47
 -11   1   8    8.49    1.06
 -11   1   8    9.31    1.12
 -11   1   8    9.97    0.95
 -11   1   7   19.48    1.59
 -11   1   7   18.72    1.59
 -11   1   7   18.70    1.57
 -11   1   6  122.59    4.95
 -11   1   6  132.76    4.90
 -11   1   5   91.31    3.88
 -11   1   5   95.28    4.22
 -11   1   5  103.12    4.44
 -11   1   4  160.11    5.64
 -11   1   4  169.36    6.05
 -11   1   4  176.65    6.66
 -11   1   3  197.24    6.23
 -11   1   3  162.92    5.96
 -11   1   2  118.04    4.40
 -11   1   2  110.83    4.39
 -11   1   1   34.41    1.90
 -11   1   1   29.87    1.63
 -11   0   9   65.66    3.11
 -11   0   9   67.13    2.86
 -11   0   8   27.27    1.87
 -11   0   8   23.85    1.45
 -11   0   7   28.75    1.94
 -11   0   7   33.04    2.02
 -11   0   7   32.42    1.94
 -11   0   6    2.94    0.59
 -11   0   6    3.03    0.57
 -11   0   5    5.02    0.71
 -11   0   5    5.07    0.78
 -11   0   5    5.57    0.86
 -11   0   4   43.07    2.26
 -11   0   4   40.89    2.42
 -11   0   3  154.71    5.16
 -11   0   3  145.91    5.29
 -11   0   2   83.16    3.28
 -11   0   2   74.30    3.08
 -11   0   1  115.95    3.94
 -11  -1   9   28.81    1.44
 -11  -1   8  275.89    8.14
 -11  -1   8  252.98    7.71
 -11  -1   7   85.21    3.35
 -11  -1   6   41.50    2.22
 -11  -1   6   49.38    2.24
 -11  -1   5   80.42    3.35
 -11  -1   4   36.20    1.78
 -11  -1   4   36.05    1.90
 -11  -1   3    5.50    0.64
 -11  -1   3    6.02    0.67
 -11  -2   7    0.66    0.25
 -11  -2   6   15.58    1.01
 -11  -2   6   15.94    1.10
 -11  -2   5    4.02    0.53
   0   0   0    0.00    0.00


TITL tf-7-132-insol-dmap in P-1
REM P-1 (#2 in standard setting)
CELL 1.54184   9.339048   9.587537  11.993585 109.2091 108.2485  98.6485
ZERR    2.00   0.000154   0.000181   0.000172   0.0016   0.0015   0.0015
LATT  1
SFAC C H N O Se
UNIT 40.00 36.00 8.00 6.00 2.00
TREF
HKLF 4
END
_computing_structure_solution     'SHELXT 2018/2 (Sheldrick, 2018)'
;
_shelx_hkl_checksum                56725
_olex2_submission_special_instructions  'No special instructions were received'
_oxdiff_exptl_absorpt_empirical_details
;
Empirical correction (ABSPACK) includes:
- Absorption correction using spherical harmonics
- Frame scaling
;
_oxdiff_exptl_absorpt_empirical_full_max  1.572
_oxdiff_exptl_absorpt_empirical_full_min  0.790
