data_tf-34
_audit_creation_date               2021-03-18
_audit_creation_method
;
Olex2 1.3
(compiled 2020.11.12 svn.r5f609507 for OlexSys, GUI svn.r6272)
;
_shelx_SHELXL_version_number       '2018/3'
_audit_contact_author_address      ?
_audit_contact_author_email        ?
_audit_contact_author_name         ''
_audit_contact_author_phone        ?
_publ_contact_author_id_orcid      ?
_publ_section_references
;
Dolomanov, O.V., Bourhis, L.J., Gildea, R.J, Howard, J.A.K. & Puschmann, H.
 (2009), J. Appl. Cryst. 42, 339-341.

Sheldrick, G.M. (2015). Acta Cryst. A71, 3-8.

Sheldrick, G.M. (2015). Acta Cryst. C71, 3-8.
;
_chemical_name_common              ?
_chemical_name_systematic          ?
_chemical_formula_moiety           'C14 H11 N O Se, C9 H12 N2 O'
_chemical_formula_sum              'C23 H23 N3 O2 Se'
_chemical_formula_weight           452.40
_chemical_melting_point            ?
_chemical_oxdiff_formula           C23H22N3O2Se
loop_
  _atom_type_symbol
  _atom_type_description
  _atom_type_scat_dispersion_real
  _atom_type_scat_dispersion_imag
  _atom_type_scat_source
 'C' 'C' 0.0181 0.0091 'International Tables Vol C Tables 4.2.6.8 and 6.1.1.4'
 'H' 'H' 0.0000 0.0000 'International Tables Vol C Tables 4.2.6.8 and 6.1.1.4'
 'N' 'N' 0.0311 0.0180 'International Tables Vol C Tables 4.2.6.8 and 6.1.1.4'
 'O' 'O' 0.0492 0.0322 'International Tables Vol C Tables 4.2.6.8 and 6.1.1.4'
 'Se' 'Se' -0.7943 1.1372
 'International Tables Vol C Tables 4.2.6.8 and 6.1.1.4'

_shelx_space_group_comment
;
The symmetry employed for this shelxl refinement is uniquely defined
by the following loop, which should always be used as a source of
symmetry information in preference to the above space-group names.
They are only intended as comments.
;
_space_group_crystal_system        'triclinic'
_space_group_IT_number             2
_space_group_name_H-M_alt          'P -1'
_space_group_name_Hall             '-P 1'
loop_
  _space_group_symop_operation_xyz
 'x, y, z'
 '-x, -y, -z'

_cell_length_a                     9.2634(3)
_cell_length_b                     10.1601(3)
_cell_length_c                     11.9076(4)
_cell_angle_alpha                  110.439(3)
_cell_angle_beta                   108.347(3)
_cell_angle_gamma                  93.315(3)
_cell_volume                       978.88(6)
_cell_formula_units_Z              2
_cell_measurement_reflns_used      4931
_cell_measurement_temperature      100.01(10)
_cell_measurement_theta_max        75.6790
_cell_measurement_theta_min        4.7080
_shelx_estimated_absorpt_T_max     ?
_shelx_estimated_absorpt_T_min     ?
_exptl_absorpt_coefficient_mu      2.801
_exptl_absorpt_correction_T_max    1.000
_exptl_absorpt_correction_T_min    0.652
_exptl_absorpt_correction_type     gaussian
_exptl_absorpt_process_details
;
CrysAlisPro 1.171.40.67a (Rigaku Oxford Diffraction, 2019)
Numerical absorption correction based on gaussian integration over
			a multifaceted crystal model
Empirical absorption correction using spherical harmonics,
 implemented in SCALE3 ABSPACK scaling algorithm.
;
_exptl_absorpt_special_details     ?
_exptl_crystal_colour              colourless
_exptl_crystal_colour_primary      colourless
_exptl_crystal_density_diffrn      1.535
_exptl_crystal_density_meas        ?
_exptl_crystal_density_method      ?
_exptl_crystal_description         plate
_exptl_crystal_F_000               464
loop_
  _exptl_crystal_face_index_h
  _exptl_crystal_face_index_k
  _exptl_crystal_face_index_l
  _exptl_crystal_face_perp_dist
 2 -1 0 0.0194
 -2 1 0 0.0154
 0 2 -1 0.0662
 0 -2 1 0.0719
 -2 1 7 0.0478
 2 -1 -7 0.0302
 5 0 0 0.0216
 -6 0 0 0.0289

_exptl_crystal_size_max            0.156
_exptl_crystal_size_mid            0.085
_exptl_crystal_size_min            0.035
loop_
  _exptl_oxdiff_crystal_face_indexfrac_h
  _exptl_oxdiff_crystal_face_indexfrac_k
  _exptl_oxdiff_crystal_face_indexfrac_l
  _exptl_oxdiff_crystal_face_x
  _exptl_oxdiff_crystal_face_y
  _exptl_oxdiff_crystal_face_z
 1.9949 -1.0154 0.0104 -0.1048 0.3248 -0.1261
 -1.9949 1.0154 -0.0104 0.1048 -0.3248 0.1261
 0.0159 1.9970 -1.0151 -0.2340 -0.1606 0.1097
 -0.0159 -1.9970 1.0151 0.2340 0.1606 -0.1097
 -1.9814 0.7249 6.8979 0.2387 0.2520 0.9378
 2.0228 -1.0004 -6.7467 -0.2109 -0.2228 -0.9518
 5.4979 -0.1860 0.4386 -0.5666 0.8239 0.0090
 -5.6282 0.3683 -0.1080 0.5658 -0.8228 0.0534

_exptl_transmission_factor_max     ?
_exptl_transmission_factor_min     ?
_diffrn_reflns_av_R_equivalents    0.0474
_diffrn_reflns_av_unetI/netI       0.0474
_diffrn_reflns_Laue_measured_fraction_full  0.993
_diffrn_reflns_Laue_measured_fraction_max  0.968
_diffrn_reflns_limit_h_max         11
_diffrn_reflns_limit_h_min         -11
_diffrn_reflns_limit_k_max         12
_diffrn_reflns_limit_k_min         -12
_diffrn_reflns_limit_l_max         14
_diffrn_reflns_limit_l_min         -14
_diffrn_reflns_number              11592
_diffrn_reflns_point_group_measured_fraction_full  0.993
_diffrn_reflns_point_group_measured_fraction_max  0.968
_diffrn_reflns_theta_full          67.684
_diffrn_reflns_theta_max           77.152
_diffrn_reflns_theta_min           4.244
_diffrn_ambient_environment        N~2~
_diffrn_ambient_temperature        100.01(10)
_diffrn_detector                   'Hybrid Pixel Array Detector'
_diffrn_detector_area_resol_mean   10.0000
_diffrn_detector_type              HyPix
_diffrn_measured_fraction_theta_full  0.993
_diffrn_measured_fraction_theta_max  0.968
_diffrn_measurement_details
;
List of Runs (angles in degrees, time in seconds):

  # Type    Start    End  Width  t~exp~   \w     \q     \k     \f   Frames
--------------------------------------------------------------------------
  1  \w     36.00  75.00   0.50    0.06    --   47.95  45.00 -25.00   78
  2  \w     77.00 117.00   0.50    0.06    --   47.95  45.00 -25.00   80
  3  \w     95.00 156.00   0.50    0.25    --  107.75  45.00 -25.00  122
  4  \w    146.00 178.00   0.50    0.25    --  107.75  45.00  30.00   64
  5  \w    116.00 174.00   0.50    0.25    --  107.75  15.00 120.00  116
  6  \w     97.00 139.00   0.50    0.25    --  107.75  45.00  30.00   84
  7  \w    104.00 178.00   0.50    0.25    --  107.75  77.00 -30.00  148
  8  \w    120.00 171.00   0.50    0.25    --  107.75  15.00-150.00  102
  9  \w     95.00 160.00   0.50    0.25    --  107.75 125.00 -90.00  130
 10  \w     96.00 178.00   0.50    0.25    --  107.75  45.00  60.00  164
 11  \w     75.00 106.00   0.50    0.25    --  107.75 -94.00 -90.00   62
 12  \w     80.00 105.00   0.50    0.25    --  107.75 -94.00-120.00   50
 13  \w     73.00 104.00   0.50    0.25    --  107.75 -94.00-150.00   62
 14  \w     68.00 107.00   0.50    0.25    --  107.75-107.00-169.37   78
 15  \w     37.00  64.00   0.50    0.25    --  107.75 -61.00 -30.00   54
 16  \w     47.00 125.00   0.50    0.25    --  107.75 -77.00 -30.00  156
 17  \w     65.00 105.00   0.50    0.25    --  107.75 -94.00  60.00   80
 18  \w     40.00  93.00   0.50    0.06    --   47.95-125.00 120.00  106
 19  \w     40.00 104.00   0.50    0.25    --  107.75 -94.00  90.00  128
 20  \w     41.00 103.00   0.50    0.25    --  107.75 -94.00 120.00  124
 21  \w     36.00  62.00   0.50    0.25    --  107.75 -94.00  60.00   52
 22  \w     35.00 102.00   0.50    0.25    --  107.75 -94.00 150.00  134
 23  \w     36.00 106.00   0.50    0.25    --  107.75 -94.00 -60.00  140
 24  \w     37.00  71.00   0.50    0.25    --  107.75 -94.00-150.00   68
 25  \w     35.00  67.00   0.50    0.25    --  107.75 -61.00 -90.00   64
 26  \w     36.00  71.00   0.50    0.25    --  107.75 -94.00 -90.00   70
 27  \w     36.00  76.00   0.50    0.25    --  107.75 -94.00-120.00   80
 28  \w     39.00  64.00   0.50    0.25    --  107.75-107.00-169.37   50
 29  \w    -23.00  44.00   0.50    0.06    --   47.95 -45.00-175.00  134
 30  \w    -17.00  25.00   0.50    0.06    --  -47.95  19.00 -60.00   84
 31  \w    -48.00 -14.00   0.50    0.25    --  -86.25  45.00 -25.00   68
 32  \w    -51.00   7.00   0.50    0.06    --  -47.95  45.00 -25.00  116
 33  \w    -73.00 -22.00   0.50    0.25    --  -86.25 125.00  30.00  102
 34  \w   -119.00 -58.00   0.50    0.06    --  -47.95 -45.00-175.00  122
 35  \w   -117.00 -92.00   0.50    0.06    --  -47.95-125.00 -30.00   50
 36  \w   -158.00 -95.00   0.50    0.25    --  -86.25 -45.00-175.00  126
 37  \w   -120.00 -93.00   0.50    0.06    --  -47.95-125.00 120.00   54
;
_diffrn_measurement_device         'four-circle diffractometer'
_diffrn_measurement_device_type    'XtaLAB Synergy, Dualflex, HyPix'
_diffrn_measurement_method         '\w scans'
_diffrn_orient_matrix_type        
 'CrysAlisPro convention (1999,Acta A55,543-557)'
_diffrn_orient_matrix_UB_11        -0.1079339000
_diffrn_orient_matrix_UB_12        -0.1086625000
_diffrn_orient_matrix_UB_13        0.0150194000
_diffrn_orient_matrix_UB_21        0.1420019000
_diffrn_orient_matrix_UB_22        -0.0401020000
_diffrn_orient_matrix_UB_23        0.0815411000
_diffrn_orient_matrix_UB_31        -0.0041739000
_diffrn_orient_matrix_UB_32        0.1171954000
_diffrn_orient_matrix_UB_33        0.1224419000
_diffrn_radiation_monochromator    mirror
_diffrn_radiation_probe            x-ray
_diffrn_radiation_type             'Cu K\a'
_diffrn_radiation_wavelength       1.54184
_diffrn_source                     'micro-focus sealed X-ray tube'
_diffrn_source_type                'PhotonJet (Cu) X-ray Source'
_reflns_Friedel_coverage           0.000
_reflns_Friedel_fraction_full      .
_reflns_Friedel_fraction_max       .
_reflns_number_gt                  3783
_reflns_number_total               4003
_reflns_odcompleteness_completeness  98.07
_reflns_odcompleteness_iscentric   1
_reflns_odcompleteness_theta       75.12
_reflns_special_details
;
 Reflections were merged by SHELXL according to the crystal
 class for the calculation of statistics and refinement.
 
 _reflns_Friedel_fraction is defined as the number of unique
 Friedel pairs measured divided by the number that would be
 possible theoretically, ignoring centric projections and
 systematic absences.
;
_reflns_threshold_expression       'I > 2\s(I)'
_computing_cell_refinement         'CrysAlisPro 1.171.40.67a (Rigaku OD, 2019)'
_computing_data_collection         'CrysAlisPro 1.171.40.67a (Rigaku OD, 2019)'
_computing_data_reduction          'CrysAlisPro 1.171.40.67a (Rigaku OD, 2019)'
_computing_molecular_graphics      'Olex2 1.3 (Dolomanov et al., 2009)'
_computing_publication_material    'Olex2 1.3 (Dolomanov et al., 2009)'
_computing_structure_refinement    'SHELXL 2018/3 (Sheldrick, 2015)'
_computing_structure_solution      'SHELXT  (Sheldrick, 2015)'
_refine_diff_density_max           6.328
_refine_diff_density_min           -0.947
_refine_diff_density_rms           0.160
_refine_ls_extinction_coef         .
_refine_ls_extinction_method       none
_refine_ls_goodness_of_fit_ref     1.042
_refine_ls_hydrogen_treatment      constr
_refine_ls_matrix_type             full
_refine_ls_number_parameters       263
_refine_ls_number_reflns           4003
_refine_ls_number_restraints       6
_refine_ls_R_factor_all            0.0842
_refine_ls_R_factor_gt             0.0814
_refine_ls_restrained_S_all        1.041
_refine_ls_shift/su_max            0.001
_refine_ls_shift/su_mean           0.000
_refine_ls_structure_factor_coef   Fsqd
_refine_ls_weighting_details      
 'w=1/[\s^2^(Fo^2^)+(0.0792P)^2^+8.7914P] where P=(Fo^2^+2Fc^2^)/3'
_refine_ls_weighting_scheme        calc
_refine_ls_wR_factor_gt            0.1913
_refine_ls_wR_factor_ref           0.1934
_refine_special_details            ?
_olex2_refinement_description
;
1. Rigid body (RIGU) restrains
 C8, C13
 with sigma for 1-2 distances of 0.004 and sigma for 1-3 distances of 0.004
 C12, C13
 with sigma for 1-2 distances of 0.004 and sigma for 1-3 distances of 0.004
2.a Secondary CH2 refined with riding coordinates:
 C20(H20A,H20B), C23(H23A,H23B), C22(H22A,H22B), C21(H21A,H21B)
2.b Aromatic/amide H refined with riding coordinates:
 C18(H18), C9(H9), C12(H12), C10(H10), C13(H13), C16(H16), C6(H6), C19(H19),
 C3(H3), C5(H5), C15(H15), C4(H4)
2.c Idealised Me refined as rotating group:
 C14(H14A,H14B,H14C)
;
_atom_sites_solution_hydrogens     geom
_atom_sites_solution_primary       dual
_atom_sites_solution_secondary     ?
loop_
  _atom_site_label
  _atom_site_type_symbol
  _atom_site_fract_x
  _atom_site_fract_y
  _atom_site_fract_z
  _atom_site_U_iso_or_equiv
  _atom_site_adp_type
  _atom_site_occupancy
  _atom_site_site_symmetry_order
  _atom_site_calc_flag
  _atom_site_refinement_flags_posn
  _atom_site_refinement_flags_adp
  _atom_site_refinement_flags_occupancy
  _atom_site_disorder_assembly
  _atom_site_disorder_group
 Se1 Se 0.41567(6) 0.20308(6) 0.43099(5) 0.0220(2) Uani 1 1 d . . . . .
 O1 O 0.7135(5) -0.0493(5) 0.3318(4) 0.0322(9) Uani 1 1 d . . . . .
 N1 N 0.6026(5) 0.1158(5) 0.4529(4) 0.0221(9) Uani 1 1 d . . . . .
 O2 O -0.5152(5) 0.5234(5) 0.1712(4) 0.0300(9) Uani 1 1 d . . . . .
 N2 N 0.1823(5) 0.2992(5) 0.3820(4) 0.0253(9) Uani 1 1 d . . . . .
 N3 N -0.2288(6) 0.4600(5) 0.2953(5) 0.0309(11) Uani 1 1 d . . . . .
 C8 C 0.7128(6) 0.1556(5) 0.5754(5) 0.0240(11) Uani 1 1 d . . . . .
 C17 C -0.0951(6) 0.4100(5) 0.3267(5) 0.0210(10) Uani 1 1 d . . . . .
 C18 C 0.0457(6) 0.4775(6) 0.3312(5) 0.0216(10) Uani 1 1 d . . . . .
 H18 H 0.049645 0.561133 0.315937 0.026 Uiso 1 1 calc R U . . .
 C9 C 0.8576(7) 0.1143(6) 0.5983(6) 0.0254(11) Uani 1 1 d . . . . .
 H9 H 0.883209 0.057052 0.529837 0.031 Uiso 1 1 calc R U . . .
 C12 C 0.7884(7) 0.2884(6) 0.8045(6) 0.0264(11) Uani 1 1 d . . . . .
 H12 H 0.764040 0.347174 0.872991 0.032 Uiso 1 1 calc R U . . .
 C1 C 0.3590(7) 0.0875(6) 0.2529(5) 0.0244(11) Uani 1 1 d . . . . .
 C20 C -0.3735(6) 0.4015(6) 0.3002(6) 0.0286(12) Uani 1 1 d . . . . .
 H20A H -0.388007 0.462903 0.377483 0.034 Uiso 1 1 calc R U . . .
 H20B H -0.368730 0.307466 0.302838 0.034 Uiso 1 1 calc R U . . .
 C10 C 0.9653(7) 0.1599(6) 0.7257(6) 0.0273(11) Uani 1 1 d . . . . .
 H10 H 1.059773 0.129462 0.739755 0.033 Uiso 1 1 calc R U . . .
 C13 C 0.6796(8) 0.2436(6) 0.6812(6) 0.0294(12) Uani 1 1 d . . . . .
 H13 H 0.584105 0.272090 0.668680 0.035 Uiso 1 1 calc R U . . .
 C16 C -0.0866(6) 0.2860(6) 0.3557(5) 0.0239(11) Uani 1 1 d . . . . .
 H16 H -0.173675 0.238126 0.357854 0.029 Uiso 1 1 calc R U . . .
 C6 C 0.2292(7) 0.0796(6) 0.1520(5) 0.0280(12) Uani 1 1 d . . . . .
 H6 H 0.154877 0.134274 0.166755 0.034 Uiso 1 1 calc R U . . .
 C19 C 0.1764(6) 0.4198(6) 0.3582(5) 0.0230(10) Uani 1 1 d . . . . .
 H19 H 0.266979 0.466822 0.360313 0.028 Uiso 1 1 calc R U . . .
 C7 C 0.6082(6) 0.0195(6) 0.3420(5) 0.0259(11) Uani 1 1 d . . . . .
 C2 C 0.4731(6) 0.0066(6) 0.2306(5) 0.0245(11) Uani 1 1 d . . . . .
 C11 C 0.9330(7) 0.2485(6) 0.8292(6) 0.0279(12) Uani 1 1 d . . . . .
 C3 C 0.4534(7) -0.0831(6) 0.1066(6) 0.0293(12) Uani 1 1 d . . . . .
 H3 H 0.528020 -0.137089 0.091296 0.035 Uiso 1 1 calc R U . . .
 C5 C 0.2114(7) -0.0106(6) 0.0290(6) 0.0295(12) Uani 1 1 d . . . . .
 H5 H 0.123652 -0.016693 -0.039035 0.035 Uiso 1 1 calc R U . . .
 C15 C 0.0503(7) 0.2365(6) 0.3806(5) 0.0257(11) Uani 1 1 d . . . . .
 H15 H 0.051212 0.153893 0.397743 0.031 Uiso 1 1 calc R U . . .
 C23 C -0.2369(7) 0.5957(6) 0.2790(6) 0.0318(13) Uani 1 1 d . . . . .
 H23A H -0.143158 0.628114 0.268675 0.038 Uiso 1 1 calc R U . . .
 H23B H -0.244966 0.667454 0.354838 0.038 Uiso 1 1 calc R U . . .
 C22 C -0.3745(7) 0.5777(7) 0.1637(6) 0.0336(13) Uani 1 1 d . . . . .
 H22A H -0.381136 0.669383 0.156086 0.040 Uiso 1 1 calc R U . . .
 H22B H -0.361105 0.512636 0.087254 0.040 Uiso 1 1 calc R U . . .
 C21 C -0.5079(7) 0.3908(6) 0.1840(6) 0.0294(12) Uani 1 1 d . . . . .
 H21A H -0.498059 0.321612 0.107666 0.035 Uiso 1 1 calc R U . . .
 H21B H -0.603526 0.356509 0.190654 0.035 Uiso 1 1 calc R U . . .
 C4 C 0.3212(8) -0.0926(6) 0.0042(6) 0.0323(13) Uani 1 1 d . . . . .
 H4 H 0.307049 -0.153002 -0.079285 0.039 Uiso 1 1 calc R U . . .
 C14 C 1.0496(8) 0.2993(7) 0.9633(6) 0.0366(14) Uani 1 1 d . . . . .
 H14A H 1.080629 0.401417 0.996870 0.055 Uiso 1 1 calc R U . . .
 H14B H 1.138436 0.255543 0.962072 0.055 Uiso 1 1 calc R U . . .
 H14C H 1.004094 0.273592 1.016676 0.055 Uiso 1 1 calc R U . . .

loop_
  _atom_site_aniso_label
  _atom_site_aniso_U_11
  _atom_site_aniso_U_22
  _atom_site_aniso_U_33
  _atom_site_aniso_U_23
  _atom_site_aniso_U_13
  _atom_site_aniso_U_12
 Se1 0.0234(3) 0.0185(3) 0.0225(3) 0.0059(2) 0.0083(2) 0.0039(2)
 O1 0.031(2) 0.032(2) 0.030(2) 0.0055(17) 0.0125(18) 0.0142(17)
 N1 0.024(2) 0.016(2) 0.029(2) 0.0078(18) 0.0150(19) 0.0081(17)
 O2 0.025(2) 0.033(2) 0.029(2) 0.0120(17) 0.0060(16) 0.0091(16)
 N2 0.024(2) 0.024(2) 0.027(2) 0.0094(19) 0.0083(19) 0.0059(18)
 N3 0.022(2) 0.026(2) 0.052(3) 0.023(2) 0.013(2) 0.0040(19)
 C8 0.028(3) 0.016(2) 0.028(3) 0.008(2) 0.011(2) 0.0014(19)
 C17 0.022(2) 0.018(2) 0.021(2) 0.0060(19) 0.006(2) 0.0015(19)
 C18 0.024(3) 0.019(2) 0.023(2) 0.010(2) 0.010(2) 0.003(2)
 C9 0.031(3) 0.018(2) 0.033(3) 0.010(2) 0.016(2) 0.006(2)
 C12 0.027(3) 0.020(2) 0.035(3) 0.013(2) 0.014(2) 0.003(2)
 C1 0.029(3) 0.018(2) 0.031(3) 0.010(2) 0.016(2) 0.005(2)
 C20 0.020(3) 0.030(3) 0.040(3) 0.018(3) 0.011(2) 0.002(2)
 C10 0.028(3) 0.020(3) 0.034(3) 0.011(2) 0.011(2) 0.004(2)
 C13 0.042(3) 0.019(2) 0.032(3) 0.006(2) 0.024(2) 0.005(2)
 C16 0.026(3) 0.019(2) 0.026(3) 0.008(2) 0.008(2) 0.003(2)
 C6 0.029(3) 0.023(3) 0.026(3) 0.005(2) 0.007(2) 0.002(2)
 C19 0.021(2) 0.022(2) 0.022(2) 0.005(2) 0.007(2) 0.001(2)
 C7 0.026(3) 0.022(3) 0.027(3) 0.008(2) 0.007(2) 0.000(2)
 C2 0.026(3) 0.021(2) 0.028(3) 0.009(2) 0.011(2) 0.004(2)
 C11 0.032(3) 0.018(2) 0.030(3) 0.009(2) 0.007(2) 0.000(2)
 C3 0.039(3) 0.022(3) 0.029(3) 0.008(2) 0.017(3) 0.009(2)
 C5 0.031(3) 0.027(3) 0.026(3) 0.009(2) 0.007(2) 0.002(2)
 C15 0.033(3) 0.019(2) 0.028(3) 0.011(2) 0.012(2) 0.007(2)
 C23 0.026(3) 0.026(3) 0.047(4) 0.022(3) 0.010(3) 0.006(2)
 C22 0.037(3) 0.039(3) 0.034(3) 0.020(3) 0.017(3) 0.016(3)
 C21 0.026(3) 0.025(3) 0.030(3) 0.003(2) 0.010(2) 0.004(2)
 C4 0.044(3) 0.027(3) 0.023(3) 0.005(2) 0.014(3) 0.003(2)
 C14 0.040(3) 0.029(3) 0.033(3) 0.013(3) 0.002(3) 0.001(3)

_geom_special_details
;
 All esds (except the esd in the dihedral angle between two l.s. planes)
 are estimated using the full covariance matrix.  The cell esds are taken
 into account individually in the estimation of esds in distances, angles
 and torsion angles; correlations between esds in cell parameters are only
 used when they are defined by crystal symmetry.  An approximate (isotropic)
 treatment of cell esds is used for estimating esds involving l.s. planes.
;
loop_
  _geom_bond_atom_site_label_1
  _geom_bond_atom_site_label_2
  _geom_bond_distance
  _geom_bond_site_symmetry_2
  _geom_bond_publ_flag
 Se1 N1 1.977(4) . ?
 Se1 C1 1.908(6) . ?
 O1 C7 1.244(7) . ?
 N1 C8 1.391(7) . ?
 N1 C7 1.360(7) . ?
 O2 C22 1.427(8) . ?
 O2 C21 1.411(7) . ?
 N2 C19 1.350(7) . ?
 N2 C15 1.339(7) . ?
 N3 C17 1.358(7) . ?
 N3 C20 1.461(7) . ?
 N3 C23 1.461(7) . ?
 C8 C9 1.402(8) . ?
 C8 C13 1.404(8) . ?
 C17 C18 1.415(7) . ?
 C17 C16 1.418(7) . ?
 C18 H18 0.9300 . ?
 C18 C19 1.372(8) . ?
 C9 H9 0.9300 . ?
 C9 C10 1.419(8) . ?
 C12 H12 0.9300 . ?
 C12 C13 1.388(9) . ?
 C12 C11 1.394(8) . ?
 C1 C6 1.382(8) . ?
 C1 C2 1.410(8) . ?
 C20 H20A 0.9700 . ?
 C20 H20B 0.9700 . ?
 C20 C21 1.507(8) . ?
 C10 H10 0.9300 . ?
 C10 C11 1.381(8) . ?
 C13 H13 0.9300 . ?
 C16 H16 0.9300 . ?
 C16 C15 1.374(8) . ?
 C6 H6 0.9300 . ?
 C6 C5 1.381(8) . ?
 C19 H19 0.9300 . ?
 C7 C2 1.469(8) . ?
 C2 C3 1.384(8) . ?
 C11 C14 1.502(8) . ?
 C3 H3 0.9300 . ?
 C3 C4 1.400(9) . ?
 C5 H5 0.9300 . ?
 C5 C4 1.390(9) . ?
 C15 H15 0.9300 . ?
 C23 H23A 0.9700 . ?
 C23 H23B 0.9700 . ?
 C23 C22 1.497(9) . ?
 C22 H22A 0.9700 . ?
 C22 H22B 0.9700 . ?
 C21 H21A 0.9700 . ?
 C21 H21B 0.9700 . ?
 C4 H4 0.9300 . ?
 C14 H14A 0.9600 . ?
 C14 H14B 0.9600 . ?
 C14 H14C 0.9600 . ?

loop_
  _geom_angle_atom_site_label_1
  _geom_angle_atom_site_label_2
  _geom_angle_atom_site_label_3
  _geom_angle
  _geom_angle_site_symmetry_1
  _geom_angle_site_symmetry_3
  _geom_angle_publ_flag
 C1 Se1 N1 85.1(2) . . ?
 C8 N1 Se1 119.1(3) . . ?
 C7 N1 Se1 114.3(4) . . ?
 C7 N1 C8 126.6(5) . . ?
 C21 O2 C22 110.4(4) . . ?
 C15 N2 C19 115.9(5) . . ?
 C17 N3 C20 124.1(5) . . ?
 C17 N3 C23 123.6(5) . . ?
 C20 N3 C23 111.2(5) . . ?
 N1 C8 C9 123.0(5) . . ?
 N1 C8 C13 118.9(5) . . ?
 C9 C8 C13 118.2(5) . . ?
 N3 C17 C18 122.1(5) . . ?
 N3 C17 C16 122.7(5) . . ?
 C18 C17 C16 115.2(5) . . ?
 C17 C18 H18 120.0 . . ?
 C19 C18 C17 120.1(5) . . ?
 C19 C18 H18 120.0 . . ?
 C8 C9 H9 120.0 . . ?
 C8 C9 C10 120.1(5) . . ?
 C10 C9 H9 120.0 . . ?
 C13 C12 H12 118.8 . . ?
 C13 C12 C11 122.4(5) . . ?
 C11 C12 H12 118.8 . . ?
 C6 C1 Se1 128.3(4) . . ?
 C6 C1 C2 120.6(5) . . ?
 C2 C1 Se1 111.0(4) . . ?
 N3 C20 H20A 109.6 . . ?
 N3 C20 H20B 109.6 . . ?
 N3 C20 C21 110.1(5) . . ?
 H20A C20 H20B 108.2 . . ?
 C21 C20 H20A 109.6 . . ?
 C21 C20 H20B 109.6 . . ?
 C9 C10 H10 119.2 . . ?
 C11 C10 C9 121.5(5) . . ?
 C11 C10 H10 119.2 . . ?
 C8 C13 H13 119.8 . . ?
 C12 C13 C8 120.4(6) . . ?
 C12 C13 H13 119.8 . . ?
 C17 C16 H16 119.9 . . ?
 C15 C16 C17 120.1(5) . . ?
 C15 C16 H16 119.9 . . ?
 C1 C6 H6 120.5 . . ?
 C5 C6 C1 119.0(6) . . ?
 C5 C6 H6 120.5 . . ?
 N2 C19 C18 124.3(5) . . ?
 N2 C19 H19 117.8 . . ?
 C18 C19 H19 117.8 . . ?
 O1 C7 N1 126.0(5) . . ?
 O1 C7 C2 122.5(5) . . ?
 N1 C7 C2 111.5(5) . . ?
 C1 C2 C7 117.9(5) . . ?
 C3 C2 C1 119.6(5) . . ?
 C3 C2 C7 122.5(5) . . ?
 C12 C11 C14 121.4(6) . . ?
 C10 C11 C12 117.5(5) . . ?
 C10 C11 C14 121.1(6) . . ?
 C2 C3 H3 120.0 . . ?
 C2 C3 C4 120.0(5) . . ?
 C4 C3 H3 120.0 . . ?
 C6 C5 H5 119.2 . . ?
 C6 C5 C4 121.7(6) . . ?
 C4 C5 H5 119.2 . . ?
 N2 C15 C16 124.4(5) . . ?
 N2 C15 H15 117.8 . . ?
 C16 C15 H15 117.8 . . ?
 N3 C23 H23A 109.6 . . ?
 N3 C23 H23B 109.6 . . ?
 N3 C23 C22 110.1(5) . . ?
 H23A C23 H23B 108.2 . . ?
 C22 C23 H23A 109.6 . . ?
 C22 C23 H23B 109.6 . . ?
 O2 C22 C23 111.9(5) . . ?
 O2 C22 H22A 109.2 . . ?
 O2 C22 H22B 109.2 . . ?
 C23 C22 H22A 109.2 . . ?
 C23 C22 H22B 109.2 . . ?
 H22A C22 H22B 107.9 . . ?
 O2 C21 C20 112.1(5) . . ?
 O2 C21 H21A 109.2 . . ?
 O2 C21 H21B 109.2 . . ?
 C20 C21 H21A 109.2 . . ?
 C20 C21 H21B 109.2 . . ?
 H21A C21 H21B 107.9 . . ?
 C3 C4 H4 120.4 . . ?
 C5 C4 C3 119.1(5) . . ?
 C5 C4 H4 120.4 . . ?
 C11 C14 H14A 109.5 . . ?
 C11 C14 H14B 109.5 . . ?
 C11 C14 H14C 109.5 . . ?
 H14A C14 H14B 109.5 . . ?
 H14A C14 H14C 109.5 . . ?
 H14B C14 H14C 109.5 . . ?

loop_
  _geom_torsion_atom_site_label_1
  _geom_torsion_atom_site_label_2
  _geom_torsion_atom_site_label_3
  _geom_torsion_atom_site_label_4
  _geom_torsion
  _geom_torsion_site_symmetry_1
  _geom_torsion_site_symmetry_2
  _geom_torsion_site_symmetry_3
  _geom_torsion_site_symmetry_4
  _geom_torsion_publ_flag
 Se1 N1 C8 C9 -171.2(4) . . . . ?
 Se1 N1 C8 C13 7.3(6) . . . . ?
 Se1 N1 C7 O1 -179.7(5) . . . . ?
 Se1 N1 C7 C2 1.5(6) . . . . ?
 Se1 C1 C6 C5 179.1(4) . . . . ?
 Se1 C1 C2 C7 1.8(6) . . . . ?
 Se1 C1 C2 C3 -179.4(4) . . . . ?
 O1 C7 C2 C1 178.9(5) . . . . ?
 O1 C7 C2 C3 0.1(9) . . . . ?
 N1 C8 C9 C10 179.4(5) . . . . ?
 N1 C8 C13 C12 -178.3(5) . . . . ?
 N1 C7 C2 C1 -2.2(7) . . . . ?
 N1 C7 C2 C3 179.0(5) . . . . ?
 N3 C17 C18 C19 -177.3(5) . . . . ?
 N3 C17 C16 C15 176.8(5) . . . . ?
 N3 C20 C21 O2 -56.0(6) . . . . ?
 N3 C23 C22 O2 56.5(7) . . . . ?
 C8 N1 C7 O1 0.0(9) . . . . ?
 C8 N1 C7 C2 -178.8(5) . . . . ?
 C8 C9 C10 C11 -1.9(8) . . . . ?
 C17 N3 C20 C21 -138.0(6) . . . . ?
 C17 N3 C23 C22 137.4(6) . . . . ?
 C17 C18 C19 N2 -0.1(8) . . . . ?
 C17 C16 C15 N2 1.2(9) . . . . ?
 C18 C17 C16 C15 -2.5(8) . . . . ?
 C9 C8 C13 C12 0.3(8) . . . . ?
 C9 C10 C11 C12 1.8(8) . . . . ?
 C9 C10 C11 C14 -178.3(5) . . . . ?
 C1 C6 C5 C4 -0.5(9) . . . . ?
 C1 C2 C3 C4 0.3(8) . . . . ?
 C20 N3 C17 C18 -174.4(5) . . . . ?
 C20 N3 C17 C16 6.3(9) . . . . ?
 C20 N3 C23 C22 -54.4(7) . . . . ?
 C13 C8 C9 C10 0.8(8) . . . . ?
 C13 C12 C11 C10 -0.7(8) . . . . ?
 C13 C12 C11 C14 179.4(5) . . . . ?
 C16 C17 C18 C19 2.0(7) . . . . ?
 C6 C1 C2 C7 -179.8(5) . . . . ?
 C6 C1 C2 C3 -1.0(8) . . . . ?
 C6 C5 C4 C3 -0.2(9) . . . . ?
 C19 N2 C15 C16 0.8(8) . . . . ?
 C7 N1 C8 C9 9.1(8) . . . . ?
 C7 N1 C8 C13 -172.3(5) . . . . ?
 C7 C2 C3 C4 179.1(5) . . . . ?
 C2 C1 C6 C5 1.1(8) . . . . ?
 C2 C3 C4 C5 0.3(9) . . . . ?
 C11 C12 C13 C8 -0.4(8) . . . . ?
 C15 N2 C19 C18 -1.3(8) . . . . ?
 C23 N3 C17 C18 -7.7(9) . . . . ?
 C23 N3 C17 C16 173.0(6) . . . . ?
 C23 N3 C20 C21 53.9(7) . . . . ?
 C22 O2 C21 C20 57.8(6) . . . . ?
 C21 O2 C22 C23 -58.2(6) . . . . ?

_shelx_res_file
;
TITL tf-34_a.res in P-1
    tf-34.res
    created by SHELXL-2018/3 at 16:50:59 on 26-Feb-2020
REM Old TITL tf-34 in P-1
REM SHELXT solution in P-1: R1 0.086, Rweak 0.013, Alpha 0.072
REM <I/s> 0.000 for 0 systematic absences, Orientation as input
REM Formula found by SHELXT: C23 N5 O Se
CELL 1.54184 9.263421 10.160063 11.907609 110.4394 108.3469 93.315
ZERR 2 0.000344 0.000268 0.000384 0.0027 0.0032 0.0026
LATT 1
SFAC C H N O Se
UNIT 46 46 6 4 2
RIGU C8 C13
RIGU C12 C13

L.S. 10
PLAN  30
CONF
BOND
list 4
fmap 2 53
MORE -1
ACTA
BOND $H
REM <olex2.extras>
REM <HklSrc "%.\\tf-34.hkl">
REM </olex2.extras>

WGHT    0.079200    8.791400
FVAR       5.18003
SE1   5    0.415672    0.203081    0.430990    11.00000    0.02342    0.01850 =
         0.02250    0.00594    0.00835    0.00389
O1    4    0.713480   -0.049273    0.331826    11.00000    0.03095    0.03206 =
         0.03030    0.00555    0.01250    0.01416
N1    3    0.602644    0.115754    0.452945    11.00000    0.02429    0.01643 =
         0.02930    0.00783    0.01496    0.00811
O2    4   -0.515212    0.523388    0.171214    11.00000    0.02511    0.03334 =
         0.02915    0.01205    0.00600    0.00906
N2    3    0.182284    0.299226    0.381988    11.00000    0.02424    0.02382 =
         0.02695    0.00942    0.00835    0.00588
N3    3   -0.228753    0.459960    0.295348    11.00000    0.02175    0.02596 =
         0.05219    0.02340    0.01337    0.00401
C8    1    0.712789    0.155575    0.575448    11.00000    0.02780    0.01625 =
         0.02795    0.00818    0.01082    0.00139
C17   1   -0.095115    0.409959    0.326667    11.00000    0.02198    0.01759 =
         0.02075    0.00604    0.00625    0.00154
C18   1    0.045685    0.477523    0.331240    11.00000    0.02433    0.01916 =
         0.02330    0.00979    0.00951    0.00279
AFIX  43
H18   2    0.049645    0.561133    0.315937    11.00000   -1.20000
AFIX   0

C9    1    0.857637    0.114337    0.598258    11.00000    0.03060    0.01764 =
         0.03251    0.01025    0.01626    0.00596
AFIX  43
H9    2    0.883209    0.057052    0.529837    11.00000   -1.20000
AFIX   0
C12   1    0.788428    0.288403    0.804456    11.00000    0.02676    0.02037 =
         0.03528    0.01260    0.01371    0.00281
AFIX  43
H12   2    0.764040    0.347174    0.872991    11.00000   -1.20000
AFIX   0
C1    1    0.359040    0.087492    0.252918    11.00000    0.02906    0.01783 =
         0.03124    0.01027    0.01606    0.00530

C20   1   -0.373455    0.401516    0.300204    11.00000    0.01989    0.03031 =
         0.03952    0.01809    0.01109    0.00162
AFIX  23
H20A  2   -0.388007    0.462903    0.377483    11.00000   -1.20000
H20B  2   -0.368730    0.307466    0.302838    11.00000   -1.20000
AFIX   0

C10   1    0.965299    0.159914    0.725653    11.00000    0.02812    0.02031 =
         0.03359    0.01091    0.01092    0.00409
AFIX  43
H10   2    1.059773    0.129462    0.739755    11.00000   -1.20000
AFIX   0
C13   1    0.679585    0.243615    0.681237    11.00000    0.04154    0.01926 =
         0.03214    0.00634    0.02355    0.00477
AFIX  43
H13   2    0.584105    0.272090    0.668680    11.00000   -1.20000
AFIX   0

C16   1   -0.086562    0.286006    0.355694    11.00000    0.02612    0.01855 =
         0.02579    0.00810    0.00844    0.00282
AFIX  43
H16   2   -0.173675    0.238126    0.357854    11.00000   -1.20000
AFIX   0

C6    1    0.229169    0.079621    0.152021    11.00000    0.02861    0.02302 =
         0.02633    0.00534    0.00736    0.00185
AFIX  43
H6    2    0.154877    0.134274    0.166755    11.00000   -1.20000
AFIX   0

C19   1    0.176420    0.419802    0.358235    11.00000    0.02095    0.02186 =
         0.02242    0.00543    0.00709    0.00074
AFIX  43
H19   2    0.266979    0.466822    0.360313    11.00000   -1.20000
AFIX   0

C7    1    0.608244    0.019469    0.342028    11.00000    0.02562    0.02192 =
         0.02677    0.00830    0.00711    0.00001
C2    1    0.473120    0.006597    0.230606    11.00000    0.02625    0.02065 =
         0.02753    0.00939    0.01102    0.00366
C11   1    0.932978    0.248469    0.829182    11.00000    0.03246    0.01804 =
         0.02961    0.00902    0.00745    0.00007
C3    1    0.453418   -0.083111    0.106608    11.00000    0.03914    0.02220 =
         0.02907    0.00808    0.01716    0.00861
AFIX  43
H3    2    0.528020   -0.137089    0.091296    11.00000   -1.20000
AFIX   0
C5    1    0.211358   -0.010623    0.028980    11.00000    0.03086    0.02693 =
         0.02633    0.00905    0.00661    0.00230
AFIX  43
H5    2    0.123652   -0.016693   -0.039035    11.00000   -1.20000
AFIX   0

C15   1    0.050265    0.236495    0.380647    11.00000    0.03347    0.01850 =
         0.02787    0.01068    0.01211    0.00723
AFIX  43
H15   2    0.051212    0.153893    0.397743    11.00000   -1.20000
AFIX   0
C23   1   -0.236928    0.595695    0.279029    11.00000    0.02633    0.02637 =
         0.04711    0.02196    0.00988    0.00622
AFIX  23
H23A  2   -0.143158    0.628114    0.268675    11.00000   -1.20000
H23B  2   -0.244966    0.667454    0.354838    11.00000   -1.20000
AFIX   0
C22   1   -0.374519    0.577723    0.163656    11.00000    0.03741    0.03929 =
         0.03397    0.02037    0.01696    0.01589
AFIX  23
H22A  2   -0.381136    0.669383    0.156086    11.00000   -1.20000
H22B  2   -0.361105    0.512636    0.087254    11.00000   -1.20000
AFIX   0
C21   1   -0.507862    0.390769    0.183968    11.00000    0.02598    0.02542 =
         0.02979    0.00257    0.01021    0.00432
AFIX  23
H21A  2   -0.498059    0.321612    0.107666    11.00000   -1.20000
H21B  2   -0.603526    0.356509    0.190654    11.00000   -1.20000
AFIX   0

C4    1    0.321196   -0.092610    0.004219    11.00000    0.04361    0.02678 =
         0.02316    0.00473    0.01388    0.00301
AFIX  43
H4    2    0.307049   -0.153002   -0.079285    11.00000   -1.20000
AFIX   0
C14   1    1.049556    0.299347    0.963305    11.00000    0.03955    0.02860 =
         0.03290    0.01259    0.00175    0.00144
AFIX 137
H14A  2    1.080629    0.401417    0.996870    11.00000   -1.50000
H14B  2    1.138436    0.255543    0.962072    11.00000   -1.50000
H14C  2    1.004094    0.273592    1.016676    11.00000   -1.50000
AFIX   0
HKLF 4




REM  tf-34_a.res in P-1
REM wR2 = 0.1934, GooF = S = 1.042, Restrained GooF = 1.041 for all data
REM R1 = 0.0814 for 3783 Fo > 4sig(Fo) and 0.0842 for all 4003 data
REM 263 parameters refined using 6 restraints

END

WGHT      0.0792      8.7859

REM Highest difference peak  6.328,  deepest hole -0.947,  1-sigma level  0.160
Q1    1   0.4073  0.1274  0.3363  11.00000  0.05    1.39
Q2    1   0.4641  0.2446  0.5401  11.00000  0.05    0.82
Q3    1   0.5473  0.0605  0.3528  11.00000  0.05    0.74
Q4    1   0.4030  0.6440  0.4788  11.00000  0.05    0.69
Q5    1   0.8632  0.1621  0.6835  11.00000  0.05    0.68
Q6    1   1.0583  0.2354  0.8941  11.00000  0.05    0.66
Q7    1   0.3776 -0.0322  0.1127  11.00000  0.05    0.61
Q8    1   0.6940  0.1997  0.6276  11.00000  0.05    0.59
Q9    1   0.6015 -0.0272  0.2657  11.00000  0.05    0.58
Q10   1   0.9591  0.3161  0.9436  11.00000  0.05    0.57
Q11   1   0.6633  0.1079  0.5019  11.00000  0.05    0.57
Q12   1   0.6341  0.0802  0.4197  11.00000  0.05    0.56
Q13   1   0.4057  0.0455  0.2418  11.00000  0.05    0.52
Q14   1   0.8321  0.3388  0.8991  11.00000  0.05    0.49
Q15   1   1.0346  0.1781  0.7984  11.00000  0.05    0.47
Q16   1  -0.3147  0.5834  0.2240  11.00000  0.05    0.47
Q17   1   0.5359  0.2179  0.4079  11.00000  0.05    0.46
Q18   1   0.2446 -0.0783 -0.0203  11.00000  0.05    0.45
Q19   1  -0.3179  0.4245  0.3411  11.00000  0.05    0.43
Q20   1   0.7877  0.2352  0.7442  11.00000  0.05    0.43
Q21   1   0.7944  0.0953  0.5435  11.00000  0.05    0.42
Q22   1   0.2993  0.1759  0.4624  11.00000  0.05    0.42
Q23   1   0.8638  0.2779  0.8190  11.00000  0.05    0.41
Q24   1  -0.2861  0.4239  0.2872  11.00000  0.05    0.41
Q25   1   0.0005  0.2834  0.4006  11.00000  0.05    0.41
Q26   1   0.5205 -0.0547  0.1589  11.00000  0.05    0.39
Q27   1   0.3028  0.1000  0.3531  11.00000  0.05    0.38
Q28   1   0.5766  0.3591  0.6025  11.00000  0.05    0.37
Q29   1   0.9457  0.2037  0.7756  11.00000  0.05    0.37
Q30   1   0.1728  0.3411  0.3676  11.00000  0.05    0.37
;
_shelx_res_checksum                67692
_shelx_hkl_file
;
   0   0   1 164660. 7596.94  35
   0   0   2 38654.0 2006.32  35
   0   0   3 69371.6 3540.51  35
   0   0  -4 41742.3 2081.01  30
   0   0   4 44605.4 2466.39  35
   0   0   6 1815.97 507.182  18
   0   0   7 39720.6 2722.92  18
   0   0   7 37375.8 1980.40  16
   0   0   7 38403.6 1961.98  21
   0   0   7 36460.3 1976.41  23
   0   0   8 28544.6 2446.75  18
   0   0   8 30987.8 1658.81   9
   0   0   8 31753.8 1741.86  16
   0   0   8 31501.7 1719.48  21
   0   0   9 6858.99 1147.68  18
   0   0   9 8395.73 685.119  16
   0   0   9 8011.70 653.321  20
   0   0   9 8723.77 683.762  21
   0   0  10 5012.66 512.861  16
   0   0  10 4026.94 441.319  20
   0   0  11 819.069 273.098  17
   0   0  11 892.831 235.284  16
   0   0  11 930.368 223.758  20
   0   0  12 6227.37 491.839  16
   0   0  12 5550.91 485.017  17
   0   0  13 3798.99 296.907  17
   0   0  13 3904.67 298.891  19
   0  -1  13 7467.27 518.063  17
   0  -1  13 7622.03 520.936  19
   0  -1  12 9954.92 711.615  17
   0  -1  12 8986.09 698.800  33
   0  -1  12 10491.1 709.588  19
   0  -1  11 21586.2 1270.57  16
   0  -1  11 20276.7 1257.09  33
   0  -1  11 18494.8 1158.67  20
   0  -1  10 3363.28 416.070  16
   0  -1  10 2322.23 795.888  18
   0  -1  10 2673.83 385.013  33
   0  -1  10 2801.39 393.391  21
   0  -1  10 2294.09 332.567  20
   0  -1   9 5321.28 519.697  16
   0  -1   9 4925.02 949.271  18
   0  -1   9 4949.56 501.934  33
   0  -1   9 4868.06 493.075  21
   0  -1   8 1003.21 224.369  16
   0  -1   8 1222.23 503.051  18
   0  -1   8 1412.31 261.131  33
   0  -1   8 1284.49 254.862  21
   0  -1   7 2316.99 284.169  33
   0  -1   6 56839.3 2790.99  33
   0  -1   5 35047.9 2114.78  35
   0   1  -5 31442.6 1768.24  30
   0  -1   5 33726.4 1666.97  33
   0   1  -4 17167.9 1037.77  30
   0  -1   4 19324.9 1243.73  35
   0  -1   3 75196.0 3804.86  35
   0   1  -3 79645.0 3697.69  30
   0   1  -3 75955.1 3590.18  29
   0   1  -2 15456.7 799.254  30
   0   1  -2 12653.0 741.978  29
   0   1  -1 814.785 137.945  30
   0   1  -1 857.506 138.231  29
   0   1   0 15011.5 845.911  18
   0   1   0 17155.7 870.606  37
   0   1   1 20078.7 1093.83  18
   0   1   1 19421.6 1017.20  29
   0   1   2 503087. 23593.2  18
   0   1   2 516307. 23380.5  29
   0   1   3 100741. 3713.47  18
   0  -1  -3 65450.6 3116.98  34
   0   1   4 88372.7 4398.82  18
   0   1   4 81484.1 3906.82  33
   0   1   5 2566.52 536.647  18
   0   1   5 1680.47 217.827  33
   0   1   6 9174.96 1056.66  18
   0   1   6 8788.32 625.305  33
   0   1   7 6829.59 527.666   9
   0   1   7 6800.27 552.600  16
   0   1   7 6894.25 1059.75  18
   0   1   7 6829.13 551.846  21
   0   1   7 6862.21 524.349  22
   0   1   7 6297.39 530.264  23
   0   1   8 1956.36 292.343   9
   0   1   8 1968.18 306.224  16
   0   1   8 2424.13 704.377  18
   0   1   8 1966.20 284.547  22
   0   1   8 1928.77 314.205  20
   0   1   9 19857.1 1240.88  17
   0   1   9 20363.2 1227.09  16
   0   1   9 17549.1 1968.45  18
   0   1   9 17844.3 1214.98  33
   0   1   9 19099.5 1113.73  22
   0   1   9 19114.2 1192.07  20
   0   1  10 13026.5 902.271  17
   0   1  10 12828.4 887.063  16
   0   1  10 13228.4 915.068  33
   0   1  10 11384.8 837.837  20
   0   1  11 7249.16 567.741  16
   0   1  11 8081.05 608.183  17
   0   1  11 6439.06 527.018  20
   0   1  12 1200.40 185.902  16
   0   1  12 1395.43 221.455  17
   0  -2  13 282.703 143.718  16
   0  -2  13-12.3790 177.476  17
   0  -2  13 306.695 155.515  19
   0  -2  12 3079.23 379.224  16
   0  -2  12 3160.53 375.555  33
   0  -2  12 3316.38 388.490  19
   0  -2  11 13001.7 903.365  16
   0  -2  11 12195.6 887.593  33
   0  -2  11 12249.4 866.078  19
   0  -2  11 14773.6 898.580  21
   0  -2  11 9930.08 767.513  20
   0  -2  10 1669.78 312.396  16
   0  -2  10 1730.13 309.034  33
   0  -2  10 1894.79 316.702  21
   0  -2   9 190.576 162.879  16
   0  -2   9 412.600 192.861  33
   0  -2   9 251.122 196.133  21
   0  -2   8 22811.7 1338.08  16
   0  -2   8 23636.8 1352.09  33
   0  -2   7 5067.45 436.886  33
   0  -2   6 28655.7 1865.80  35
   0   2  -6 25261.9 1575.34  30
   0  -2   6 25476.7 1363.98  33
   0   2  -5 1749.00 310.224  30
   0  -2   5 1484.99 200.812  34
   0  -2   5 1506.98 342.982  35
   0   2  -5 1734.85 203.428  29
   0   2  -4 34977.8 1876.01  30
   0   2  -4 33659.8 1750.11  29
   0  -2   4 31709.2 1889.26  35
   0   2  -3 28159.2 1548.48  29
   0   2  -3 29197.4 1606.02  30
   0   2  -2 17714.3 1058.34  29
   0   2  -2 17965.5 1074.97  30
   0   2  -1 51594.9 2605.19  30
   0   2   0 2515.90 323.262  37
   0   2   1 138739. 6748.54  18
   0   2   1 143561. 6683.30  29
   0   2   2 152759. 7395.53  18
   0   2   2 153440. 7191.41  29
   0   2   3 1349.56 378.442  18
   0  -2  -3 1513.85 211.654  34
   0   2   3 1663.94 209.882  29
   0   2   4 116458. 5754.40  18
   0   2   4 108154. 5160.26  33
   0   2   5 121991. 6160.83  18
   0   2   5 112558. 5417.68  33
   0   2   6 68189.2 3466.56  16
   0   2   6 76532.2 4372.53  18
   0   2   6 70810.9 3478.52   9
   0   2   6 72712.1 3454.72  28
   0   2   6 72910.2 3515.79  33
   0   2   6 73645.2 3507.22  20
   0   2   6 73089.0 3491.73  22
   0   2   6 65137.0 3454.68  23
   0   2   7 20360.4 1932.06  18
   0   2   7 20713.8 1198.78   9
   0   2   7 19691.8 1186.13  16
   0   2   7 21189.3 1241.34  17
   0   2   7 20287.2 1227.65  33
   0   2   7 20016.9 1218.13  20
   0   2   7 20497.5 1189.42  22
   0   2   7 17258.1 1148.81  23
   0   2   8 2685.12 358.717  16
   0   2   8 2229.88 330.786  14
   0   2   8 2745.46 371.555   9
   0   2   8 2587.93 722.574  18
   0   2   8 2990.68 407.803  17
   0   2   8 2664.44 371.331  33
   0   2   8 2690.93 344.352  22
   0   2   8 2123.67 348.809  20
   0   2   9 644.236 205.812  16
   0   2   9 222.519 249.445  17
   0   2   9 428.608 175.795  22
   0   2   9 348.331 232.807  20
   0   2  10 795.316 256.153  17
   0   2  10 1008.17 219.765  16
   0   2  10 984.413 235.160  20
   0   2  11 3427.11 320.649  16
   0   2  11 3233.55 367.603  17
   0   2  11 3266.73 314.098  20
   0   2  12 315.974 115.507  17
   0  -3  13 3914.20 391.153  17
   0  -3  13 4625.13 410.069  16
   0  -3  13 4941.22 417.475  33
   0  -3  13 4800.80 416.757  19
   0  -3  12 17253.0 1073.76  16
   0  -3  12 15188.6 1050.89  33
   0  -3  12 17944.8 1059.28  21
   0  -3  12 17239.6 1063.07  19
   0  -3  11 651.282 225.642  16
   0   3 -11 691.089 173.686  10
   0  -3  11 1057.85 256.469  33
   0  -3  11 718.586 254.337  21
   0  -3  10 1277.76 576.236  18
   0  -3  10 1800.95 317.249  16
   0  -3  10 1571.65 298.570  33
   0  -3  10 2200.74 331.542  21
   0  -3   9 180.324 147.248  16
   0  -3   9 536.613 211.655  33
   0  -3   9 237.766 142.883   8
   0  -3   8 10761.0 728.733  16
   0  -3   8 11854.7 755.761  33
   0  -3   7 15503.3 1370.16  35
   0  -3   7 15809.6 940.888  33
   0   3  -6 55543.3 3052.88  30
   0  -3   6 56442.8 3140.87  35
   0  -3   6 53323.9 2808.01  34
   0  -3   5 24456.2 1567.37  35
   0   3  -5 25303.6 1457.11  29
   0  -3   5 22316.9 1468.91  34
   0   3  -5 26375.6 1617.81  30
   0   3  -4 57290.1 3038.02  30
   0   3  -4 55696.1 2939.09  29
   0   3  -3 26573.8 1579.90  30
   0   3  -3 24634.2 1520.64  29
   0   3  -2 464.247 224.494  29
   0   3  -1 155922. 7483.05  29
   0   3   0 27878.6 1675.96  29
   0   3   0 30338.9 1730.30  37
   0   3   1 47730.2 2646.08  18
   0   3   1 48212.8 2555.89  29
   0   3   2 61334.1 3271.35  18
   0   3   2 57809.3 3032.06  29
   0   3   3 131073. 6312.51  18
   0   3   3 132191. 5879.60  29
   0  -3  -3 112589. 5899.36  34
   0   3   3 119002. 5697.74  33
   0   3   4 9181.39 1030.58  18
   0   3   4 8474.90 582.573  33
   0   3   5 1983.01 594.346  18
   0   3   5 2412.42 304.312   9
   0   3   5 2390.71 295.036  28
   0   3   5 2217.86 287.869  33
   0   3   5 2454.93 308.456  22
   0   3   6 12744.6 825.212  16
   0   3   6 12977.5 1473.48  18
   0   3   6 12965.1 864.845   9
   0   3   6 14208.9 912.553  17
   0   3   6 13399.3 850.885  28
   0   3   6 12488.8 865.333  33
   0   3   6 12640.5 874.684  20
   0   3   6 14199.0 886.270  22
   0   3   6 11657.1 802.137  23
   0   3   7 69423.0 3741.48  16
   0   3   7 75339.9 3799.75   9
   0   3   7 78557.0 3844.19  17
   0   3   7 77832.8 4861.62  18
   0   3   7 79552.4 3833.67  20
   0   3   7 80199.4 3808.90  22
   0   3   8 25073.9 1535.80  16
   0   3   8 30275.0 1661.18  17
   0   3   8 26167.9 1501.93  14
   0   3   8 27827.3 1589.93   9
   0   3   8 28246.4 2498.75  18
   0   3   8 28588.7 1565.13  22
   0   3   8 29813.6 1628.94  20
   0   3   9 8872.91 701.120  17
   0   3   9 6867.01 587.440  16
   0   3   9 8969.14 672.674  20
   0   3   9 8614.29 605.244  22
   0   3  10 5342.93 497.189  17
   0   3  10 5002.27 440.152  20
   0   3  11 1532.36 218.355  17
   0   3  11 1289.34 169.431  20
   0  -4  14 67.0380 88.4384  19
   0  -4  13 455.328 160.710  16
   0  -4  13 372.019 134.917  33
   0  -4  13 361.865 173.514  19
   0  -4  12 5981.65 535.021  16
   0   4 -12 6010.67 468.055  10
   0  -4  12 6796.72 562.737  33
   0  -4  12 6359.83 541.735  21
   0  -4  11 845.295 228.174  16
   0   4 -11 1072.56 225.061  10
   0  -4  11 671.705 211.463  33
   0  -4  11 948.257 266.033  21
   0  -4  10 49073.8 2375.55  16
   0  -4  10 48449.7 2390.27  33
   0  -4   9 26090.3 1504.13  16
   0  -4   9 29227.4 1553.92  33
   0  -4   9 25117.8 1461.94   8
   0  -4   8 1207.52 218.931  16
   0  -4   8 1260.23 225.769  33
   0  -4   8 810.415 181.224   8
   0   4  -8 1395.96 200.836   6
   0  -4   7 28415.3 1967.93  35
   0  -4   6 20020.8 1453.32  35
   0   4  -6 22330.9 1419.01  29
   0  -4   6 20398.7 1430.17  34
   0  -4   5 505.260 204.395  35
   0   4  -5 949.286 284.714  29
   0   4  -4 7560.29 741.877  29
   0   4  -3 27106.7 1724.65  29
   0   4  -2 53309.1 2947.32  29
   0   4  -1 25799.5 1679.04  37
   0   4   0 21918.5 1509.13  29
   0   4   0 25229.8 1614.38  37
   0   4   1 2056.68 372.325  29
   0   4   2 39809.4 2520.37  18
   0   4   2 40093.2 2292.09  29
   0   4   3 66263.0 3847.25  18
   0  -4  -3 60135.8 3440.24  34
   0   4   3 69000.6 3423.34  29
   0   4   4 15653.9 1008.68   9
   0   4   4 18855.9 1642.77  18
   0   4   4 16539.1 1012.39  28
   0   4   4 18081.0 1044.27  20
   0   4   4 17635.6 1035.70  19
   0   4   5 32916.0 2486.63  18
   0   4   5 29466.9 1654.16  28
   0   4   5 30444.4 1677.43  19
   0   4   5 28605.8 1601.60  24
   0   4   5 32340.2 1697.86  22
   0   4   6 918.405 524.482  18
   0   4   6 1774.87 303.061  22
   0   4   6 1396.98 321.684  19
   0   4   7 2063.54 360.976   9
   0   4   7 3349.49 753.436  18
   0   4   7 2047.03 375.854  17
   0   4   7 2257.76 387.190  14
   0   4   7 1856.26 267.158  16
   0   4   7 2251.44 335.072  22
   0   4   8 2796.94 406.852  17
   0   4   8 1705.27 341.488  14
   0   4   8 2425.80 352.576  20
   0   4   8 2811.31 336.920  22
   0   4   9 4521.31 467.656  17
   0   4   9 4298.78 383.079  22
   0   4   9 4720.89 438.877  20
   0   4  10 7423.52 537.649  17
   0   4  10 7085.47 495.971  20
   0  -5  14 2387.69 240.414  19
   0  -5  13 10981.4 694.669  16
   0   5 -13 11857.0 662.569  10
   0  -5  13 10200.7 709.973  33
   0  -5  13 12395.8 734.579  21
   0  -5  13 10721.5 734.707  19
   0   5 -12 2337.79 289.665  10
   0  -5  12 2079.51 291.620  16
   0  -5  12 2711.35 328.533  33
   0  -5  12 2354.04 325.976  21
   0  -5  11 2196.93 310.085  16
   0  -5  11 1812.19 295.963  33
   0  -5  11 2526.86 352.049  21
   0  -5  10 940.410 223.647  16
   0  -5  10 848.113 235.645  33
   0   5 -10 889.497 180.165   6
   0  -5  10 914.241 226.389   8
   0  -5   9 12405.5 874.008  16
   0   5  -9 15057.0 895.397   6
   0  -5   9 13806.7 890.150   8
   0  -5   9 14684.7 934.625  33
   0  -5   8 27948.2 1500.54   8
   0   5  -8 27527.4 1516.59   6
   0  -5   8 27768.9 1533.56  33
   0  -5   7 3314.19 316.555   8
   0   5  -7 2971.64 317.472   6
   0   5  -7 3723.67 523.697  29
   0  -5   7 2755.13 492.577  34
   0  -5   6 22707.8 1741.60  34
   0   5  -6 25945.1 1727.50  29
   0   5  -5 10647.4 994.677  29
   0   5  -4 11605.3 1062.72  29
   0   5  -3 976.188 335.693  29
   0   5  -2 27438.4 1853.26  29
   0   5  -2 26837.2 1874.52  37
   0   5  -1 37482.6 2368.04  37
   0   5   0 17140.1 1340.89  29
   0   5   1 52315.3 3016.75  29
   0  -5  -2 29800.5 2091.64  34
   0   5   2 33269.6 2040.77  29
   0   5   3 302.596 127.594   7
   0   5   3 220.118 177.549   9
   0   5   3 398.363 183.566  28
   0   5   3 564.066 176.956  29
   0   5   3 195.246 177.520  19
   0   5   3 168.347 153.269  24
   0   5   3 556.875 195.068  20
   0   5   3 613.156 207.437  22
   0   5   4 129.502 122.850   7
   0   5   4 316.920 191.585   9
   0   5   4 264.564 209.633  19
   0   5   4 199.947 157.901  24
   0   5   4 283.415 194.359  20
   0   5   5 140.377 204.893   9
   0   5   5 67.9504 205.321  28
   0   5   5 290.668 202.441  19
   0   5   5 215.506 200.128  20
   0   5   5 245.153 151.413  24
   0   5   6 9561.57 733.588   9
   0   5   6 10090.7 758.257  19
   0   5   6 11064.1 751.273  22
   0   5   7 24735.3 1476.33  14
   0   5   7 27168.5 1516.51  22
   0   5   7 28413.0 1573.23  19
   0   5   8 18810.5 1078.82  14
   0   5   8 18641.8 1098.53  22
   0   5   8 19820.1 1164.06  19
   0   5   9 3918.24 306.265  22
   0   5   9 3696.87 340.920  20
   0  -6  14 481.019 122.097  19
   0   6 -13 6047.25 428.094  10
   0  -6  13 5742.92 445.642  21
   0   6 -12 7265.71 540.694  10
   0  -6  12 6163.56 526.469  33
   0  -6  12 7116.49 552.453  21
   0   6 -11 22591.3 1242.50  10
   0   6 -11 21160.2 1165.71   6
   0  -6  11 18202.3 1184.64   8
   0  -6  11 19623.8 1212.78  33
   0  -6  10 6573.88 581.485   8
   0   6 -10 7714.71 582.032   6
   0  -6  10 7477.24 603.538  33
   0  -6   9 8634.82 648.012   8
   0   6  -9 9044.58 662.387   6
   0  -6   9 8578.69 660.943  33
   0  -6   8 3200.82 344.165   8
   0   6  -8 2730.01 326.684   6
   0   6  -7 1317.04 217.848   6
   0  -6   7 886.592 343.365  34
   0   6  -7 1030.49 345.341  29
   0  -6   6 16715.1 972.385   8
   0   6  -6 15870.7 980.228   6
   0  -6   6 19618.4 1612.46  34
   0   6  -6 16488.3 1416.48  29
   0   6  -5 46166.2 2905.21  29
   0   6  -4 60034.2 3566.30  29
   0   6  -3 19494.2 1561.88  29
   0   6  -3 17387.4 1542.12  37
   0   6  -2 7888.73 942.850  37
   0   6  -1 3146.56 566.300  29
   0   6   0 10991.5 1097.59  29
   0   6   1 7509.39 567.084   9
   0   6   1 7752.68 562.555   7
   0  -6  -1 7397.90 973.094  34
   0   6   1 7908.65 593.201  28
   0   6   1 9947.33 988.182  29
   0   6   1 8275.89 601.506  20
   0   6   1 8134.94 598.684  22
   0   6   1 9029.75 638.518  19
   0   6   2 8444.86 646.888   9
   0   6   2 8702.74 695.057  17
   0   6   2 9461.17 630.553   7
   0   6   2 9128.25 959.870  29
   0   6   2 8650.81 662.507  28
   0  -6  -2 10133.6 1083.85  34
   0   6   2 9443.78 672.373  22
   0   6   2 8181.58 672.344  27
   0   6   2 9446.89 691.939  19
   0   6   2 9078.66 664.188  20
   0   6   3 26783.7 1547.40   9
   0   6   3 27916.9 1491.60   7
   0   6   3 28992.8 1580.63  28
   0   6   3 23849.4 1515.72  27
   0   6   3 27506.1 1563.90  22
   0   6   3 27147.0 1531.82  24
   0   6   3 28457.8 1570.46  20
   0   6   3 30018.0 1605.57  19
   0   6   4 58747.8 3132.13   7
   0   6   4 62528.0 3239.57   9
   0   6   4 64768.1 3252.88  20
   0   6   4 70142.8 3305.30  19
   0   6   4 63789.6 3203.25  24
   0   6   4 66796.7 3264.49  22
   0   6   5 9297.96 737.603   9
   0   6   5 8503.10 667.888  24
   0   6   5 9744.85 735.937  20
   0   6   5 9212.98 745.521  19
   0   6   6 1890.47 368.511  14
   0   6   6 2391.22 374.839  19
   0   6   6 2077.16 332.010  20
   0   6   7 75.7588 256.740  14
   0   6   7-34.9858 162.369  22
   0   6   7 261.421 216.791  19
   0   6   8 8255.73 543.254  14
   0   6   8 8341.29 547.117  22
   0   6   8 9276.15 608.376  19
   0   6   9 6405.95 409.383  20
   0   7 -13 132.919 106.055  10
   0  -7  13-9.90323 125.819  21
   0   7 -12 3422.76 353.935  10
   0  -7  12 3151.26 340.116  21
   0   7 -11 401.062 198.279  10
   0   7 -11 371.598 146.100   6
   0  -7  11 348.990 179.186   8
   0  -7  10 4811.67 466.393   8
   0   7 -10 5145.56 454.943   6
   0  -7  10 4494.94 439.641  33
   0   7  -9 26746.7 1480.89   6
   0  -7   9 28284.5 1485.06   8
   0  -7   9 23067.3 1427.04  33
   0   7  -8 13960.4 915.444   6
   0  -7   8 13135.1 1306.39  34
   0   7  -7 44474.4 2284.77   6
   0  -7   7 43983.7 2257.01   8
   0   7  -7 43794.8 2904.74  29
   0  -7   7 39568.6 2924.98  34
   0  -7   6 5741.73 474.986   8
   0   7  -6 6759.27 903.551  29
   0  -7   6 5663.41 909.008  34
   0   7  -5 692.507 164.136   6
   0   7  -5 607.112 152.943   7
   0  -7   5 594.098 165.841   8
   0  -7   5 584.128 391.181  34
   0   7  -5 224.075 277.456  29
   0   7  -4 440.949 130.267   6
   0   7  -4 363.513 135.851   7
   0   7  -4 374.126 303.647  29
   0   7  -4 641.041 338.325  37
   0   7  -3 36507.9 1909.87   7
   0   7  -3 35919.0 1876.93   6
   0   7  -3 38222.9 2642.40  37
   0   7  -3 41835.1 2685.70  29
   0   7  -2 45274.9 2374.86   7
   0   7  -2 56985.6 3275.59  37
   0   7  -1 11606.1 752.597  28
   0  -7   1 12471.4 1385.90  34
   0   7  -1 12373.2 1255.88  29
   0   7  -1 11180.9 764.416  20
   0   7  -1 11901.6 748.925  22
   0   7   0 2695.20 295.055   7
   0   7   0 2357.84 530.096  29
   0  -7   0 1741.77 503.330  34
   0   7   0 1952.98 290.691  28
   0   7   0 1884.98 271.937  22
   0   7   0 1838.40 288.061  20
   0   7   1 3044.16 347.894   9
   0   7   1 2697.79 321.207   7
   0   7   1 3604.88 393.299  28
   0  -7  -1 2044.67 561.286  34
   0   7   1 3738.54 650.675  29
   0   7   1 3792.02 451.861  19
   0   7   1 3215.44 368.473  22
   0   7   1 2677.05 352.879  20
   0   7   2 424.597 168.406   7
   0   7   2 450.346 221.581   9
   0   7   2 518.016 233.443  28
   0   7   2 326.215 191.350  24
   0   7   2 561.149 222.054  20
   0   7   2 578.343 226.136  22
   0   7   2 473.809 190.964  27
   0   7   2 249.850 246.975  19
   0   7   3 310.394 210.718   9
   0   7   3 90.3006 125.134   7
   0   7   3 306.638 232.494  28
   0   7   3 93.6523 187.810  22
   0   7   3 310.335 238.196  19
   0   7   3 141.140 205.944  20
   0   7   3 305.949 175.319  24
   0   7   3 43.4854 134.714  27
   0   7   4 3872.74 443.629   9
   0   7   4 3586.56 414.113  24
   0   7   4 3746.01 460.936  19
   0   7   4 4009.17 439.009  22
   0   7   4 4066.45 443.823  20
   0   7   5 2593.89 372.469  19
   0   7   5 2767.25 355.965  20
   0   7   5 1760.12 284.711  24
   0   7   5 2208.18 329.059  22
   0   7   6 8700.05 654.442  14
   0   7   6 9727.32 675.126  20
   0   7   6 9705.37 704.789  19
   0   7   7 5332.80 425.328  14
   0   7   7 6337.07 432.970  22
   0   7   7 5660.22 438.416  20
   0   8 -13 10246.5 548.248  10
   0  -8  13 7263.00 487.142  21
   0   8 -12 7141.02 523.216  10
   0  -8  12 6802.35 497.705  21
   0   8 -11 6719.19 530.373  10
   0   8 -11 6552.91 510.900   6
   0  -8  11 5904.66 518.871   8
   0   8 -10 1347.09 237.114   6
   0  -8  10 1106.58 242.394   8
   0   8  -9 430.339 173.572   6
   0  -8   8 949.760 323.793  34
   0  -8   8 1055.01 219.372   8
   0   8  -8 983.416 220.082   6
   0  -8   7 12664.3 1458.69  34
   0   8  -7 14187.6 1477.84  29
   0  -8   7 14396.7 911.773   8
   0   8  -6 37666.3 2669.07  29
   0  -8   6 35975.2 2770.99  34
   0   8  -6 34224.0 1826.88   7
   0  -8   6 35385.7 1858.55   8
   0   8  -6 36513.5 1891.25   6
   0   8  -5 38889.9 2057.76  10
   0   8  -5 43088.6 2134.28   6
   0   8  -5 40279.4 2104.44   7
   0  -8   5 41232.6 2109.55   8
   0   8  -5 34560.8 2863.08  37
   0   8  -5 45060.8 3010.95  29
   0  -8   5 43006.6 3143.32  34
   0  -8   4 21258.8 1196.04   8
   0   8  -4 20653.5 1196.99   6
   0   8  -4 21219.1 1222.04   7
   0   8  -4 23530.1 1976.24  29
   0   8  -4 19824.7 1868.36  37
   0   8  -3 2349.30 301.739   7
   0   8  -3 2273.16 260.606   6
   0  -8   3 1387.72 564.373  34
   0   8  -3 1702.67 507.234  37
   0   8  -2 233.361 151.139   7
   0  -8   2 197.305 326.389  34
   0   8  -2 171.180 283.214  29
   0  -8   1 96.3802 276.064  34
   0   8  -1 92.1109 164.101  28
   0   8  -1 166.553 257.648  29
   0   8  -1 87.9970 144.112  22
   0   8   0 3230.40 364.286   7
   0   8   0 4191.13 727.834  29
   0   8   0 3563.07 395.073  28
   0  -8   0 3537.65 721.316  34
   0   8   0 3529.02 387.873  22
   0   8   0 3627.44 442.991  20
   0   8   1 13538.0 915.896   9
   0   8   1 15259.6 941.071   7
   0   8   1 14041.5 1358.63  29
   0   8   1 14874.6 970.647  28
   0   8   1 13832.8 950.396  20
   0   8   1 14866.4 1005.99  27
   0   8   1 15343.3 959.553  22
   0   8   2 16419.0 981.570   7
   0   8   2 15269.8 1008.19  20
   0   8   2 14559.9 994.572  24
   0   8   2 15454.2 998.730  22
   0   8   2 15725.2 1021.26  27
   0   8   3 4159.82 398.262   7
   0   8   3 4377.28 439.488  24
   0   8   3 4193.55 438.761  20
   0   8   3 3946.25 430.061  22
   0   8   3 4420.47 415.056  27
   0   8   4 4311.67 461.837  14
   0   8   4 3868.22 399.491  24
   0   8   4 3850.57 402.412  22
   0   8   4 4286.85 425.910  20
   0   8   5 10132.7 668.486  22
   0   8   5 9848.09 678.137  20
   0   8   6 118.507 120.227  22
   0   8   6-66.1143 284.341  20
   0   9 -13 941.759 130.711  10
   0  -9  12 1573.26 198.351  21
   0   9 -11 8921.72 606.043  10
   0  -9  11 8176.16 601.890   8
   0   9 -11 8869.92 606.212   6
   0   9 -10 7578.10 581.355  10
   0   9 -10 8050.88 600.167   6
   0   9  -9 11598.3 803.971  10
   0  -9   9 13380.3 842.655   8
   0   9  -9 12418.0 835.978   6
   0   9  -8 5113.04 456.845  10
   0  -9   8 5488.90 482.633   8
   0   9  -7 2578.75 299.291  10
   0  -9   7 3042.30 639.701  34
   0   9  -7 2487.60 552.742  29
   0  -9   7 2586.77 327.381   8
   0   9  -7 2539.46 323.642   6
   0   9  -6 913.842 191.655  10
   0   9  -6 1140.22 220.564   7
   0   9  -6 1292.41 230.486   6
   0  -9   6 1711.34 253.857   8
   0  -9   6 1536.59 551.545  34
   0   9  -6 910.122 454.722  29
   0   9  -5 455.791 156.171   6
   0  -9   5 283.479 151.571   8
   0   9  -5 169.520 145.206   7
   0  -9   5 637.718 393.268  34
   0   9  -5 749.131 363.438  29
   0   9  -4 20354.9 1207.84   6
   0   9  -4 22105.0 1259.83   7
   0  -9   4 21077.9 1198.03   8
   0   9  -4 21685.2 1987.97  29
   0  -9   4 22755.8 2155.64  34
   0   9  -3 21314.9 1209.44   7
   0   9  -3 17409.8 1110.35   6
   0  -9   3 21731.8 1136.19   8
   0  -9   3 20944.8 2027.78  34
   0   9  -2 47141.7 2433.44   7
   0  -9   2 44843.5 3390.96  34
   0   9  -2 46916.2 3269.62  29
   0   9  -1 21980.4 1949.49  29
   0  -9   1 23120.2 2090.06  34
   0   9  -1 22095.7 1289.01  22
   0   9  -1 24325.5 1374.25  24
   0   9   0 2683.89 330.887   7
   0   9   0 2705.64 333.306  22
   0   9   0 2447.04 354.269  27
   0   9   0 2933.90 370.929  24
   0   9   1 1930.03 284.572   7
   0   9   1 1701.28 301.296  27
   0   9   1 1917.34 289.615  22
   0   9   2 412.636 150.606   7
   0   9   2 441.785 267.129  14
   0   9   2 662.354 215.322  24
   0   9   2 694.199 178.590  27
   0   9   2 771.648 190.703  22
   0   9   3 6031.16 508.895  14
   0   9   3 5776.27 462.916  22
   0   9   3 5073.23 456.966  24
   0   9   4 6810.58 511.281  14
   0   9   4 7181.24 498.079  22
   0   9   5 4514.66 338.487  14
   0   9   5 4418.70 325.567  22
   0  10 -12 3197.12 247.906   4
   0  10 -12 2851.65 241.328  10
   0  10 -11 304.966 116.838  10
   0  10 -10 880.133 183.554   6
   0 -10  10 704.693 189.056   8
   0  10 -10 769.938 167.455  10
   0 -10   9 5350.72 450.056   8
   0  10  -9 4884.33 411.105  10
   0 -10   8 14360.4 864.933   8
   0  10  -8 14579.2 882.476   6
   0  10  -8 12012.7 799.333  10
   0  10  -7 10014.5 680.254   6
   0 -10   7 9758.10 652.860   8
   0  10  -7 8373.60 603.421   7
   0 -10   6 11348.4 753.800   8
   0  10  -6 12020.0 783.186   6
   0  10  -6 11495.8 759.628   7
   0 -10   5 16758.1 959.565   8
   0  10  -5 17178.1 1005.85   7
   0  10  -5 15902.8 970.323   6
   0  10  -5 14630.8 954.154  24
   0  10  -4 843.956 199.690   7
   0 -10   4 683.841 159.310   8
   0  10  -4 755.859 198.052  24
   0  10  -3 333.378 166.394   7
   0  10  -3 518.627 193.227  24
   0  10  -2 3481.31 382.290   7
   0  10  -2 3292.88 380.830  24
   0  10  -1 4901.09 482.095  27
   0  10  -1 4241.20 442.836  24
   0  10   0 28589.9 1486.11   7
   0  10   0 26086.6 1425.54  14
   0  10   0 24089.7 1412.91  22
   0  10   0 28173.0 1525.69  27
   0  10   0 28679.8 1509.87  24
   0  10   1 5521.64 439.875   7
   0  10   1 5573.31 451.725  14
   0  10   1 5180.62 418.367  22
   0  10   2 7531.70 522.559  14
   0  10   2 7456.72 532.160  24
   0  10   2 7579.11 504.513  22
   0  10   3 1758.45 233.747  14
   0  10   3 2050.72 220.604  22
   0 -11  11 6519.24 443.734   8
   0  11 -11 7515.62 442.064   4
   0 -11  10 4348.67 356.179   8
   0 -11   9 2102.35 250.469   8
   0 -11   8 343.311 135.521   8
   0  11  -7 2169.86 233.058   7
   0 -11   7 2360.55 261.247   8
   0  11  -6 14199.0 860.977   7
   0 -11   6 15091.4 852.454   8
   0 -11   5 6984.23 469.928   8
   0  11  -5 7061.22 523.597   7
   0  11  -5 7025.55 502.265  24
   0  11  -4 3051.15 331.252   7
   0  11  -4 3587.42 337.314  24
   0  11  -3 5204.33 433.647   7
   0  11  -3 4870.73 424.911  24
   0  11  -2 15092.5 872.947   7
   0  11  -2 14582.1 912.905  27
   0  11  -2 13049.6 850.699  24
   0  11  -1 15216.6 920.398  24
   0  11  -1 16128.3 943.777  27
   0  11   0 276.993 138.665  24
   0  12  -9 2658.62 205.738   4
   0 -12   9 2098.93 201.470   8
   0 -12   8 6623.20 428.509   8
   0  12  -8 7516.27 434.903   4
   0 -12   7 1722.02 165.848   8
   0  12  -6 1085.21 149.684   7
   0  12  -5 206.337 103.177   7
   0  12  -4 403.627 117.284   7
   0  12  -4 314.578 103.250  24
   0  12  -4 446.878 151.477  27
   0  12  -3 2054.25 222.290   7
   0  12  -3 2177.62 219.312  24
   0  12  -3 2217.61 247.174  27
   0  12  -2 10104.1 605.882  24
   0  12  -2 10494.1 608.734  27
   0  12  -1 7388.15 453.605  24
  -1  12  -1 12694.4 709.599  27
  -1  12  -2 5737.40 407.630  27
  -1  12  -2 4483.39 353.625  24
  -1  12  -3 3606.24 290.141  24
  -1  12  -5 2958.24 312.826  27
  -1  12  -6 3866.57 356.255  27
  -1  12  -7 6771.46 430.574   4
  -1  12  -7 7271.05 495.242  27
  -1  12  -8 7677.27 452.992   4
  -1  12  -8 6892.40 469.372  27
  -1  12  -9 116.850 60.8203   4
  -1  11   1 495.917 151.352  24
  -1  11   0 585.532 155.831  27
  -1  11   0 446.231 164.475  24
  -1  11  -1 14926.0 889.467   7
  -1  11  -1 14536.2 929.039  27
  -1  11  -1 14686.3 888.168  24
  -1  11  -2 10433.9 691.339   7
  -1  11  -2 9602.28 671.862  24
  -1  11  -2 10626.9 747.950  27
  -1  11  -3 14008.1 868.022   7
  -1  11  -3 13629.2 841.554  24
  -1  11  -4 8602.02 594.504   7
  -1  11  -4 7724.27 552.934  24
  -1  11  -5 9425.33 627.940   4
  -1  11  -5 10206.9 658.580   7
  -1  11  -6 29.1026 111.564   4
  -1  11  -6 71.0905 94.9726   7
   1 -11   6-83.0923 127.201   8
   1 -11   7 1439.07 216.472   8
   1 -11   8 7750.44 543.460   8
   1 -11   9 2064.69 245.164   8
  -1  11 -10 8417.52 498.614   4
   1 -11  10 6635.42 484.004   8
  -1  11 -11 1294.50 140.501   4
  -1  10   4 3193.57 257.119  13
  -1  10   4 4595.16 296.265  14
  -1  10   3 16881.9 913.850  14
  -1  10   3 16284.5 922.454  22
  -1  10   2 4572.77 398.518  14
  -1  10   2 4351.92 397.716  22
  -1  10   1 9944.93 666.809  14
  -1  10   1 10429.8 711.178  24
  -1  10   1 9354.06 667.639  22
  -1  10   1 10722.4 736.058  27
  -1  10   0 12232.0 752.994  14
  -1  10   0 12874.6 868.137  27
  -1  10   0 13207.0 826.603  24
  -1  10  -1 406.066 191.684   7
  -1  10  -1 615.896 202.292  24
  -1  10  -1 382.607 214.037  27
  -1  10  -2 412.663 176.562   7
  -1  10  -2 59.1162 170.953  24
  -1  10  -2 49.0581 121.046  26
  -1  10  -3 1221.81 200.472   4
  -1  10  -3 1374.34 246.079   7
  -1  10  -3 1162.18 233.630  24
  -1  10  -4 3576.17 374.972   7
   1 -10   4 3093.30 313.350   8
  -1  10  -4 3553.70 356.952  24
  -1  10  -5 6071.44 508.124   7
   1 -10   5 6276.27 479.894   8
   1 -10   6 11578.9 710.294   8
  -1  10  -6 9257.49 668.604   7
   1 -10   7 16156.6 940.898   8
  -1  10  -7 15839.5 970.071   6
  -1  10  -7 13720.6 878.998  10
   1 -10   8 6633.66 519.278   8
  -1  10  -8 5941.75 476.214  10
   1 -10   9 935.925 206.564   8
  -1  10  -9 738.587 178.117  10
   1 -10  10 1450.56 251.274   8
  -1  10 -10 1695.08 217.362  10
  -1  10 -11 2921.66 261.221   4
  -1  10 -11 2539.44 250.539  10
  -1  10 -12 4601.06 306.771  10
  -1   9   5 8970.83 533.583  14
  -1   9   5 8133.09 515.173  22
  -1   9   4 8549.78 603.696  14
  -1   9   4 8591.11 591.046  22
  -1   9   3 1620.96 320.569  14
  -1   9   3 1891.00 288.271  24
  -1   9   3 1546.73 245.532  27
  -1   9   3 2188.14 287.893  22
  -1   9   2 256.574 153.725   7
  -1   9   2 671.453 286.473  14
  -1   9   2 313.210 176.082  27
  -1   9   2 286.240 188.571  22
  -1   9   1 13928.3 873.639   7
  -1   9   1 11645.4 834.466  14
  -1   9   1 12737.9 852.582  22
  -1   9   1 13615.5 890.573  24
  -1   9   1 12288.4 911.240  27
  -1   9   0 42351.7 2209.25  14
  -1   9   0 39210.8 2969.04  29
  -1   9   0 42226.2 2239.29  22
  -1   9   0 45552.8 2297.43  24
  -1   9   0 47810.2 2395.57  27
  -1   9  -1 23981.7 1365.64   7
  -1   9  -1 24816.1 2110.35  29
   1  -9   1 20457.8 2111.25  34
  -1   9  -1 21802.0 1321.62  22
  -1   9  -1 25055.8 1391.73  24
  -1   9  -2 8101.03 628.733   7
   1  -9   2 6786.90 1126.05  34
  -1   9  -2 9760.82 1216.57  29
  -1   9  -2 8281.95 645.876  24
  -1   9  -3 5557.72 512.977   7
  -1   9  -3 6414.69 529.681  24
  -1   9  -4 12410.2 853.830   7
   1  -9   4 12594.0 802.130   8
  -1   9  -4 13306.4 854.333   6
  -1   9  -4 15033.0 1610.69  37
  -1   9  -4 15954.0 1595.63  29
  -1   9  -4 12697.1 832.663  24
  -1   9  -5 1961.82 247.373  10
  -1   9  -5 2023.18 549.964  37
  -1   9  -5 2120.53 606.776  29
   1  -9   5 2307.19 661.041  34
  -1   9  -5 1857.35 274.829   7
   1  -9   5 2181.39 280.961   8
  -1   9  -5 1787.57 270.243   6
  -1   9  -6 4080.30 374.172  10
  -1   9  -6 3806.30 792.864  37
   1  -9   6 3367.69 834.634  34
  -1   9  -6 5431.65 882.216  29
  -1   9  -6 3689.95 406.979   6
  -1   9  -6 3294.42 353.471   7
   1  -9   6 4297.19 395.718   8
  -1   9  -7 9303.67 688.653  10
  -1   9  -7 10255.9 1329.59  37
   1  -9   7 9305.49 1235.55  34
  -1   9  -7 9381.17 1147.76  29
   1  -9   7 11179.7 733.459   8
  -1   9  -8 12502.0 846.053   6
   1  -9   8 12071.7 819.365   8
  -1   9  -8 11940.7 810.182  10
   1  -9   9 13442.1 874.599   8
  -1   9  -9 12884.1 866.741   6
  -1   9  -9 13271.5 858.586  10
  -1   9 -10 15827.7 993.020   6
  -1   9 -10 17342.2 1010.03  10
  -1   9 -12-27.7694 68.4133   4
  -1   9 -12-50.1585 97.4415  10
  -1   8   7 3364.78 273.914  14
  -1   8   7 3650.23 277.659  22
  -1   8   6 988.924 386.790  20
  -1   8   5 7768.28 606.431  14
  -1   8   5 8181.17 594.355  22
  -1   8   5 8198.79 627.507  20
  -1   8   4 14656.6 957.590  14
  -1   8   4 12699.8 912.471  27
  -1   8   4 16168.5 968.154  22
  -1   8   4 15498.3 979.930  20
  -1   8   4 15179.4 968.755  24
  -1   8   3 16319.2 1076.04  14
  -1   8   3 17316.2 1107.99  20
  -1   8   3 18196.2 1097.24  22
  -1   8   3 16029.9 1089.38  27
  -1   8   3 18263.9 1104.11  24
  -1   8   2 27482.2 1567.71   7
  -1   8   2 28689.7 1593.74  22
  -1   8   2 27204.5 1644.39  27
  -1   8   2 28914.3 1624.68  20
  -1   8   1 306.113 172.856   7
  -1   8   1 911.468 308.083  29
   1  -8  -1 716.899 378.133  34
  -1   8   1 253.200 188.611  22
  -1   8   1 190.877 186.638  27
  -1   8   1 472.701 202.831  24
  -1   8   1 272.740 326.966  20
  -1   8   0-241.477 297.611  29
   1  -8   0 194.085 253.713  34
  -1   8   0 86.8642 172.213  24
  -1   8   0 55.4162 116.316  26
  -1   8   0 98.1884 176.368  22
  -1   8  -1 545.772 169.144   7
  -1   8  -1 415.222 322.901  29
  -1   8  -1 598.307 194.430  24
  -1   8  -1 464.860 184.964  22
  -1   8  -2 9000.64 660.321   7
  -1   8  -3 37363.6 2677.60  29
   1  -8   3 34161.0 1788.97   8
  -1   8  -3 35853.1 1853.15   7
  -1   8  -3 32707.1 1820.22   6
  -1   8  -4 58459.9 3677.11  29
  -1   8  -4 57245.9 3836.11  37
   1  -8   4 53024.1 2699.27   8
  -1   8  -4 54210.9 2741.06   6
  -1   8  -4 54747.8 2731.33   7
  -1   8  -5 21433.3 1207.12  10
  -1   8  -5 21163.7 1893.63  29
  -1   8  -5 22392.3 2117.03  37
   1  -8   5 21606.8 1218.38   8
  -1   8  -5 21443.9 1250.45   6
  -1   8  -5 20973.3 1203.78   7
  -1   8  -6 11892.0 789.070  10
   1  -8   6 10367.5 1377.80  34
  -1   8  -6 11813.5 1317.55  29
   1  -8   6 12184.8 797.386   8
  -1   8  -7 1219.19 241.142  10
   1  -8   7 2270.44 535.263  34
  -1   8  -7 1638.13 423.459  29
   1  -8   7 1622.22 259.418   8
  -1   8  -7 1483.02 257.915   6
  -1   8  -8 168.453 159.687  10
   1  -8   8 40.9357 155.230   8
  -1   8  -8 238.497 160.463   6
  -1   8  -9 3718.50 407.861  10
  -1   8  -9 3814.07 396.423   6
   1  -8   9 2751.45 347.580  33
  -1   8 -10 11848.3 750.946   6
   1  -8  10 9254.81 704.905  33
   1  -8  11 8282.88 623.103   8
  -1   8 -11 9510.25 629.453  10
   1  -8  11 7456.05 544.191  21
  -1   8 -12 6697.68 481.874  10
  -1   8 -13 3221.75 250.137  10
  -1   7   8 7854.95 490.717  14
  -1   7   8 8723.75 498.462  22
  -1   7   7 3180.37 355.707  14
  -1   7   7 3329.95 326.530  22
  -1   7   6 196.813 140.781  13
  -1   7   5 6104.92 549.599  20
  -1   7   5 5070.53 519.070  24
  -1   7   5 6775.16 561.888  22
  -1   7   4-22.0523 185.927  24
  -1   7   4 23.7623 202.261  20
  -1   7   4 92.4589 193.002  22
  -1   7   4-46.3278 150.793  27
  -1   7   3 2704.33 336.175   7
  -1   7   3 2890.61 388.096  27
  -1   7   3 3023.77 388.821  22
  -1   7   3 3180.00 398.495  20
  -1   7   3 3330.07 395.718  24
  -1   7   2 4298.42 447.955   9
  -1   7   2 4731.34 430.181   7
  -1   7   2 3854.64 701.682  29
  -1   7   2 5301.02 515.683  27
  -1   7   2 5330.50 479.839  22
  -1   7   2 4881.66 481.219  20
  -1   7   1 36089.3 1948.61   9
  -1   7   1 38228.5 1970.47   7
  -1   7   1 39940.0 2005.16  28
  -1   7   1 42582.1 2660.90  29
  -1   7   1 39281.5 1997.43  22
  -1   7   1 33684.1 1930.81  26
  -1   7   1 38393.0 1997.71  24
  -1   7   1 35879.4 1991.38  20
  -1   7   0 73955.3 3998.89  29
  -1   7   0 64691.0 3191.36  28
  -1   7   0 63577.9 3219.78  20
  -1   7   0 63129.4 3194.61  22
  -1   7  -1 13358.5 821.048   7
  -1   7  -1 13166.1 1309.64  29
  -1   7  -1 12473.2 801.840  22
  -1   7  -2 54284.4 3427.02  37
  -1   7  -2 48429.9 2451.72   6
  -1   7  -2 49782.3 2481.30   7
  -1   7  -3 1086.57 380.873  29
  -1   7  -3 944.131 189.311   7
  -1   7  -3 590.011 149.172   6
   1  -7   3 1084.58 170.602   8
  -1   7  -4 22268.5 1241.99  10
  -1   7  -4 25286.5 1942.29  29
   1  -7   4 22970.1 1252.33   8
  -1   7  -4 23523.2 1263.16   7
  -1   7  -4 22861.9 1279.52   6
  -1   7  -5 11191.9 736.547  10
   1  -7   5 11439.1 738.390   8
  -1   7  -6 33488.4 2467.61  29
  -1   7  -6 35608.0 1875.67   6
   1  -7   6 35055.0 1849.41   8
  -1   7  -7 36897.9 2563.96  29
   1  -7   7 36290.7 1923.82   8
  -1   7  -7 38182.5 1960.05   6
  -1   7  -8 8991.07 670.638   6
  -1   7  -9 8651.11 672.137  10
   1  -7   9 8207.53 657.399  33
  -1   7  -9 8460.50 645.560   6
  -1   7 -10 2874.00 355.212  10
  -1   7 -10 2467.98 304.660   6
   1  -7  10 2313.75 343.878   8
   1  -7  10 2376.83 321.601  33
  -1   7 -11 3266.12 356.162  10
   1  -7  11 3087.44 346.607  33
   1  -7  11 2550.28 314.993  21
   1  -7  12 893.803 179.269  33
   1  -7  12 947.640 183.761  21
  -1   7 -13 1138.41 143.871  10
  -1   6   9 2402.09 200.696  22
  -1   6   9 2078.64 249.375  20
  -1   6   8 612.464 231.135  14
  -1   6   8 441.719 165.180  22
  -1   6   8 599.817 182.970  20
  -1   6   7 13509.5 878.275  14
  -1   6   7 13827.6 932.491  17
  -1   6   7 13299.6 870.540  22
  -1   6   6 13511.7 907.313  17
  -1   6   6 10998.0 830.769  14
  -1   6   6 11409.2 827.106  22
  -1   6   5 6754.79 613.707  17
  -1   6   5 5025.45 512.555  27
  -1   6   5 6700.77 555.428  24
  -1   6   4 9966.79 721.475   7
  -1   6   4 10099.9 775.111   9
  -1   6   4 11611.3 827.438  17
  -1   6   4 11262.2 785.738  22
  -1   6   4 12387.6 817.341  20
  -1   6   4 9268.68 759.160  27
  -1   6   4 10341.8 750.995  24
  -1   6   3 14366.4 939.791  17
  -1   6   3 12367.0 874.940   9
  -1   6   3 12791.1 848.906   7
  -1   6   3 11270.4 1184.19  29
  -1   6   3 14449.5 919.791  28
  -1   6   3 13370.7 884.406  24
  -1   6   3 14739.0 915.384  22
  -1   6   3 14748.0 923.462  20
  -1   6   3 13392.7 933.817  27
  -1   6   2 10588.9 717.775   9
  -1   6   2 9809.49 729.456  17
  -1   6   2 10685.7 696.179   7
  -1   6   2 10883.9 735.473  28
  -1   6   2 10771.6 1056.42  29
  -1   6   2 11424.6 752.924  20
  -1   6   2 8930.64 659.863  26
  -1   6   2 9590.23 740.043  27
  -1   6   2 11711.6 743.243  22
  -1   6   1 2419.78 276.851   7
  -1   6   1 2873.45 317.507  28
  -1   6   1 2068.58 464.578  29
  -1   6   1 2536.67 306.877  20
  -1   6   1 2351.21 286.280  22
  -1   6   0 25315.7 1851.90  29
  -1   6  -1 45538.5 3004.90  37
  -1   6  -2 27609.4 2107.98  37
  -1   6  -2 26957.9 1949.25  29
  -1   6  -3 17328.9 1449.01  29
  -1   6  -4 70570.7 4021.22  29
  -1   6  -5 20014.9 1139.01   6
   1  -6   5 19692.3 1119.12   8
  -1   6  -6 116.509 205.023  29
   1  -6   6 419.720 142.947   8
  -1   6  -6 480.045 144.136   6
   1  -6   7 2615.24 574.167  34
  -1   6  -7 3677.97 362.804   6
  -1   6  -8 18812.3 1124.02   6
   1  -6   8 18640.4 1128.23   8
   1  -6   9 27804.2 1630.87  33
  -1   6  -9 28166.6 1573.57   6
   1  -6   9 29646.4 1616.87   8
  -1   6 -10 7617.84 605.211  10
   1  -6  10 6097.31 585.163   8
  -1   6 -10 7087.90 549.168   6
   1  -6  10 8185.74 642.741  33
  -1   6 -11 18804.6 1058.11  10
   1  -6  11 16749.1 1069.50  33
   1  -6  11 15316.3 1004.08  21
  -1   6 -12 9284.68 593.870  10
   1  -6  12 7727.85 599.344  33
   1  -6  12 7762.53 560.834  21
  -1   6 -13 71.6167 72.5884  10
  -1   5  10 5837.41 411.666  19
  -1   5  10 5055.50 359.218  20
  -1   5   9 4546.58 422.697  19
  -1   5   9 4600.73 404.988  20
  -1   5   9 4945.05 375.782  22
  -1   5   8 11079.2 798.454  14
  -1   5   8 12931.9 844.949  20
  -1   5   8 13414.8 819.537  22
  -1   5   7 2534.96 400.989  14
  -1   5   7 1680.29 264.727  13
  -1   5   7 2555.01 393.784  17
  -1   5   7 2378.13 340.012  22
  -1   5   7 2225.90 345.033  20
  -1   5   6 608.610 311.444  14
  -1   5   6 727.232 268.592  17
  -1   5   6 580.857 199.320  24
  -1   5   6 599.431 235.131  22
  -1   5   5 3319.93 402.796   9
  -1   5   5 2887.06 404.132  17
  -1   5   5 2727.16 342.697  27
  -1   5   5 3066.38 376.635  22
  -1   5   5 2642.22 338.346  24
  -1   5   4 9115.40 654.943   7
  -1   5   4 10225.4 727.233   9
  -1   5   4 10794.8 754.710  17
  -1   5   4 9176.61 717.651  27
  -1   5   4 10798.4 707.679  24
  -1   5   3 10571.4 730.208  17
  -1   5   3 9773.69 709.025   9
  -1   5   3 10385.0 674.826   7
  -1   5   3 9994.92 958.236  29
  -1   5   3 10180.8 715.831  28
  -1   5   3 12381.6 754.608  20
  -1   5   3 11182.7 733.341  22
  -1   5   3 9983.06 740.002  27
  -1   5   3 11017.6 708.604  24
  -1   5   2 5257.79 644.798  29
  -1   5   1 3231.70 503.714  29
  -1   5   0 35680.4 2261.44  29
  -1   5   0 38301.4 2456.05  37
  -1   5  -1 131712. 6823.82  37
  -1   5  -2 368.974 247.683  29
  -1   5  -3 32744.9 2156.64  29
  -1   5  -3 37199.8 2315.40  30
  -1   5  -4 19561.0 1562.49  30
  -1   5  -4 19647.5 1454.68  29
  -1   5  -5 115135. 6034.44  30
  -1   5  -5 110892. 5784.24  29
  -1   5  -6 10816.3 1175.12  30
  -1   5  -6 11223.9 1002.50  29
   1  -5   7 11447.5 1171.62  35
   1  -5   7 12327.7 766.003   8
  -1   5  -7 13084.7 778.104   6
   1  -5   8 19977.0 1812.08  35
  -1   5  -8 24054.4 1292.36   6
   1  -5   8 21999.2 1293.03   8
   1  -5   9 450.237 194.744  16
  -1   5  -9 702.901 166.220   6
   1  -5   9 422.652 182.702   8
   1  -5   9 838.947 239.388  33
   1  -5  10 11144.5 805.080  16
  -1   5 -10 12630.8 816.893  10
   1  -5  10 13387.8 882.394  33
   1  -5  10 11279.0 800.138  21
  -1   5 -11 10918.6 735.262  10
   1  -5  11 11052.2 765.238  16
   1  -5  11 10526.0 784.000  33
   1  -5  11 9847.75 732.513  21
  -1   5 -12 4706.74 393.449  10
   1  -5  12 5297.18 441.828  16
   1  -5  12 5431.84 479.177  33
   1  -5  12 4546.96 419.984  21
   1  -5  13 6464.93 429.881  17
  -1   4  11 2032.03 203.944  19
  -1   4  10 708.257 170.939  20
  -1   4  10 691.209 205.846  19
  -1   4   9 840.215 260.128  14
  -1   4   9 582.692 211.545  20
  -1   4   9 609.679 187.347  22
  -1   4   9 514.316 237.366  19
  -1   4   8 2423.75 372.385  14
  -1   4   8 1742.37 262.955  16
  -1   4   8 2148.63 328.565  20
  -1   4   8 2364.67 375.189  19
  -1   4   8 2856.39 343.584  22
  -1   4   7 229.174 281.868  14
  -1   4   7 331.019 428.077  18
  -1   4   7 359.508 166.788  13
  -1   4   7 210.016 134.828  16
  -1   4   7 403.199 213.410  20
  -1   4   7 266.412 146.493  23
  -1   4   7 395.920 192.901  22
  -1   4   7 216.098 224.975  19
  -1   4   6 37249.0 1933.89  17
  -1   4   6 36685.6 1897.96  22
  -1   4   6 34794.8 1897.53  19
  -1   4   6 34085.5 1891.69  20
  -1   4   6 32583.1 1840.14  24
  -1   4   6 32408.8 1819.08  23
  -1   4   5 31374.9 1749.07   9
  -1   4   5 34431.7 1780.76  17
  -1   4   5 32172.3 2503.35  18
  -1   4   5 31706.6 1742.11  28
  -1   4   5 29396.9 1724.43  27
  -1   4   5 29202.1 1679.88  23
  -1   4   5 34986.6 1777.26  20
  -1   4   5 35453.1 1775.32  22
  -1   4   5 32351.9 1715.43  24
  -1   4   5 34168.1 1767.59  19
  -1   4   4 10250.6 701.485   9
  -1   4   4 10563.3 1202.71  18
  -1   4   4 10410.0 702.789  22
  -1   4   4 10671.0 710.604  19
  -1   4   3 7978.06 937.032  18
  -1   4   3 6725.69 673.023  29
  -1   4   2 1368.17 297.683  29
  -1   4   1 17288.3 1215.70  29
  -1   4   0 3996.66 509.672  29
  -1   4   0 4615.56 630.858  37
  -1   4  -1 9664.06 862.976  29
  -1   4  -1 12272.8 960.642  30
  -1   4  -2 69544.5 3662.25  29
  -1   4  -3 68974.5 3741.84  29
  -1   4  -3 74924.6 3879.88  30
  -1   4  -4 16821.4 1288.44  30
  -1   4  -4 15126.4 1142.36  29
  -1   4  -5 2428.50 485.467  30
  -1   4  -5 2946.30 433.227  29
  -1   4  -6 1904.21 456.760  30
   1  -4   6 2046.79 455.955  35
  -1   4  -6 1744.22 323.749  29
  -1   4  -7 38621.7 2532.84  30
   1  -4   7 37930.2 2587.12  35
   1  -4   7 37455.0 1939.62   8
   1  -4   8 7083.90 563.281  16
   1  -4   8 6961.66 983.716  35
   1  -4   8 6972.03 590.297  33
   1  -4   8 6528.32 538.540   8
   1  -4   9 23100.1 1359.32  16
   1  -4   9 20651.4 1306.50   8
  -1   4 -10 9853.44 697.804  10
   1  -4  10 10247.1 761.111  16
   1  -4  10 10058.5 782.275  33
   1  -4  10 8655.80 706.707  21
  -1   4 -11 5183.48 453.618  10
   1  -4  11 5535.76 526.867  16
   1  -4  11 6119.71 559.302  33
   1  -4  11 5252.52 492.357  21
   1  -4  12 1120.13 236.616  16
   1  -4  12 886.339 215.155  33
   1  -4  12 1078.31 215.853  21
   1  -4  13 128.916 112.498  17
  -1   3  11 24071.6 1296.10  19
  -1   3  10 36855.1 2055.35  16
  -1   3  10 41300.4 2101.78  20
  -1   3   9 8734.94 673.296  16
  -1   3   9 8941.79 651.347  14
  -1   3   9 9895.89 665.757  22
  -1   3   9 9831.74 718.095  20
  -1   3   9 10215.3 750.492  19
  -1   3   8 8989.91 691.949  16
  -1   3   8 9727.21 704.470  14
  -1   3   8 11226.5 1495.35  18
  -1   3   8 9975.24 707.086  22
  -1   3   8 9750.33 750.318  19
  -1   3   8 8640.58 691.508  23
  -1   3   8 11227.7 770.163  20
  -1   3   7 1255.48 288.283   9
  -1   3   7 1317.04 299.557  14
  -1   3   7 1237.76 229.367  16
  -1   3   7 2050.01 691.001  18
  -1   3   7 1307.96 229.116  11
  -1   3   7 1420.88 269.818  22
  -1   3   7 1102.86 229.460  23
  -1   3   7 1467.36 285.009  20
  -1   3   7 1386.67 277.552  19
  -1   3   6 20497.6 1192.64   9
  -1   3   6 23552.6 1976.73  18
  -1   3   6 21936.5 1215.69  17
  -1   3   6 18718.9 1138.00  11
  -1   3   6 18612.8 1123.77  16
  -1   3   6 18779.2 1143.23  23
  -1   3   6 21541.4 1193.15  19
  -1   3   6 17517.7 1120.76  24
  -1   3   6 21463.7 1181.12  22
  -1   3   6 20962.0 1190.79  20
  -1   3   5-73.7669 355.625  18
  -1   3   4 5327.37 774.257  18
  -1   3   3 127179. 6482.21  18
  -1   3   3 125899. 6102.99  29
  -1   3   2 9124.52 884.650  18
  -1   3   2 9096.37 711.617  29
  -1   3   1 11617.8 847.999  29
  -1   3   1 12178.0 985.056  37
  -1   3   0 29348.5 1740.92  37
  -1   3   0 26376.2 1581.60  30
  -1   3  -1 17830.6 1170.21  32
  -1   3  -1 16496.7 1097.81  29
  -1   3  -2 5391.74 591.686  32
  -1   3  -2 6935.54 630.569  30
  -1   3  -2 6166.89 563.541  29
  -1   3  -3 9663.76 756.766  29
  -1   3  -3 10264.4 837.520  30
  -1   3  -4 62638.9 3298.25  29
  -1   3  -4 68259.8 3485.41  30
  -1   3  -5 21575.5 1474.83  30
  -1   3  -5 20101.8 1266.12  29
   1  -3   6 9959.82 1037.69  35
  -1   3  -6 10618.9 982.589  30
   1  -3   7 15056.4 927.985  16
  -1   3  -7 14906.9 1273.15  30
   1  -3   7 15651.0 1461.49  35
   1  -3   8 2187.56 308.463  16
   1  -3   8 1675.17 266.617   8
   1  -3   8 2435.51 333.988  33
   1  -3   8 2379.45 616.647  35
  -1   3  -9 15734.2 1001.61  10
   1  -3   9 17412.3 1097.90  16
   1  -3   9 17212.5 1105.93  33
   1  -3   9 16888.6 1053.74  21
   1  -3  10 5622.14 552.307  16
   1  -3  10 5427.60 1099.21  18
  -1   3 -10 5375.05 470.152  10
   1  -3  10 6135.80 576.552  33
   1  -3  10 6116.98 541.256  21
   1  -3  11 22409.4 1384.52  16
   1  -3  11 24479.7 1421.63  33
   1  -3  11 22576.1 1336.04  21
   1  -3  12 13955.5 886.068  16
   1  -3  12 12661.6 832.189  17
   1  -3  12 13341.6 886.509  33
   1  -3  13 1495.96 184.822  17
  -1   2  12 2422.88 255.909  19
  -1   2  11 10913.5 706.568  16
  -1   2  11 11282.4 738.822  19
  -1   2  11 9890.61 662.695  20
  -1   2  10 824.902 217.022  16
  -1   2  10 1409.16 280.910  19
  -1   2  10 1206.00 252.129  20
  -1   2   9 46089.8 3494.18  18
  -1   2   9 46307.1 2476.62  16
  -1   2   9 45903.9 2384.00  22
  -1   2   9 47649.4 2470.01  20
  -1   2   9 49405.1 2504.50  19
  -1   2   8 29597.4 1773.26  11
  -1   2   8 33184.5 2698.80  18
  -1   2   8 31682.1 1721.18  14
  -1   2   8 33319.7 1808.75  16
  -1   2   8 32044.9 1810.54  23
  -1   2   8 35174.4 1824.06  20
  -1   2   8 33914.6 1765.03  22
  -1   2   8 34008.1 1820.58  19
  -1   2   7 15169.6 954.546  14
  -1   2   7 17268.5 1726.36  18
  -1   2   7 16815.7 1021.44   9
  -1   2   7 15342.1 992.257  11
  -1   2   7 16240.0 1006.32  16
  -1   2   7 17033.1 1028.29  19
  -1   2   7 17193.3 1026.18  20
  -1   2   7 17890.4 1006.65  22
  -1   2   7 15458.7 1010.56  23
  -1   2   6 15245.9 1475.69  18
  -1   2   6 14820.7 910.790   9
  -1   2   6 14902.7 905.449  19
  -1   2   5 60.7086 332.938  18
  -1   2   4 4335.28 659.670  18
  -1   2   3 5278.99 606.336  18
  -1   2   3 3693.81 384.682  29
  -1   2   2 4045.72 480.524  18
  -1   2   2 3348.22 344.257  29
  -1   2   2 3278.73 372.210  32
  -1   2   1 166122. 8113.65  29
  -1   2   1 170533. 8084.44  30
  -1   2   1 183170. 8283.39  37
  -1   2   1 179548. 8170.78  32
  -1   2   0 40266.9 2063.35  30
  -1   2  -1 35684.3 1881.34  32
  -1   2  -1 35031.6 1849.71  29
  -1   2  -2 11351.5 739.477  29
  -1   2  -2 9697.44 744.936  32
  -1   2  -3 2298.33 320.270  32
  -1   2  -3 3199.65 395.684  30
  -1   2  -3 2711.76 308.388  29
  -1   2  -4 6424.48 506.197  29
  -1   2  -4 6625.46 616.744  30
   1  -2   5 32424.2 2113.00  35
  -1   2  -5 32945.4 1948.10  30
  -1   2  -6 23543.7 1570.81  30
   1  -2   6 24031.0 1820.63  35
   1  -2   7 32333.5 1792.45  16
   1  -2   7 34813.8 1819.27  33
   1  -2   7 35920.1 2530.23  35
   1  -2   8 38192.8 2044.98  16
   1  -2   8 38082.4 2059.25  33
   1  -2   8 37426.2 1990.07  21
   1  -2   9 3232.82 414.926  16
   1  -2   9 3499.16 836.440  18
   1  -2   9 4084.80 451.934  33
   1  -2   9 2958.66 389.989  21
   1  -2  10 2689.42 376.971  16
   1  -2  10 2267.88 361.406  33
   1  -2  10 2744.50 363.680  21
   1  -2  11 462.713 242.429  16
   1  -2  11 301.427 177.338  33
   1  -2  11 585.724 192.351  20
   1  -2  12 1074.47 234.299  16
   1  -2  12 916.269 217.594  17
   1  -2  12 948.550 202.193  33
   1  -2  13 1873.23 192.573  17
  -1   1  13 357.416 124.581  17
  -1   1  12 5699.02 442.920  16
  -1   1  12 5857.91 491.406  17
  -1   1  12 5118.19 436.038  19
  -1   1  11 5190.87 496.877  17
  -1   1  11 4626.42 455.200  16
  -1   1  11 4282.99 403.786  20
  -1   1  11 4920.38 463.866  19
  -1   1  10 9105.05 724.519  16
  -1   1  10 10393.3 757.599  19
  -1   1  10 9199.14 690.440  20
  -1   1   9 60322.0 4272.67  18
  -1   1   9 63627.0 3273.56  16
  -1   1   9 66035.4 3267.90  19
  -1   1   9 63735.1 3229.95  20
  -1   1   8 40955.0 2929.86  18
  -1   1   8 38800.6 2017.54  16
  -1   1   8 33356.0 1969.89  11
  -1   1   8 38881.9 2049.08  33
  -1   1   8 36017.3 2010.26  23
  -1   1   8 36951.1 1971.71  20
  -1   1   8 38264.8 1993.33  19
  -1   1   7 13794.4 867.685   9
  -1   1   7 13707.8 882.698  16
  -1   1   7 15781.6 1533.22  18
  -1   1   7 13367.9 879.567  11
  -1   1   7 14823.9 922.116  33
  -1   1   7 12841.7 878.082  23
  -1   1   7 14292.9 878.827  20
  -1   1   7 15431.8 901.543  19
  -1   1   6 60030.6 3441.28  18
  -1   1   6 54433.0 2754.96  33
  -1   1   5 272006. 12536.5  33
   1  -1  -4 75069.8 3495.93   1
  -1   1   3 27365.1 1408.07  32
  -1   1   2 5064.56 381.317  29
  -1   1   2 4707.18 368.037  32
  -1   1   1 164332. 7500.75  30
  -1   1   1 160960. 7559.12  29
  -1   1   0 40143.3 1985.87  32
  -1   1  -1 45678.3 2241.71  32
  -1   1  -1 45856.2 2236.38  29
  -1   1  -2 3980.53 322.322  29
  -1   1  -2 3793.39 320.053  32
  -1   1  -3 78996.7 3754.33  32
   1  -1   4 36154.9 1804.99   1
   1  -1   4 53770.6 2446.77  35
   1  -1   5 81944.3 4508.89  35
  -1   1  -5 83427.8 4177.82  30
   1  -1   6 28494.6 2117.38  35
   1  -1   7 1725.43 265.258  16
   1  -1   7 1758.42 260.484  21
   1  -1   8 44011.4 3180.72  18
   1  -1   8 42672.3 2307.79  16
   1  -1   8 43854.4 2257.39  21
   1  -1   9-107.901 399.076  18
   1  -1   9 236.811 199.636  16
   1  -1   9 322.785 204.654  21
   1  -1  10 16788.2 1089.23  16
   1  -1  10 17956.4 1082.92  19
   1  -1  11 11313.6 786.122  17
   1  -1  11 11659.3 800.924  19
   1  -1  11 10421.1 745.605  20
   1  -1  12 7443.83 542.280  17
  -1   0  13 1003.13 168.240  16
  -1   0  13 544.135 173.091  17
  -1   0  13 694.908 153.438  19
  -1   0  12 327.476 211.298  17
  -1   0  12 533.857 200.151  16
  -1   0  12 298.543 188.821  19
  -1   0  11 3514.28 413.583  16
  -1   0  11 3166.21 419.178  17
  -1   0  11 2902.09 380.746  33
  -1   0  11 3391.27 391.305  19
  -1   0  11 2294.56 294.423  20
  -1   0  10 8357.71 693.774  16
  -1   0  10 8716.01 717.204  33
  -1   0  10 7245.22 613.753  20
  -1   0  10 9944.52 723.558  21
  -1   0  10 8815.20 690.493  19
  -1   0   9 28270.1 1644.51  16
  -1   0   9 28901.5 1665.32  33
  -1   0   9 30268.6 1634.10  19
  -1   0   9 30168.3 1639.13  21
  -1   0   9 26585.9 1572.57  20
  -1   0   8 59498.0 3000.59  16
  -1   0   8 59946.8 3015.43  33
  -1   0   8 56758.8 3001.92  23
  -1   0   8 59864.7 2947.84  20
  -1   0   8 59389.0 2962.92  19
  -1   0   7 65988.5 3262.08  33
  -1   0   6 58920.5 2886.90  33
  -1   0   5 293.585 112.351  33
  -1   0   4 89106.8 4030.96  32
   1   0  -4 85667.1 4036.59   2
   1   0  -3 381937. 17454.0   1
   1   0  -2 14307.4 773.938   1
  -1   0   1 55507.1 2761.12  18
   1   0  -1 63218.3 2800.50   1
  -1   0   0 99494.4 4630.59  34
   1   0   1 1058.36 155.951   1
   1   0   2 3324.68 267.808   1
  -1   0  -3 4127.59 249.096  32
   1   0   3 3311.28 242.719   2
   1   0   4 90687.3 4289.11  33
   1   0   4 93133.2 4797.66  35
   1   0   5 26278.3 1831.25  35
   1   0   5 22643.2 1244.16  33
   1   0   6 7146.72 942.517  18
   1   0   6 6789.39 528.635  33
   1   0   7 12549.7 760.710   9
   1   0   7 10487.2 788.954  16
   1   0   7 13677.1 1436.50  18
   1   0   7 11906.7 815.534  33
   1   0   7 12098.0 793.415  21
   1   0   8 7413.01 540.367   9
   1   0   8 7514.60 1175.60  18
   1   0   8 6448.59 585.181  16
   1   0   8 6170.59 581.391  33
   1   0   8 6273.58 529.832  22
   1   0   8 7217.08 583.141  21
   1   0   8 6377.41 586.353  19
   1   0   9 8111.86 701.364  16
   1   0   9 7976.59 1263.54  18
   1   0   9 8538.63 713.595  33
   1   0   9 8388.89 684.316  20
   1   0   9 8508.62 691.926  19
   1   0  10 197.261 216.416  17
   1   0  10 277.144 214.944  16
   1   0  10 206.686 184.312  33
   1   0  10 424.431 211.068  20
   1   0  10 644.032 266.619  19
   1   0  11 192.065 185.368  17
   1   0  11 285.596 175.803  16
   1   0  11 333.771 169.533  33
   1   0  11 337.792 183.639  20
   1   0  11 374.519 220.460  19
   1   0  12 7423.92 525.559  17
   1   0  12 8527.30 556.978  19
  -1  -1  13 7963.49 569.941  17
  -1  -1  13 6847.29 513.778  19
  -1  -1  12 14891.1 944.919  19
  -1  -1  11 16658.2 1095.12  16
  -1  -1  11 18070.0 1127.23  33
  -1  -1  11 17325.7 1075.61  19
  -1  -1  11 19052.3 1106.33  21
  -1  -1  10 959.281 515.902  18
  -1  -1  10 1350.74 285.419  16
  -1  -1  10 905.126 251.343  33
  -1  -1  10 921.930 217.303  20
  -1  -1  10 936.580 284.308  21
  -1  -1  10 1107.06 272.976  19
  -1  -1   9 9767.89 725.802  16
  -1  -1   9 9550.35 1249.29  18
  -1  -1   9 9475.11 724.704  33
  -1  -1   9 8229.57 642.673  20
  -1  -1   9 10071.7 722.926  21
  -1  -1   8 4371.98 777.182  18
  -1  -1   8 3013.41 356.077  16
  -1  -1   8 3497.94 383.169  33
  -1  -1   8 3942.29 390.872  21
  -1  -1   7 18277.8 1516.23  18
  -1  -1   7 16170.2 974.165  33
  -1  -1   6 53166.1 2601.71  33
   1   1  -5 29475.6 1455.75  29
  -1  -1   4 86605.5 3882.81  34
   1   1  -4 76896.4 3901.53   2
  -1  -1   3 93958.0 4397.41  34
   1   1  -3 92076.1 4423.21   2
  -1  -1   2 4337.11 348.618  34
   1   1  -2 4572.51 368.134   2
  -1  -1   1 121218. 5681.46  34
   1   1   0 51416.7 2489.39  18
  -1  -1   0 54314.7 2567.99  34
   1   1   1 35625.5 1837.78  18
   1   1   1 33814.9 1864.49  35
  -1  -1  -1 36275.2 1795.44  34
   1   1   1 36134.8 1806.92   2
   1   1   2 43977.2 2370.67  18
  -1  -1  -2 47520.7 2191.74  34
   1   1   2 44897.6 2423.84  35
   1   1   2 42057.3 2205.50   2
   1   1   3 703.253 293.452  18
   1   1   3 316.182 104.136  29
   1   1   4 25068.6 1681.37  18
   1   1   4 22961.0 1223.40  33
   1   1   5 17757.5 1491.43  18
   1   1   5 16937.4 983.916  33
   1   1   6 9247.15 1120.09  18
   1   1   6 8602.80 608.535   9
   1   1   6 8537.83 627.270  16
   1   1   6 8938.68 634.517  33
   1   1   6 9148.42 637.154  19
   1   1   6 8470.96 617.278  21
   1   1   7 1115.27 240.597  16
   1   1   7 1281.04 504.758  18
   1   1   7 1277.97 245.326   9
   1   1   7 1263.19 250.585  33
   1   1   7 1129.73 261.135  19
   1   1   7 1204.15 241.607  22
   1   1   8 297.165 198.733  16
   1   1   8 419.697 324.717  18
   1   1   8 393.952 245.542  17
   1   1   8 178.358 173.663   9
   1   1   8 102.693 159.130  33
   1   1   8 121.979 205.913  20
   1   1   8 287.502 186.236  22
   1   1   8 141.735 214.158  19
   1   1   9 41089.4 2185.01  17
   1   1   9 41008.0 2197.78  16
   1   1   9 38960.6 2193.59  33
   1   1   9 36801.7 2077.54  22
   1   1   9 42955.9 2209.58  19
   1   1   9 42428.1 2204.77  20
   1   1  10 23712.0 1376.35  17
   1   1  10 22564.3 1369.21  16
   1   1  10 21996.7 1371.13  33
   1   1  10 23572.0 1367.56  20
   1   1  10 25588.6 1399.50  19
   1   1  11 4759.41 416.110  16
   1   1  11 4381.26 422.719  17
   1   1  11 4183.90 390.062  20
   1   1  11 5634.25 455.082  19
   1   1  12 1595.28 174.301  17
   1   1  12 1490.16 188.036  19
  -1  -2  14 1984.36 212.283  16
  -1  -2  14 1499.43 212.807  17
  -1  -2  13 381.227 169.795  16
  -1  -2  13 140.624 175.501  17
  -1  -2  13 153.615 152.613  19
  -1  -2  12 2485.05 358.208  16
  -1  -2  12 2406.39 334.710  33
  -1  -2  12 2564.26 345.175  19
  -1  -2  12 3071.63 385.575  21
  -1  -2  11 17823.3 1168.44  16
  -1  -2  11 17459.0 1161.59  33
  -1  -2  11 17279.0 1129.96  19
  -1  -2  11 19916.2 1170.40  21
  -1  -2  10 4812.39 921.682  18
  -1  -2  10 4595.52 492.970  16
  -1  -2  10 5180.16 506.659  33
  -1  -2  10 4571.84 489.452  21
  -1  -2   9 44957.8 2361.62  16
  -1  -2   9 43205.5 3128.05  18
  -1  -2   9 44722.1 2352.29  33
  -1  -2   8 8881.99 642.203  16
  -1  -2   8 8468.34 623.392  15
  -1  -2   8 8936.84 643.685  33
  -1  -2   8 9454.94 667.105  23
  -1  -2   7 4491.95 384.676  33
  -1  -2   6-11.5690 95.6502  33
  -1  -2   6-23.8880 69.8299  34
   1   2  -5 1817.79 286.161  29
  -1  -2   5 2511.05 283.336  34
  -1  -2   4 51502.7 2624.02  34
  -1  -2   3 4382.17 426.168  34
   1   2  -3 4207.14 436.749   2
   1   2  -2 999999. 45683.3   2
   1   2  -1 511721. 23527.6  37
  -1  -2   1 518862. 23651.7  34
   1   2   0 6724.97 508.899  18
  -1  -2   0 5648.72 516.048  34
   1   2   0 6742.92 555.188   2
   1   2   1 16477.0 1027.13  18
  -1  -2  -1 15043.3 973.821  34
   1   2   2 19126.2 1277.36  18
  -1  -2  -2 19224.3 1123.63  34
   1   2   3 45791.5 2591.47  18
   1   2   3 43961.0 2234.30  29
  -1  -2  -3 43443.1 2202.45  34
   1   2   4 29537.0 2034.06  18
   1   2   4 29694.4 1540.44  33
   1   2   5 17273.3 1020.45  17
   1   2   5 17349.3 1538.23  18
   1   2   5 16897.4 1004.64  33
   1   2   5 16932.4 1008.59  19
   1   2   6 53267.3 2653.09   9
   1   2   6 49845.4 2640.01  16
   1   2   6 54083.2 2676.09  17
   1   2   6 60345.5 3590.12  18
   1   2   6 49676.6 2652.17  33
   1   2   6 50071.0 2600.55  28
   1   2   6 53697.7 2676.78  22
   1   2   6 52656.9 2671.72  19
   1   2   7 18192.5 1806.45  18
   1   2   7 16651.3 1073.79  16
   1   2   7 17184.6 1072.96   9
   1   2   7 17383.2 1105.67  17
   1   2   7 16531.9 1087.57  33
   1   2   7 16778.0 1099.27  19
   1   2   7 17878.4 1094.59  22
   1   2   8 802.478 266.171  17
   1   2   8 213.747 468.960  18
   1   2   8 688.661 223.366  16
   1   2   8 932.928 252.476   9
   1   2   8 989.794 250.923  33
   1   2   8 706.475 266.361  20
   1   2   8 1050.66 277.897  19
   1   2   8 764.789 231.395  22
   1   2   9 929.803 283.196  17
   1   2   9 906.415 216.623  16
   1   2   9 1145.80 237.681  22
   1   2   9 997.578 262.896  20
   1   2   9 1199.43 297.842  19
   1   2  10 5905.00 516.506  17
   1   2  10 5194.46 461.454  16
   1   2  10 6365.96 527.489  19
   1   2  10 5641.03 488.699  20
   1   2  11 11948.7 716.972  17
   1   2  11 10739.5 677.083  20
   1   2  11 12593.8 726.016  19
  -1  -3  14 4938.91 408.169  17
  -1  -3  14 4277.66 360.433  19
  -1  -3  13 1687.92 265.718  16
  -1  -3  13 1458.44 242.810  33
  -1  -3  13 1684.81 254.553  19
  -1  -3  13 1373.58 261.674  21
  -1  -3  12 1033.19 252.418  16
  -1  -3  12 1005.71 235.185  33
  -1  -3  12 1214.86 255.822  19
  -1  -3  12 1148.32 275.240  21
  -1  -3  11 50.0236 170.757  16
  -1  -3  11 515.845 269.876  18
  -1  -3  11 175.434 158.056  33
  -1  -3  11 277.646 224.891  21
  -1  -3  10 787.431 463.521  18
  -1  -3  10 1131.58 262.139  16
  -1  -3  10 1392.90 263.012  33
  -1  -3   9 5635.23 505.786  16
  -1  -3   9 5695.74 505.810  33
  -1  -3   8 17262.4 1016.67  15
  -1  -3   8 17320.0 1023.24  16
  -1  -3   8 16357.5 1010.26  33
  -1  -3   7 93963.4 4477.43  33
  -1  -3   6 65064.2 3221.30  33
  -1  -3   6 72269.4 3462.46  34
   1   3  -6 69098.5 3488.64  29
  -1  -3   5 57275.6 2916.16  34
   1   3  -5 52192.7 2933.46  29
  -1  -3   4 4343.63 496.928  34
  -1  -3   3 1645.18 323.487  34
  -1  -3   2 977249. 44797.8  34
  -1  -3   1 61984.4 3327.04  34
   1   3  -1 65237.1 3227.07  37
  -1  -3   0 22097.0 1406.45  34
   1   3   1 15680.2 1130.43  18
  -1  -3  -1 17069.2 1136.95  34
   1   3   1 15355.7 1131.50  29
   1   3   2 41789.4 2526.37  18
  -1  -3  -2 45731.0 2397.71  34
   1   3   2 43081.9 2409.21  29
   1   3   3 8989.43 939.687  18
   1   3   3 9316.03 574.972  33
   1   3   3 8381.38 679.506  29
   1   3   4 1112.96 455.543  18
   1   3   4 1087.15 192.466  33
   1   3   5 16840.7 1025.57   9
   1   3   5 15486.8 973.890  16
   1   3   5 15244.5 1547.90  18
   1   3   5 17333.2 1043.74  17
   1   3   5 15824.4 992.474  33
   1   3   5 16009.0 998.253  28
   1   3   5 16980.7 1042.37  20
   1   3   5 17132.4 1044.61  22
   1   3   5 16911.0 1030.54  19
   1   3   6 21139.3 1228.85  17
   1   3   6 20015.5 1190.56   9
   1   3   6 16900.4 1125.87  16
   1   3   6 20193.5 1897.24  18
   1   3   6 18982.4 1169.70  33
   1   3   6 19052.2 1154.58  28
   1   3   6 20385.4 1215.59  19
   1   3   6 19296.5 1197.19  22
   1   3   7 17088.8 1863.29  18
   1   3   7 17434.6 1148.28  16
   1   3   7 19585.3 1202.80   9
   1   3   7 21083.1 1243.93  17
   1   3   7 19139.1 1216.53  19
   1   3   7 20067.1 1215.41  22
   1   3   8 19769.8 1182.30  17
   1   3   8 17530.7 1036.73  14
   1   3   8 18948.2 1133.25   9
   1   3   8 20209.8 1179.17  19
   1   3   8 17373.9 1103.38  22
   1   3   9 7845.09 638.744  17
   1   3   9 8002.19 634.192  19
   1   3   9 7613.06 616.210  20
   1   3   9 7459.93 558.345  22
   1   3  10 355.698 184.882  17
   1   3  10 570.893 161.811  20
   1   3  10 394.975 180.554  19
   1   3  11 61.1723 70.2402  19
  -1  -4  14 1969.61 252.346  17
  -1  -4  14 2678.54 244.026  16
  -1  -4  14 1888.08 225.524  19
  -1  -4  13 11616.0 754.348  16
  -1  -4  13 10222.1 732.271  33
  -1  -4  13 12663.9 784.103  21
  -1  -4  13 10886.1 735.562  19
  -1  -4  12 6029.18 542.187  16
  -1  -4  12 5951.76 536.438  33
  -1  -4  12 7322.00 589.424  21
  -1  -4  11 1291.39 549.248  18
  -1  -4  11 1826.10 298.020  16
  -1  -4  11 1644.78 279.478  33
  -1  -4  11 1217.71 296.455  21
  -1  -4  10 7649.13 1161.15  18
  -1  -4  10 8275.44 657.183  16
  -1  -4  10 9018.86 665.201  33
  -1  -4  10 7516.66 589.311   8
  -1  -4   9 8196.38 624.368  16
  -1  -4   9 8193.60 622.504  33
   1   4  -9 8485.44 601.531   6
  -1  -4   9 7868.00 577.821   8
  -1  -4   8 1490.77 226.750  15
  -1  -4   8 1449.02 227.865  16
  -1  -4   8 1794.43 245.464  33
  -1  -4   8 1920.96 227.120   8
  -1  -4   7 206.249 139.636  34
  -1  -4   7 258.389 121.566  33
   1   4  -6 13698.4 1130.71  29
  -1  -4   6 15723.8 1159.09  34
   1   4  -5 95153.5 4940.22  29
  -1  -4   5 94984.5 4917.03  34
  -1  -4   4 32095.3 2016.06  34
   1   4  -4 32633.5 2056.92  29
   1   4  -3 3915.67 549.884  29
  -1  -4   2 1477.69 356.164  34
   1   4  -2 1622.99 366.678  29
   1   4  -2 1485.61 331.585  37
   1   4  -1 28751.9 1654.66  37
  -1  -4   1 25514.5 1725.98  34
   1   4  -1 24285.8 1716.16  29
  -1  -4   0 1919.91 390.652  34
   1   4   0 1858.97 392.116  29
   1   4   1 1400.49 344.074  29
  -1  -4  -1 1651.12 367.659  34
   1   4   2 72853.0 4181.36  18
  -1  -4  -2 78526.1 4022.75  34
   1   4   2 76269.5 4018.94  29
   1   4   3 46311.5 2301.36  17
   1   4   3 43737.4 2856.49  18
   1   4   3 42677.4 2261.43   9
   1   4   3 45575.3 2476.31  29
   1   4   3 43680.6 2269.78  20
   1   4   3 44964.0 2288.08  22
   1   4   4 21953.9 1304.74  17
   1   4   4 24511.1 1942.13  18
   1   4   4 21015.5 1269.25   9
   1   4   4 21686.4 1271.17  28
   1   4   4 20844.6 1202.71  24
   1   4   4 23671.1 1298.54  19
   1   4   4 22369.4 1293.20  20
   1   4   5 8305.51 700.216  17
   1   4   5 8591.63 1159.65  18
   1   4   5 8334.96 654.133  28
   1   4   5 8456.55 682.929  19
   1   4   5 8825.66 692.610  20
   1   4   5 8134.95 670.375  22
   1   4   6 13151.8 1580.90  18
   1   4   6 14145.1 986.013  17
   1   4   6 13469.2 954.299   9
   1   4   6 14149.1 940.876  28
   1   4   6 14818.9 979.867  22
   1   4   6 14179.8 972.679  19
   1   4   6 13692.7 965.806  20
   1   4   7 212.106 213.699   9
   1   4   7 156.023 142.274  16
   1   4   7 477.737 259.852  17
   1   4   7 187.076 203.040  22
   1   4   7 343.627 245.419  19
   1   4   8 2609.54 378.640  17
   1   4   8 2175.95 305.556  14
   1   4   8 2357.17 349.965  19
   1   4   8 2317.05 312.388  22
   1   4   9 10927.2 725.161  17
   1   4   9 11178.5 719.706  19
   1   4   9 9680.07 637.348  22
   1   4  10 2186.35 210.543  20
   1   4  10 2097.93 228.895  19
  -1  -5  14 2617.42 221.303  16
  -1  -5  14 2223.82 237.034  19
  -1  -5  14 2289.82 263.369  21
   1   5 -13 1015.22 178.589  10
  -1  -5  13 958.382 189.317  16
  -1  -5  13 967.782 187.050  33
  -1  -5  13 937.799 216.504  19
  -1  -5  13 1642.92 263.410  21
  -1  -5  12 190.514 155.984  16
  -1  -5  12 39.2293 125.686  33
  -1  -5  12 142.887 209.469  21
  -1  -5  11 666.092 204.626  16
  -1  -5  11 536.130 183.661  33
  -1  -5  11 532.371 171.885   8
   1   5 -11 279.337 126.146   6
  -1  -5  10 16712.3 1062.91  16
  -1  -5  10 16664.3 1069.65  33
   1   5 -10 18339.0 1064.61   6
  -1  -5  10 17578.5 1049.16   8
  -1  -5   9 7757.73 601.864  16
   1   5  -9 8969.03 638.870   6
  -1  -5   9 8520.61 604.077   8
  -1  -5   9 8646.92 629.701  33
  -1  -5   8 17082.3 974.204   8
   1   5  -8 17114.6 1012.95   6
  -1  -5   8 15339.4 958.937  33
  -1  -5   7 5571.25 429.854   8
  -1  -5   7 5130.61 407.902  33
  -1  -5   7 5899.33 709.106  34
   1   5  -7 5479.99 713.655  29
  -1  -5   6 21624.3 1596.89  34
   1   5  -6 20316.0 1588.52  29
   1   5  -5 18508.2 1488.39  29
  -1  -5   5 19300.2 1497.94  34
   1   5  -4 5060.06 694.129  29
  -1  -5   4 5371.94 713.821  34
   1   5  -3 47587.8 2900.22  29
   1   5  -3 47903.4 2776.61  37
   1   5  -2 62836.3 3506.81  37
  -1  -5   2 66379.0 3695.62  34
  -1  -5   1 80525.2 4433.88  34
   1   5  -1 80547.4 4417.89  29
  -1  -5   0 58580.1 3379.86  34
   1   5   0 56192.6 3327.75  29
  -1  -5  -1 31847.8 2132.14  34
   1   5   1 32376.0 2125.09  29
   1   5   2 726.901 226.881  17
   1   5   2 400.926 165.353   9
   1   5   2 994.805 294.368  29
  -1  -5  -2 688.657 258.672  34
   1   5   2 530.392 188.064  20
   1   5   2 424.929 177.632  19
   1   5   2 983.757 221.798  22
   1   5   3 6551.66 483.821   7
   1   5   3 6682.08 560.172   9
   1   5   3 7222.28 606.034  17
   1   5   3 7271.87 589.793  19
   1   5   3 6440.07 557.462  20
   1   5   3 7623.07 595.053  22
   1   5   4 8091.56 698.266  17
   1   5   4 8223.77 668.002   9
   1   5   4 7622.42 650.278  28
   1   5   4 8214.81 672.096  19
   1   5   4 8842.87 680.677  20
   1   5   4 9550.80 704.613  22
   1   5   4 7889.75 604.410  24
   1   5   5 30377.5 1678.97  17
   1   5   5 27945.6 1619.91   9
   1   5   5 29371.4 1622.00  28
   1   5   5 28361.4 1626.96  20
   1   5   5 29277.1 1645.45  19
   1   5   5 24915.1 1504.88  24
   1   5   6 16566.5 1117.64  17
   1   5   6 15178.8 1056.80  22
   1   5   6 17220.7 1093.09  20
   1   5   6 17013.6 1096.22  19
   1   5   7 11933.3 839.124  17
   1   5   7 10116.2 737.516  14
   1   5   7 11635.5 816.712  19
   1   5   7 11260.6 776.760  22
   1   5   7 11045.2 792.159  20
   1   5   8 10220.6 667.885  22
   1   5   8 10398.2 711.603  19
   1   5   9 2203.02 232.884  19
   1   5   9 1788.37 173.062  22
   1   6 -14 5948.96 337.664  10
  -1  -6  14 5100.02 384.585  21
   1   6 -13 5089.72 401.591  10
  -1  -6  13 4533.08 426.802  21
  -1  -6  12 10596.8 766.219   8
   1   6 -12 14002.5 771.373   6
  -1  -6  11 13971.6 935.276   8
   1   6 -11 16015.1 940.267   6
  -1  -6  11 14184.1 919.708  33
  -1  -6  10 761.680 204.825   8
   1   6 -10 911.141 203.076   6
  -1  -6  10 789.497 183.690  33
  -1  -6   9 671.763 187.227   8
   1   6  -9 912.500 203.156   6
   1   6  -8 28994.7 1574.81   6
  -1  -6   8 27303.7 1524.33   8
  -1  -6   8 28269.0 2009.15  34
   1   6  -7 13350.3 842.294   6
  -1  -6   7 12515.6 806.461   8
   1   6  -7 12357.4 1230.09  29
  -1  -6   7 12587.1 1239.80  34
  -1  -6   6 7902.12 952.067  34
   1   6  -6 7862.64 963.855  29
   1   6  -5 7500.90 958.124  29
  -1  -6   5 8966.04 1019.61  34
   1   6  -4 45945.8 2979.60  29
   1   6  -4 46896.6 2888.42  37
  -1  -6   3 1297.44 444.271  34
   1   6  -3 2083.34 496.921  29
   1   6  -3 1866.61 434.611  37
  -1  -6   2 2129.41 510.769  34
  -1  -6   1 2484.46 547.393  34
   1   6  -1 2575.33 552.493  29
   1   6   0 32425.3 1711.00   7
  -1  -6   0 36381.5 2414.99  34
   1   6   0 34985.9 2324.27  29
   1   6   0 33394.7 1763.59  19
   1   6   0 31044.9 1717.21  22
   1   6   1 69140.4 3476.11   9
   1   6   1 71290.3 3457.20   7
   1   6   1 72164.1 4075.00  29
   1   6   1 66594.1 3494.44  28
  -1  -6  -1 72720.8 4148.93  34
   1   6   1 72357.7 3511.07  22
   1   6   1 73113.9 3534.38  19
   1   6   1 72058.1 3493.69  20
   1   6   2 11313.9 790.911   9
   1   6   2 12340.6 861.808  17
   1   6   2 11109.8 729.734   7
   1   6   2 11927.2 1094.37  29
   1   6   2 10692.1 795.387  28
   1   6   2 11450.1 806.897  22
   1   6   2 11164.7 815.069  19
   1   6   2 12017.3 803.080  20
   1   6   3 21041.1 1303.48  17
   1   6   3 20244.4 1237.93   9
   1   6   3 19945.7 1145.79   7
   1   6   3 18759.8 1229.11  28
   1   6   3 21889.2 1287.00  19
   1   6   3 20221.1 1234.41  20
   1   6   3 21121.8 1262.32  22
   1   6   3 19786.6 1201.97  24
   1   6   4 6034.95 591.588  17
   1   6   4 5086.47 521.337   9
   1   6   4 5428.08 544.269  19
   1   6   4 5089.20 466.716  24
   1   6   4 4606.65 509.066  22
   1   6   4 5820.60 539.577  20
   1   6   5 10087.5 782.663  17
   1   6   5 9487.94 719.179   9
   1   6   5 8657.41 694.790  28
   1   6   5 6974.25 597.282  24
   1   6   5 9197.01 724.552  19
   1   6   5 9254.04 710.063  20
   1   6   5 8830.33 694.858  22
   1   6   6 1239.30 287.671   9
   1   6   6 2134.61 333.879  19
   1   6   6 1692.31 303.439  20
   1   6   7 1769.33 295.558  14
   1   6   7 2462.17 317.002  19
   1   6   7 2627.82 303.017  20
   1   6   7 2110.85 278.666  22
   1   6   8 5689.72 368.752  22
   1   6   8 4839.38 378.543  20
   1   7 -14 831.544 117.507  10
  -1  -7  14 620.981 131.613  21
   1   7 -13 1676.24 224.606  10
  -1  -7  13 1488.62 243.999  21
   1   7 -12 2341.95 292.186  10
   1   7 -12 2089.55 246.567   6
  -1  -7  12 1418.15 249.898   8
  -1  -7  11 17045.4 1061.89   8
   1   7 -11 18039.2 1068.65   6
  -1  -7  10 18507.9 1127.28   8
   1   7 -10 19178.4 1156.51   6
  -1  -7   9 311.241 164.190   8
   1   7  -9 88.8719 124.821   6
   1   7  -8 3852.98 408.407   6
  -1  -7   8 3751.46 643.161  34
   1   7  -7 19387.2 1722.74  29
  -1  -7   7 19531.0 1745.55  34
   1   7  -6 189.982 120.375   6
   1   7  -6 264.003 130.114   3
   1   7  -6 412.478 142.396   7
  -1  -7   6 243.722 285.277  34
   1   7  -5 7532.28 574.661   3
   1   7  -5 8021.92 578.788   6
   1   7  -5 8169.37 582.571   7
   1   7  -5 8267.02 1059.66  29
   1   7  -5 6384.34 927.997  37
  -1  -7   5 9429.51 1134.69  34
   1   7  -4 2272.81 282.870   3
   1   7  -4 2571.00 305.701   7
   1   7  -4 2747.18 285.532   6
   1   7  -4 2593.86 543.374  37
   1   7  -4 3381.07 695.062  29
   1   7  -3 18990.0 1142.04   7
   1   7  -3 19847.1 1097.01   6
   1   7  -3 21298.4 1667.83  37
  -1  -7   3 22031.3 1874.23  34
   1   7  -2 17871.3 1030.96   3
   1   7  -2 17739.5 1044.65   7
   1   7  -2 17424.9 1617.14  29
   1   7  -2 16313.6 1007.41  28
  -1  -7   2 20891.7 1784.75  34
   1   7  -1 6234.51 501.413   7
   1   7  -1 6437.05 485.934   3
   1   7  -1 5937.75 503.846  28
   1   7  -1 7994.84 986.925  29
  -1  -7   1 6359.58 956.840  34
   1   7  -1 5828.16 481.737  20
   1   7  -1 5670.05 475.880  22
   1   7   0 12274.2 815.760   9
   1   7   0 13476.4 843.395   7
  -1  -7   0 15088.8 1450.64  34
   1   7   0 12965.0 869.188  28
   1   7   0 14643.2 1378.94  29
   1   7   0 12357.0 840.756  22
   1   7   0 13018.4 844.337  20
   1   7   1 470.471 189.961   9
   1   7   1 901.305 199.350   7
   1   7   1 478.746 254.620  29
  -1  -7  -1 1015.16 318.615  34
   1   7   1 404.349 215.448  28
   1   7   1 686.787 208.614  20
   1   7   1 848.595 300.147  19
   1   7   1 705.182 222.664  22
   1   7   2 3405.01 417.803   9
   1   7   2 4096.73 393.394   7
   1   7   2 4536.53 477.156  28
   1   7   2 4663.55 465.094  22
   1   7   2 4202.71 445.149  20
   1   7   2 3824.48 470.641  19
   1   7   2 4309.92 446.955  24
   1   7   3 5815.27 558.428   9
   1   7   3 5503.89 469.318   7
   1   7   3 6161.12 573.472  28
   1   7   3 6326.10 537.088  24
   1   7   3 6729.68 606.525  19
   1   7   3 5669.24 539.528  20
   1   7   3 6357.48 563.144  22
   1   7   4 1517.53 300.766   9
   1   7   4 1437.93 321.018  19
   1   7   4 1148.68 276.685  20
   1   7   4 1414.17 290.615  22
   1   7   4 985.380 217.558  24
   1   7   5 9276.77 692.341   9
   1   7   5 10366.5 732.950  19
   1   7   5 9120.70 677.844  20
   1   7   5 9159.84 685.410  22
   1   7   6 15325.0 884.385  14
   1   7   6 14259.1 881.941  20
   1   7   7 1586.07 198.407  14
   1   7   7 1504.20 194.935  20
   1   7   7 1666.23 189.186  22
   1   8 -13 5797.54 407.410  10
  -1  -8  13 4811.49 399.090  21
   1   8 -12 6609.59 497.102  10
  -1  -8  12 5493.00 470.667   8
   1   8 -12 6554.29 478.370   6
  -1  -8  11 6911.42 553.516   8
   1   8 -11 7637.56 565.674   6
   1   8 -10 249.225 159.921   6
  -1  -8  10 414.442 169.830   8
   1   8  -9 4110.04 429.272   6
  -1  -8   8 14334.4 914.857   8
   1   8  -8 12934.6 1349.68  29
  -1  -8   8 13886.2 1416.25  34
  -1  -8   7 23440.8 1324.59   8
   1   8  -7 22170.8 1277.04   7
   1   8  -7 22996.6 1340.98   6
   1   8  -7 23746.9 2019.12  29
  -1  -8   7 24011.1 2061.69  34
  -1  -8   6 18515.3 1101.86   8
   1   8  -6 18893.7 1115.24   6
   1   8  -6 17901.2 1086.44   7
   1   8  -6 17559.8 1747.33  29
  -1  -8   6 18532.8 1811.36  34
   1   8  -5 13846.8 907.218   7
   1   8  -5 14852.8 905.705   6
   1   8  -5 13849.4 1516.39  29
  -1  -8   5 15646.5 1629.84  34
   1   8  -4 7282.95 540.940   6
   1   8  -4 7325.48 575.931   7
   1   8  -4 6499.65 1013.02  29
  -1  -8   4 8421.95 1173.86  34
   1   8  -3 1071.57 223.566   7
   1   8  -3 875.684 165.163   6
  -1  -8   3 1354.51 495.029  34
  -1  -8   2 190.168 248.641  34
   1   8  -2 177.300 310.991  29
   1   8  -2 72.2990 155.380  28
   1   8  -1 14817.3 922.944   7
  -1  -8   1 15831.8 1608.37  34
   1   8  -1 14039.9 913.240  28
   1   8  -1 14367.4 1476.84  29
   1   8  -1 13716.4 918.434  20
   1   8  -1 13159.9 869.545  22
   1   8   0 11664.1 774.791   7
   1   8   0 11927.4 1268.26  29
   1   8   0 11657.6 807.178  28
  -1  -8   0 9279.38 1170.92  34
   1   8   0 10892.3 773.492  20
   1   8   0 10640.1 758.751  22
   1   8   1 9501.95 706.897   9
   1   8   1 10312.7 710.154   7
   1   8   1 10262.0 762.476  28
   1   8   1 10350.6 737.557  22
   1   8   1 10130.0 731.329  20
   1   8   1 10821.4 767.459  24
   1   8   1 8750.52 720.687  27
   1   8   2 17479.5 1137.29   9
   1   8   2 18617.1 1116.30   7
   1   8   2 19131.8 1195.80  28
   1   8   2 19943.8 1175.70  22
   1   8   2 19739.0 1174.18  20
   1   8   2 20866.6 1191.24  24
   1   8   3 9597.33 712.741   9
   1   8   3 11252.0 743.415  22
   1   8   3 9708.43 701.490  24
   1   8   3 9703.43 715.301  20
   1   8   4 873.850 205.705  22
   1   8   4 669.662 166.493  24
   1   8   4 1028.82 221.829  20
   1   8   5 1121.48 219.449  20
   1   8   5 1144.13 204.762  22
   1   8   6 4474.98 329.849  14
   1   8   6 5025.63 332.698  22
  -1  -9  13 374.872 110.244  21
   1   9 -12 2634.92 259.319   6
  -1  -9  12 2146.70 251.420   8
   1   9 -11 5650.94 460.668  10
  -1  -9  11 5290.96 455.849   8
   1   9 -11 6401.42 478.844   6
   1   9 -10 13716.9 868.979  10
   1   9 -10 13752.5 883.683   6
   1   9  -9 23118.3 1329.35  10
  -1  -9   9 23999.9 1348.09   8
   1   9  -8 3822.33 372.844  10
  -1  -9   8 3918.60 402.761   8
   1   9  -8 3620.81 390.958   6
   1   9  -7 3404.23 338.079  10
   1   9  -7 2865.68 334.241   7
  -1  -9   7 3428.75 378.166   8
   1   9  -7 3446.89 374.136   6
   1   9  -7 4382.79 747.700  29
  -1  -9   7 4307.81 781.413  34
   1   9  -6 1748.51 255.160   6
  -1  -9   6 1686.05 263.604   8
   1   9  -6 1503.47 240.285   7
   1   9  -6 1131.89 486.150  29
  -1  -9   6 1591.53 498.718  34
   1   9  -5 22586.9 1315.24   7
  -1  -9   5 23171.0 1300.37   8
   1   9  -5 22306.7 1281.96   6
   1   9  -5 22851.1 2079.74  29
   1   9  -4 15998.0 987.229   7
   1   9  -4 14536.2 904.045   6
  -1  -9   4 15870.0 1710.97  34
   1   9  -3 13419.6 875.978   7
   1   9  -3 12741.5 1459.71  29
  -1  -9   3 12042.1 1488.18  34
   1   9  -2 19869.4 1165.30  28
  -1  -9   2 21416.2 1970.02  34
   1   9  -2 19814.5 1844.00  29
   1   9  -1 2017.62 290.154   7
  -1  -9   1 2729.15 606.910  34
   1   9  -1 1875.25 303.145  28
   1   9  -1 1905.96 268.238  22
   1   9   0 2510.95 322.847   7
   1   9   0 2702.92 353.006  28
   1   9   0 2217.37 319.712  27
   1   9   0 2588.29 305.120  22
   1   9   1 4806.96 429.131   7
   1   9   1 5034.00 473.529  24
   1   9   1 5286.31 446.586  22
   1   9   2 10241.7 670.885   7
   1   9   2 10904.0 711.802  22
   1   9   2 10892.9 727.014  24
   1   9   3 9151.75 616.594  14
   1   9   3 7837.81 565.496  24
   1   9   3 9153.76 593.002  22
   1   9   4 236.114 182.621  14
   1   9   4 271.340 116.329  22
  -1 -10  12 304.939 108.910   8
   1  10 -12 501.822 103.910  10
   1  10 -11 2818.89 282.982   6
   1  10 -11 2592.56 258.398  10
  -1 -10  10 520.211 167.203   8
   1  10 -10 276.654 123.224  10
   1  10  -9 3515.81 358.023   6
  -1 -10   9 4067.50 374.912   8
   1  10  -9 2969.22 307.561  10
  -1 -10   8 17172.1 1039.77   8
   1  10  -8 18096.1 1058.71   6
   1  10  -7 23073.6 1332.47   7
   1  10  -7 26626.4 1386.22   6
  -1 -10   7 23904.8 1351.94   8
   1  10  -6 18451.1 1080.78   6
  -1 -10   6 18508.3 1084.28   8
   1  10  -6 18704.8 1095.67   7
   1  10  -5 961.257 217.466   7
   1  10  -5 990.187 181.374   6
  -1 -10   5 1099.61 204.220   8
   1  10  -4 3979.65 397.169   7
  -1 -10   4 3443.16 332.228   8
   1  10  -3 7394.71 582.761   7
   1  10  -2 1541.56 279.294  24
   1  10  -1 7235.12 547.481   7
   1  10  -1 7329.50 580.116  24
   1  10  -1 6589.91 559.339  27
   1  10   0 13305.1 776.940   7
   1  10   0 12643.7 764.272  14
   1  10   0 10797.8 704.271  22
   1  10   1 4284.25 336.572   7
   1  10   1 3365.06 363.353  14
   1  10   1 4254.54 371.560  24
   1  10   1 3725.33 323.848  22
   1  10   2 267.504 193.941  14
   1  10   2 268.793 125.172  24
   1  10   2 332.454 118.292  22
   1  10   3 1655.05 189.826  14
  -1 -11  11 1738.83 197.384   8
  -1 -11  10 3417.92 305.468   8
  -1 -11   9-70.9558 112.350   8
   1  11  -9-37.0105 96.7839   6
  -1 -11   8 427.422 140.086   8
   1  11  -8 219.857 107.763   6
   1  11  -7 1950.21 231.906   7
  -1 -11   7 2100.83 240.159   8
  -1 -11   6 12457.3 734.234   8
   1  11  -6 12607.5 763.029   7
   1  11  -6 11750.6 733.899  24
  -1 -11   5 11474.9 666.212   8
   1  11  -5 10953.0 717.256   7
   1  11  -5 11100.4 711.978  24
   1  11  -4 11163.3 717.091   7
   1  11  -4 10982.2 716.978  24
   1  11  -3 18701.9 1056.28   7
   1  11  -3 18634.6 1062.06  24
   1  11  -3 17779.8 1097.22  27
  -1 -11   2 3060.92 302.635  36
   1  11  -2 3768.76 350.283  27
   1  11  -2 4264.97 366.704  24
   1  11  -1 1590.38 210.484   7
   1  11  -1 1347.15 211.341  24
   1  11   1 2124.58 199.998  24
  -1 -12   9 5642.83 360.775   8
  -1 -12   8 3032.86 237.998   8
  -1 -12   7 3600.00 257.252   8
   1  12  -7 3575.85 260.341   7
   1  12  -6-26.2841 93.8930   7
   1  12  -5-86.8351 106.429   7
  -1 -12   5 190.293 94.1417  36
   1  12  -5 13.1328 117.948  27
   1  12  -5 7.85707 86.6720  24
   1  12  -4 7163.42 446.997   7
   1  12  -4 6062.39 447.132  27
   1  12  -4 6362.56 424.844  24
   1  12  -3 5899.91 417.809  27
   1  12  -3 6704.96 435.748  24
   1  12  -2 9282.38 538.868  24
  -2  12  -1 1109.09 146.121  13
  -2  12  -1 1702.63 198.085  27
  -2  12  -2 319.360 102.160  13
  -2  12  -3 1627.49 225.733  27
  -2  12  -4 2656.61 289.161  27
  -2  12  -5 5392.38 425.175  27
  -2  12  -6 6916.34 490.191  27
  -2  12  -7 10262.0 561.421   4
  -2  12  -7 8850.79 571.986  27
  -2  12  -8 800.919 118.777   4
  -2  11   2 1328.34 171.466  13
  -2  11   1 480.906 139.727  27
  -2  11   0 4605.93 401.904  24
  -2  11   0 5015.23 437.565  27
  -2  11  -1 21826.4 1212.96  24
  -2  11  -2 12368.1 775.697  24
  -2  11  -3 2215.16 317.067  27
  -2  11  -3 2006.08 247.794  26
  -2  11  -3 1687.80 239.015  24
  -2  11  -4 1477.67 269.871  27
  -2  11  -5 2158.18 255.420   4
  -2  11  -6 2453.63 266.599   4
   2 -11   6 1682.71 221.490   8
   2 -11   7 4920.03 428.532   8
  -2  11  -7 7215.52 489.852   4
   2 -11   8 1865.30 240.163   8
  -2  11  -8 2248.81 240.874  27
  -2  11  -9 1030.53 163.698   4
  -2  11 -10 76.2513 73.5985   4
  -2  10   4 3592.57 290.955  14
  -2  10   4 3231.20 280.198  13
  -2  10   3 2795.93 296.418  14
  -2  10   2 892.761 238.085  14
  -2  10   2 1000.91 227.208  27
  -2  10   2 971.366 220.143  24
  -2  10   1 18401.0 1065.93  14
  -2  10   1 20025.9 1196.38  27
  -2  10   1 20039.4 1153.29  24
  -2  10   0 3111.73 357.711  24
  -2  10   0 2665.05 380.712  27
  -2  10  -1-19.4768 161.024   7
  -2  10  -1 52.4963 115.737  26
  -2  10  -1-38.3038 159.913  24
  -2  10  -2 719.091 205.572   7
  -2  10  -2 1015.40 278.573  27
  -2  10  -2 883.840 218.672  24
  -2  10  -3 8541.11 616.610   4
  -2  10  -3 8817.20 664.242   7
  -2  10  -3 8848.54 633.096  24
  -2  10  -4 9068.46 645.673   4
  -2  10  -4 8466.30 646.347   7
  -2  10  -5 5023.40 448.114   7
   2 -10   5 5324.48 433.218   8
   2 -10   6 10701.9 689.667   8
  -2  10  -6 9172.85 632.684  10
   2 -10   7 116.156 135.821   8
  -2  10  -7-14.7469 120.706  10
   2 -10   8 224.034 159.411   8
  -2  10  -8 392.747 144.028  10
   2 -10   9 3058.20 342.971   8
  -2  10  -9 3704.05 333.476  10
  -2  10 -10 534.353 139.698   4
  -2  10 -10 566.763 133.587  10
  -2  10 -11 7463.69 445.448   4
  -2  10 -11 7077.92 450.197  10
  -2   9   6 6296.55 399.357  14
  -2   9   5 2644.69 297.692  14
  -2   9   5 2204.56 248.283  13
  -2   9   5 2453.96 307.874  22
  -2   9   4 7155.73 539.365  14
  -2   9   4 6247.12 501.412  27
  -2   9   4 6691.53 526.254  22
  -2   9   3 1244.84 302.695  14
  -2   9   3 923.250 227.973  27
  -2   9   3 908.766 236.124  22
  -2   9   2 2129.67 357.140  14
  -2   9   2 2078.61 324.781  27
  -2   9   2 2034.40 313.014  22
  -2   9   2 1846.45 326.962  24
  -2   9   1 32641.8 1751.56  14
  -2   9   1 30382.7 1747.81  26
  -2   9   1 32350.2 1796.23  22
  -2   9   1 35304.2 1911.12  27
  -2   9   1 35368.1 1839.99  24
  -2   9   0 22996.7 1256.34  14
  -2   9   0 23211.0 1329.33   7
  -2   9   0 19157.3 1948.56  29
  -2   9   0 20729.4 1280.45  26
  -2   9   0 22215.6 1303.13  22
  -2   9   0 24358.8 1340.06  24
  -2   9  -1 35101.3 1910.18   7
  -2   9  -1 31146.3 2652.42  29
  -2   9  -1 35426.0 1891.92  24
  -2   9  -2 1749.39 290.048   7
  -2   9  -2 1811.82 258.118   4
  -2   9  -2 1892.17 292.911  24
  -2   9  -3 3253.32 367.194   7
  -2   9  -3 3588.90 801.489  29
  -2   9  -3 2371.86 725.422  37
  -2   9  -3 3161.26 342.197  24
  -2   9  -4 376.746 381.668  29
  -2   9  -4 456.530 422.159  37
  -2   9  -4 253.063 155.779   7
   2  -9   4 247.667 129.817   8
  -2   9  -5 4463.65 416.391  10
  -2   9  -5 5440.15 1000.02  37
  -2   9  -5 3237.65 852.142  29
   2  -9   5 5569.24 452.550   8
  -2   9  -5 4773.41 434.813   7
  -2   9  -6 12773.2 817.202  10
  -2   9  -6 11159.4 1547.58  37
  -2   9  -6 12029.4 1382.72  29
   2  -9   6 8623.53 1345.59  34
   2  -9   6 12823.7 823.358   8
   2  -9   7 3264.42 377.091   8
  -2   9  -7 3676.54 400.264   6
  -2   9  -7 3060.18 354.213  10
   2  -9   8 21293.2 1253.50   8
  -2   9  -8 21049.7 1235.81  10
   2  -9   9 16173.1 1013.86   8
  -2   9  -9 16231.3 993.319  10
   2  -9  10 264.834 166.374   8
  -2   9 -11 57.2646 90.9052   4
  -2   9 -11 343.448 131.535  10
  -2   9 -12 899.945 126.067  10
  -2   8   6 7544.59 518.156  13
  -2   8   5 29151.3 1565.85  14
  -2   8   5 28321.5 1561.83  13
  -2   8   5 28814.9 1571.96  22
  -2   8   4 15557.6 984.896  14
  -2   8   4 14359.1 999.055  27
  -2   8   4 16457.8 1083.98  20
  -2   8   4 16093.9 995.975  22
  -2   8   4 14198.9 988.037  24
  -2   8   3 14887.3 977.444  14
  -2   8   3 14795.2 1071.49  20
  -2   8   3 16720.9 1009.07  22
  -2   8   3 13191.1 901.539  26
  -2   8   3 16324.0 1054.13  27
  -2   8   2 28614.5 1626.28   7
  -2   8   2 29500.4 1618.25  14
  -2   8   2 30506.8 1760.43  20
  -2   8   2 30263.0 1651.69  22
  -2   8   2 26239.4 1580.15  26
  -2   8   2 29530.7 1717.30  27
  -2   8   2 29810.9 1657.53  24
  -2   8   1 8139.76 638.895  14
  -2   8   1 8394.74 1111.55  29
  -2   8   1 8219.09 705.634  27
  -2   8   1 7333.25 612.662  26
  -2   8   1 8727.26 658.119  24
  -2   8   1 7626.94 628.020  22
  -2   8   0 7801.64 605.107  14
  -2   8   0 8529.83 640.925   7
  -2   8   0 8207.49 1091.03  29
  -2   8   0 8441.05 649.114  24
  -2   8   0 7779.85 631.547  22
  -2   8  -1 5500.62 462.991   4
  -2   8  -1 6437.07 524.813   7
  -2   8  -1 7004.81 1009.30  29
  -2   8  -1 5551.35 506.279  22
  -2   8  -1 5976.42 515.118  24
  -2   8  -2 12000.5 815.789   7
  -2   8  -2 11957.1 800.114  24
  -2   8  -3 45100.7 2246.19   7
   2  -8   3 41862.1 2166.95   8
  -2   8  -3 43959.3 3117.34  29
  -2   8  -3 49781.7 3447.16  37
  -2   8  -3 42061.3 2203.81  24
  -2   8  -4 5747.13 475.446  10
  -2   8  -4 7991.27 1222.35  37
  -2   8  -4 6161.27 979.490  29
  -2   8  -4 5739.99 504.725   6
   2  -8   4 6532.90 482.405   8
  -2   8  -4 5716.66 481.429   7
  -2   8  -5 12460.7 805.345  10
  -2   8  -5 10059.6 1459.21  37
  -2   8  -5 12975.1 1431.01  29
  -2   8  -5 11727.2 824.258   6
   2  -8   5 12303.2 794.515   8
  -2   8  -6 177.961 144.524  10
  -2   8  -6 83.3360 217.970  29
  -2   8  -6 129.214 130.997   6
   2  -8   6 152.605 154.656   8
  -2   8  -7 964.681 229.725  10
   2  -8   7 991.389 353.577  34
  -2   8  -7 1360.44 249.218   6
   2  -8   7 1371.09 257.716   8
  -2   8  -8 2290.24 317.518  10
   2  -8   8 2228.32 328.496   8
  -2   8  -8 2297.62 316.447   6
   2  -8   9 495.510 183.927  33
   2  -8   9 867.553 230.933   8
  -2   8 -10 12280.5 798.141  10
   2  -8  10 11117.6 787.014  33
  -2   8 -11 6451.46 463.945  10
  -2   8 -11 5720.15 401.389   4
  -2   8 -12 3011.46 262.463  10
  -2   7   8 15850.8 863.706  14
  -2   7   8 15511.6 858.996  22
  -2   7   7 6924.22 563.985  20
  -2   7   7 7088.52 528.273  22
  -2   7   6 2482.48 319.731  13
  -2   7   6 2759.32 428.150  19
  -2   7   5 498.323 319.902  14
  -2   7   5 355.987 273.698  19
  -2   7   5 426.803 182.413  27
  -2   7   5 173.906 180.347  24
  -2   7   4 4310.19 504.206  14
  -2   7   4 4892.74 549.059  19
  -2   7   4 4298.44 492.566  27
  -2   7   4 5220.78 501.886  22
  -2   7   4 4992.23 492.551  24
  -2   7   4 4037.15 406.230  26
  -2   7   3 5964.15 517.067   7
  -2   7   3 6012.41 559.467  14
  -2   7   3 5072.18 482.424  26
  -2   7   3 5307.23 559.126  27
  -2   7   3 6572.39 575.480  20
  -2   7   3 5665.56 626.670  19
  -2   7   3 5840.84 534.009  22
  -2   7   2 30558.8 1680.96  14
  -2   7   2 31549.3 1703.63   7
  -2   7   2 27147.8 2236.35  29
  -2   7   2 31052.7 1779.01  27
  -2   7   2 31088.8 1711.78  22
  -2   7   2 32568.8 1748.00  20
  -2   7   2 28745.5 1676.23  26
  -2   7   2 31969.6 1717.93  24
  -2   7   1 60858.4 3121.66  14
  -2   7   1 66793.7 3907.26  29
  -2   7   1 61703.8 3206.15  20
  -2   7   1 66201.5 3269.79  27
  -2   7   1 64478.6 3178.60  22
  -2   7   1 63592.9 3172.47  24
  -2   7   0 30890.4 1658.32  14
  -2   7   0 32110.5 1704.41   7
  -2   7   0 35102.5 2421.06  29
  -2   7   0 32205.5 1712.71  24
  -2   7   0 31055.4 1707.22  22
  -2   7  -1 531.047 172.934   7
  -2   7  -1 220.288 285.691  29
  -2   7  -1 866.226 436.454  37
  -2   7  -1 422.957 157.480  24
  -2   7  -1 664.462 180.567  22
  -2   7  -2 6434.27 484.704   7
  -2   7  -2 5773.45 470.173   6
  -2   7  -2 7012.95 1076.83  37
  -2   7  -2 6787.97 937.171  29
  -2   7  -2 5638.32 466.666  24
  -2   7  -3 1206.10 195.279  10
  -2   7  -3 2260.14 652.796  37
  -2   7  -3 1705.23 486.488  29
  -2   7  -3 1581.02 230.930   6
  -2   7  -3 1486.44 219.386   7
   2  -7   3 1131.31 183.129   8
  -2   7  -4 17893.8 1046.83  10
  -2   7  -4 19009.2 1669.28  29
  -2   7  -4 17474.4 1022.46   7
   2  -7   4 18461.0 1038.29   8
  -2   7  -4 18582.5 1080.16   6
  -2   7  -5 27375.4 1478.40  10
  -2   7  -5 28942.8 2172.81  29
   2  -7   5 26865.8 1460.80   8
  -2   7  -5 25581.9 1478.21   6
  -2   7  -6 29419.6 1655.52  10
  -2   7  -6 28099.1 2275.58  29
   2  -7   6 31765.5 1662.09   8
  -2   7  -6 30796.2 1677.02   6
   2  -7   7 23340.5 1268.43   8
  -2   7  -7 20509.5 1241.56   6
  -2   7  -8 460.350 172.714   6
   2  -7   8 542.325 208.811   8
  -2   7  -9 241.091 200.327  10
   2  -7   9 122.053 159.139  33
  -2   7  -9 215.459 139.566   6
  -2   7 -10 39.9866 158.544  10
   2  -7  10-22.3349 156.683  33
  -2   7 -11 873.711 208.354  10
   2  -7  11 1042.17 204.100  33
  -2   7 -12 682.797 142.859  10
   2  -7  13 1691.14 212.966  19
  -2   6   9 569.712 222.898  14
  -2   6   9 541.879 282.334  20
  -2   6   8 739.010 259.010  14
  -2   6   8 882.272 222.606  19
  -2   6   8 877.828 202.222  22
  -2   6   8 922.094 211.227  20
  -2   6   7 13222.2 905.182  17
  -2   6   7 12949.0 849.345  13
  -2   6   7 13011.9 890.999  14
  -2   6   7 13765.0 915.143  19
  -2   6   7 14627.6 894.342  22
  -2   6   7 13244.4 893.051  20
  -2   6   6 15351.1 1031.06  17
  -2   6   6 15373.3 1042.10  19
  -2   6   6 16341.2 1039.50  20
  -2   6   6 15573.8 1013.01  22
  -2   6   5 19620.4 1255.55  17
  -2   6   5 20418.8 1288.10  27
  -2   6   5 20855.0 1255.47  24
  -2   6   5 21081.6 1277.43  19
  -2   6   4 34513.5 1854.37  17
  -2   6   4 32205.5 1810.82  14
  -2   6   4 35418.4 1877.21  19
  -2   6   4 34408.1 1895.75  27
  -2   6   4 30546.8 1788.58  26
  -2   6   4 34774.2 1844.07  24
  -2   6   3 2004.85 314.400  17
  -2   6   3 2021.65 280.118   7
  -2   6   3 2254.64 504.309  29
  -2   6   3 1564.04 295.418  27
  -2   6   3 2048.76 333.913  19
  -2   6   3 2209.30 289.078  26
  -2   6   3 2693.67 331.729  22
  -2   6   2 21321.8 1238.11   7
  -2   6   2 23935.4 1770.19  29
  -2   6   2 20154.4 1266.74  19
  -2   6   2 23502.0 1294.22  20
  -2   6   2 22398.0 1331.26  27
  -2   6   2 23834.8 1281.87  22
  -2   6   2 20197.5 1245.30  26
  -2   6   2 22717.6 1266.67  24
  -2   6   1 422.920 266.480  29
  -2   6   1 809.873 178.253  24
  -2   6   1 930.395 211.931  20
  -2   6   1 689.274 194.567  22
  -2   6   0 14749.3 1491.16  37
  -2   6   0 13526.7 1278.54  29
  -2   6  -1 84106.0 4928.66  37
  -2   6  -2 122360. 6336.98  29
  -2   6  -2 116895. 6606.34  37
  -2   6  -3 44087.2 2798.33  29
  -2   6  -4 12637.7 1338.35  30
  -2   6  -4 11593.6 1164.99  29
  -2   6  -5 2261.35 280.784  10
  -2   6  -5 2474.18 519.404  29
  -2   6  -5 3306.60 686.465  30
  -2   6  -5 2602.45 288.309   6
   2  -6   5 2762.80 293.957   8
  -2   6  -6 8219.73 1112.71  30
  -2   6  -6 6912.92 889.786  29
   2  -6   6 6934.09 539.820   8
  -2   6  -6 7348.58 552.836   6
  -2   6  -7 2257.52 293.510  10
   2  -6   7 1646.70 277.153   8
  -2   6  -7 1884.89 271.943   6
  -2   6  -8 50933.6 2572.10  10
  -2   6  -8 47927.2 2522.37   6
  -2   6  -9 21977.1 1271.19  10
   2  -6   9 23017.1 1337.65  33
  -2   6  -9 18980.0 1196.12   6
   2  -6   9 20085.1 1262.56   8
  -2   6 -10 1849.74 281.091  10
   2  -6  10 1134.81 266.481  33
  -2   6 -11 2338.43 292.989  10
   2  -6  11 2441.14 322.056  33
  -2   6 -12 685.321 137.512  10
   2  -6  12 536.365 147.132  33
   2  -6  13 93.5323 97.8195  19
  -2   5  10 4818.89 379.450  19
  -2   5  10 4619.53 378.591  20
  -2   5   9 12483.6 752.259  14
  -2   5   9 11224.4 781.567  17
  -2   5   9 11452.1 771.902  19
  -2   5   9 11612.5 748.319  20
  -2   5   9 11917.7 720.608  22
  -2   5   8-21.4885 226.133  17
  -2   5   8-153.132 290.348  14
  -2   5   8 63.4753 206.992  19
  -2   5   8 197.482 171.834  22
  -2   5   8 59.4940 170.406  20
  -2   5   7-19.2198 169.788  13
  -2   5   7 95.0808 163.519  12
  -2   5   7 236.390 299.492  14
  -2   5   7 23.4577 210.773  17
  -2   5   7 230.981 138.891  11
  -2   5   7 281.344 208.871  19
  -2   5   7 108.121 135.072  23
  -2   5   7 317.666 191.913  22
  -2   5   7 135.954 191.158  20
  -2   5   6 201.721 290.811  14
  -2   5   6 83.9061 136.625  11
  -2   5   6 92.3214 232.180  17
  -2   5   6-46.9209 216.029  19
  -2   5   6 56.6387 126.883  23
  -2   5   6 88.5502 171.747  22
  -2   5   6 172.105 157.513  27
  -2   5   6 254.313 202.331  20
  -2   5   5 2207.05 337.995  17
  -2   5   5 2008.95 270.352  23
  -2   5   5 2264.13 333.555  19
  -2   5   5 2126.90 328.824  20
  -2   5   5 2452.20 344.938  27
  -2   5   5 2035.32 288.327  26
  -2   5   5 2258.98 320.472  22
  -2   5   5 2671.08 327.340  24
  -2   5   4 7821.78 605.577  17
  -2   5   4 7767.40 590.140  24
  -2   5   4 7300.84 556.228  23
  -2   5   4 8382.47 620.599  19
  -2   5   4 7450.40 630.636  27
  -2   5   4 8909.42 630.707  20
  -2   5   4 6680.05 560.712  26
  -2   5   3 23410.3 1309.41   7
  -2   5   3 21516.3 1684.13  29
  -2   5   3 24049.2 1346.10  19
  -2   5   3 24367.3 1386.25  27
  -2   5   3 24858.0 1344.01  22
  -2   5   2 59087.7 3380.43  29
  -2   5   1 23062.1 1650.21  29
  -2   5   0 9145.57 1049.45  37
  -2   5   0 8204.94 863.227  29
  -2   5  -1 6064.70 864.634  37
  -2   5  -1 5516.70 718.498  30
  -2   5  -1 6047.43 731.660  29
  -2   5  -2 85397.5 4574.21  29
  -2   5  -3 43758.2 2735.06  30
  -2   5  -3 42135.2 2590.88  29
  -2   5  -4 56366.0 3348.97  30
  -2   5  -4 52584.8 3120.30  29
  -2   5  -5 94327.4 5183.66  30
  -2   5  -5 90553.5 4889.80  29
  -2   5  -6 18299.7 1061.13  10
  -2   5  -6 18105.5 1662.01  30
  -2   5  -6 17642.3 1036.40   6
  -2   5  -7 1413.84 243.428  10
   2  -5   7 1211.32 457.062  35
  -2   5  -7 1060.36 471.320  30
  -2   5  -7 1433.88 220.462   6
  -2   5  -8 1077.73 224.081  10
   2  -5   8 803.126 202.861  16
   2  -5   8 868.680 232.604   8
  -2   5  -8 724.663 171.913   6
   2  -5   8 908.824 413.328  35
  -2   5  -9 5453.35 492.994  10
   2  -5   9 5703.22 510.767  16
   2  -5   9 5365.38 508.963   8
   2  -5   9 4819.33 527.250  33
   2  -5   9 5503.35 891.431  35
   2  -5   9 4693.73 450.537  21
  -2   5 -10 27840.1 1475.28  10
   2  -5  10 25629.7 1482.76  16
   2  -5  10 28542.7 1570.33  33
  -2   5 -11 6515.36 501.641  10
   2  -5  11 6286.40 562.299  33
   2  -5  12 1318.68 217.359  33
   2  -5  12 1279.34 240.421  19
   2  -5  13 166.273 107.189  19
  -2   4  11 954.002 179.329  17
  -2   4  11 914.617 154.783  19
  -2   4  10 283.110 183.941  17
  -2   4  10 201.215 167.120  19
  -2   4  10 178.599 137.038  20
  -2   4   9 3910.69 420.073  14
  -2   4   9 4135.23 459.177  17
  -2   4   9 4054.39 413.893  20
  -2   4   9 4350.79 440.032  19
  -2   4   9 4069.48 377.498  22
  -2   4   8 3600.36 372.921  16
  -2   4   8 3536.15 394.433  13
  -2   4   8 4357.55 466.545  14
  -2   4   8 4911.16 503.536  17
  -2   4   8 3756.76 393.497  12
  -2   4   8 3642.56 400.156  11
  -2   4   8 4594.71 465.093  19
  -2   4   8 4937.68 445.613  23
  -2   4   8 4522.75 452.685  20
  -2   4   8 4888.19 438.123  22
  -2   4   7 20240.5 1184.69  13
  -2   4   7 18503.6 1191.85  11
  -2   4   7 22027.3 1269.50  17
  -2   4   7 17465.6 1127.26  16
  -2   4   7 17270.1 1160.27  12
  -2   4   7 19243.4 1187.45  14
  -2   4   7 21017.8 1214.11  23
  -2   4   7 22739.3 1256.42  20
  -2   4   7 21488.1 2074.69  18
  -2   4   7 20829.2 1210.13  22
  -2   4   7 22791.3 1264.51  19
  -2   4   6 11195.7 797.513  17
  -2   4   6 11217.7 787.576  11
  -2   4   6 11122.8 786.522  14
  -2   4   6 12042.1 1471.90  18
  -2   4   6 11017.5 816.951  27
  -2   4   6 11111.3 768.102  23
  -2   4   6 10636.9 773.972  19
  -2   4   6 12704.8 813.315  20
  -2   4   6 11416.5 780.139  22
  -2   4   5 29962.1 2300.65  18
  -2   4   5 26730.2 1462.04  17
  -2   4   5 24162.2 1445.17  26
  -2   4   5 26184.8 1504.80  27
  -2   4   5 27798.6 1471.05  22
  -2   4   5 24801.8 1432.81  23
  -2   4   5 28934.5 1491.50  20
  -2   4   5 27210.3 1461.78  24
  -2   4   5 24949.6 1449.05  19
  -2   4   4 11304.3 1272.29  18
  -2   4   3 1724.46 360.563  29
  -2   4   2 57539.6 3160.84  29
  -2   4   1 48071.4 2912.76  37
  -2   4   1 47540.5 2780.29  32
  -2   4   1 47465.2 2683.05  29
  -2   4   0 102531. 5404.00  37
  -2   4   0 101689. 5177.86  30
  -2   4  -1 12956.1 757.855  31
  -2   4  -1 14200.7 1098.94  30
  -2   4  -1 14882.6 1167.14  32
  -2   4  -1 13978.4 1068.66  29
  -2   4  -2 16124.6 908.079  31
  -2   4  -2 19371.0 1361.74  32
  -2   4  -2 16943.1 1234.47  29
  -2   4  -3 36226.8 2239.64  30
  -2   4  -3 35234.4 2111.50  29
  -2   4  -3 33622.3 2185.57  32
  -2   4  -4 4900.59 689.299  30
  -2   4  -4 4630.42 579.633  29
  -2   4  -5 23389.0 1625.25  29
  -2   4  -5 26955.2 1885.23  30
  -2   4  -6 19953.8 1660.91  30
   2  -4   6 19891.3 1127.83   8
  -2   4  -7 54464.3 2633.12  10
   2  -4   7 49559.5 2635.76  16
  -2   4  -7 47193.9 3248.64  30
   2  -4   7 56044.8 3521.99  35
   2  -4   7 53054.0 2636.39   8
  -2   4  -7 51318.1 2577.58   6
  -2   4  -8 17045.9 1020.10  10
   2  -4   8 15663.4 1039.17  16
   2  -4   8 15379.0 1016.74   8
   2  -4   8 17494.2 1105.78  33
   2  -4   8 17682.2 1762.82  35
  -2   4  -9 4631.22 437.102  10
   2  -4   9 4633.38 487.179  16
   2  -4   9 4424.90 488.788  33
   2  -4   9 3939.88 422.719  21
  -2   4 -10 9729.48 670.478  10
   2  -4  10 10171.3 750.643  16
   2  -4  10 10340.0 775.737  33
   2  -4  11 272.305 185.624  16
   2  -4  11 464.579 200.250  33
   2  -4  12 3011.89 329.134  33
   2  -4  12 3176.26 336.722  19
   2  -4  13 1820.10 214.507  19
  -2   3  12 4453.62 330.569  17
  -2   3  11 4619.83 418.606  17
  -2   3  11 4001.91 370.785  19
  -2   3  10 5829.14 491.484  16
  -2   3  10 5934.45 523.017  19
  -2   3  10 6021.48 493.591  20
  -2   3   9 643.425 187.881  16
  -2   3   9 486.256 273.537  14
  -2   3   9 942.581 273.626  17
  -2   3   9 202.781 170.099  23
  -2   3   9 242.946 207.743  19
  -2   3   9 705.101 184.200  22
  -2   3   9 403.760 198.697  20
  -2   3   8 329.796 165.979  16
  -2   3   8 253.600 177.383  12
  -2   3   8 253.742 155.743  11
  -2   3   8 221.385 409.572  18
  -2   3   8 415.814 165.331  13
  -2   3   8 355.015 260.531  14
  -2   3   8 282.577 242.116  17
  -2   3   8 386.390 195.055  20
  -2   3   8 334.378 224.767  19
  -2   3   8 505.748 183.919  22
  -2   3   8 421.732 196.272  23
  -2   3   7 723.507 196.969  13
  -2   3   7 638.981 266.526  14
  -2   3   7 769.187 229.583  17
  -2   3   7 464.073 188.857  12
  -2   3   7 550.268 196.624  11
  -2   3   7 503.943 472.331  18
  -2   3   7 865.957 192.989  16
  -2   3   7 566.720 187.971  23
  -2   3   7 429.447 187.682  22
  -2   3   7 1065.58 236.682  20
  -2   3   7 839.669 227.902  19
  -2   3   6 22964.4 1984.33  18
  -2   3   6 21923.4 1224.31  16
  -2   3   6 20903.2 1254.69  11
  -2   3   6 23003.4 1269.92  17
  -2   3   6 20479.4 1219.13  14
  -2   3   6 21349.0 1285.03  27
  -2   3   6 21628.4 1257.01  23
  -2   3   6 23139.3 1265.59  20
  -2   3   6 23159.4 1247.83  22
  -2   3   6 20879.8 1231.91  19
  -2   3   5 10382.8 1176.38  18
  -2   3   3 16251.1 1164.19  29
  -2   3   3 17134.4 1208.26  32
  -2   3   2 305.864 231.783  32
  -2   3   2 59.0269 165.616  29
  -2   3   1 19676.6 1212.35  30
  -2   3   1 17826.6 1267.33  32
  -2   3   1 19094.9 1241.96  29
  -2   3   0 5078.56 534.688  30
  -2   3  -1 19938.2 1312.57  32
  -2   3  -1 18615.3 1247.48  29
  -2   3  -2 83866.1 4147.85  30
  -2   3  -2 75589.0 4094.67  32
  -2   3  -2 80579.9 4060.82  29
  -2   3  -3 94796.2 4571.24  30
  -2   3  -3 79003.7 4423.45  32
  -2   3  -3 89785.9 4421.55  29
  -2   3  -4 76637.9 3946.88  30
  -2   3  -4 68725.5 3765.57  32
  -2   3  -5 5674.38 719.600  30
   2  -3   6 3218.39 644.172  35
  -2   3  -6 3050.63 538.984  30
   2  -3   7 3245.91 364.691  16
  -2   3  -7 3218.50 326.709  10
   2  -3   7 2870.74 342.399   8
  -2   3  -7 3063.47 572.805  30
   2  -3   7 3620.28 721.904  35
   2  -3   8 7977.13 637.054  16
  -2   3  -8 6443.98 532.538  10
   2  -3   8 7716.91 1135.45  35
   2  -3   8 8506.17 664.310  33
   2  -3   8 6291.37 531.077  21
  -2   3  -9 27930.5 1556.30  10
   2  -3   9 28778.9 1676.86  16
   2  -3   9 31202.0 1722.02  33
   2  -3   9 27857.1 1576.42  21
   2  -3  10 9935.77 783.986  16
   2  -3  10 10882.5 807.573  33
   2  -3  10 9090.84 698.463  21
   2  -3  11 13928.5 893.194  16
   2  -3  11 13285.4 890.782  33
   2  -3  11 14202.3 885.616  19
   2  -3  12 6552.26 510.119  33
   2  -3  12 6277.77 505.848  19
   2  -3  13 700.512 134.522  19
  -2   2  12 1995.45 222.656  16
  -2   2  12 2637.33 295.412  17
  -2   2  12 2012.40 243.088  19
  -2   2  11 2608.19 306.472  16
  -2   2  11 2224.01 341.095  17
  -2   2  11 2315.91 315.330  19
  -2   2  10 10458.4 777.296  16
  -2   2  10 11792.9 836.160  17
  -2   2  10 11030.6 744.380  20
  -2   2  10 11302.7 793.530  19
  -2   2   9 1404.13 289.166  11
  -2   2   9 1513.97 300.588  14
  -2   2   9 1402.81 280.788  16
  -2   2   9 1863.51 336.984  17
  -2   2   9 1272.30 280.669  19
  -2   2   9 1684.41 305.336  23
  -2   2   9 2109.96 302.016  20
  -2   2   9 1534.20 233.823  22
  -2   2   8 2420.88 334.508  11
  -2   2   8 2335.35 336.863  14
  -2   2   8 2574.95 324.524  16
  -2   2   8 1904.13 306.705  12
  -2   2   8 1999.84 307.614  20
  -2   2   8 2234.64 284.146  22
  -2   2   8 2260.53 327.830  23
  -2   2   8 1965.64 310.624  19
  -2   2   7 9479.49 723.920  11
  -2   2   7 9694.88 684.049  14
  -2   2   7 10377.2 686.265  13
  -2   2   7 10323.5 716.280  12
  -2   2   7 10608.9 722.212  16
  -2   2   7 9655.61 705.575  19
  -2   2   7 9776.08 726.819  23
  -2   2   7 11685.9 745.082  21
  -2   2   7 11725.8 703.395  22
  -2   2   7 10830.3 716.255  20
  -2   2   6 10639.3 728.154  33
  -2   2   5 4031.33 366.118  33
  -2   2   4 955.168 229.861  32
  -2   2   3 27173.5 1578.52  32
  -2   2   2 34554.5 1815.06  30
  -2   2   2 38284.4 1967.49  32
  -2   2   2 33533.1 1954.05  29
  -2   2   1 223508. 10412.4  30
  -2   2   0 94549.0 4641.70  32
  -2   2  -1 7247.61 627.764  32
  -2   2  -1 7443.68 610.305  29
  -2   2  -2 13879.1 911.890  29
  -2   2  -2 12205.6 892.843  32
  -2   2  -3 90658.7 4491.23  32
  -2   2  -4 2302.57 335.276  32
  -2   2  -4 2162.12 414.358  30
   2  -2   5 3158.45 340.950   1
  -2   2  -5 3714.50 546.870  30
  -2   2  -6 66928.3 3754.03  30
   2  -2   6 67608.0 4090.72  35
  -2   2  -7 43928.2 2246.68  10
   2  -2   7 47095.3 2359.36  16
   2  -2   7 50336.9 3284.32  35
   2  -2   7 43137.4 2258.46  21
   2  -2   8 4130.34 451.581  16
   2  -2   8 3678.99 809.107  35
   2  -2   8 3683.72 387.880  21
   2  -2   9 242.291 204.075  16
   2  -2   9 108.905 476.465  18
   2  -2   9 58.5677 199.078  21
   2  -2  10 182.166 206.635  16
   2  -2  10 291.366 221.059  19
   2  -2  11 4165.51 414.486  17
   2  -2  11 6227.69 523.641  16
   2  -2  11 4349.38 442.704  20
   2  -2  11 5965.59 498.589  19
   2  -2  12 2408.20 275.270  33
   2  -2  12 3059.74 303.746  19
  -2   1  13 10217.5 593.995  16
  -2   1  12 34374.1 1725.64  16
  -2   1  12 30530.1 1671.63  19
  -2   1  11 10872.8 773.802  16
  -2   1  11 10248.1 739.077  19
  -2   1  10 1132.21 266.302  16
  -2   1  10 1532.75 481.225  18
  -2   1  10 1132.04 264.873  19
  -2   1  10 984.837 263.074  23
  -2   1  10 839.137 210.827  20
  -2   1   9 1557.77 290.796  16
  -2   1   9 1694.13 310.096  11
  -2   1   9 1679.58 630.018  18
  -2   1   9 1734.97 317.287  33
  -2   1   9 1481.49 258.452  20
  -2   1   9 1548.21 307.786  21
  -2   1   9 1464.58 287.884  23
  -2   1   9 1767.73 292.696  19
  -2   1   8 34175.4 2551.23  18
  -2   1   8 28980.0 1654.17  12
  -2   1   8 29782.9 1710.25  11
  -2   1   8 31898.3 1706.41  16
  -2   1   8 31459.6 1734.98  33
  -2   1   8 31378.9 1722.35  23
  -2   1   8 31059.1 1647.93  20
  -2   1   8 27544.0 1636.55  19
  -2   1   8 33257.3 1698.99  21
  -2   1   7 12622.5 800.949  16
  -2   1   7 12542.0 1327.93  18
  -2   1   7 11369.2 799.547  11
  -2   1   7 11577.2 801.462  33
  -2   1   7 12760.7 777.911  21
  -2   1   7 11973.4 801.828  23
  -2   1   7 12005.5 766.241  19
  -2   1   6-61.2269 304.176  18
  -2   1   6 461.899 142.810  33
  -2   1   5 89514.9 4169.61  33
  -2   1   5 81503.8 4187.61  32
  -2   1   4 90491.8 4391.22  18
  -2   1   4 84708.4 4072.11  32
   2  -1  -4 79942.9 4066.36   1
  -2   1   3 5743.77 576.729  18
  -2   1   3 6565.05 487.050  32
  -2   1   2 7596.86 651.363  18
  -2   1   2 8023.78 601.498  32
  -2   1   1 21998.5 1279.57  37
  -2   1   0 47707.4 2441.21  32
  -2   1  -1 28814.1 1579.58  32
  -2   1  -2 56597.4 2850.73  32
  -2   1  -3 83375.0 4121.49  32
   2  -1   3 86108.1 4136.47   1
  -2   1  -4 12557.7 773.150  32
   2  -1   4 11257.2 755.971   1
   2  -1   5 3188.90 597.272  35
   2  -1   6 10813.2 723.206  16
   2  -1   6 10868.3 728.012  33
  -2   1  -6 8620.82 905.476  30
   2  -1   6 10010.6 1186.03  35
   2  -1   7 18325.3 1140.83  16
   2  -1   7 18734.3 1146.78  33
   2  -1   7 18957.3 1851.98  35
   2  -1   7 17709.9 1069.20  21
   2  -1   8 29427.1 2507.03  18
   2  -1   8 29086.2 1685.59  16
   2  -1   8 29935.6 1689.21  33
   2  -1   8 28016.0 1589.06  21
   2  -1   9 26440.7 1563.02  16
   2  -1   9 25934.8 1546.11  33
   2  -1   9 26568.9 1531.26  19
   2  -1  10 21985.0 1308.27  17
   2  -1  10 23619.4 1400.69  16
   2  -1  10 22744.1 1376.36  33
   2  -1  10 24068.2 1369.51  19
   2  -1  10 21517.1 1346.79  20
   2  -1  11 1952.56 271.587  17
   2  -1  11 2655.29 314.906  33
   2  -1  11 1791.39 284.853  20
   2  -1  11 2714.47 332.358  19
   2  -1  12 1809.56 206.365  20
   2  -1  12 2955.13 269.300  19
  -2   0  13-13.7867 135.825  16
  -2   0  13 49.8335 119.977  19
  -2   0  12 2837.79 346.080  16
  -2   0  12 2576.31 318.490  19
  -2   0  11 16877.8 1083.78  16
  -2   0  11 15622.9 1015.10  19
  -2   0  10 39442.2 2128.58  16
  -2   0  10 42174.0 3129.53  18
  -2   0  10 41405.5 2161.98  33
  -2   0  10 35263.1 2035.58  19
  -2   0   9 15092.4 1024.77  11
  -2   0   9 15680.5 1668.94  18
  -2   0   9 16295.9 1036.22  33
  -2   0   9 14721.7 952.589  19
  -2   0   9 14531.9 915.037  20
  -2   0   8 8680.14 689.534  11
  -2   0   8 9586.31 655.677  15
  -2   0   8 8484.08 652.046  12
  -2   0   8 9569.83 690.739  33
  -2   0   8 8818.35 635.563  19
  -2   0   8 9594.46 672.705  21
  -2   0   7 3296.20 626.566  18
  -2   0   7 2910.82 322.915  33
  -2   0   6 310.002 296.286  18
  -2   0   6 316.051 135.178  33
  -2   0   5 30622.6 1854.23  18
  -2   0   5 28901.7 1457.19  33
  -2   0   5 29481.6 1519.13  32
   2   0  -5 26463.9 1513.34   2
  -2   0   4 4765.15 523.533  18
   2   0  -4 3518.35 366.559   1
  -2   0   3 99483.8 4927.05  18
   2   0  -3 104199. 4907.38   1
  -2   0   2 17820.6 1049.46  18
   2   0  -2 20303.2 1124.06   1
  -2   0   1 519.329 138.063  37
   2   0   1 5041.28 456.060   1
   2   0   2 1632.03 252.365   1
   2   0   3 5364.36 458.591   2
  -2   0  -3 6446.04 475.382  32
   2   0   4 19359.5 1056.73  33
   2   0   5 80625.2 3892.72  33
   2   0   6 23693.3 1961.20  18
   2   0   6 23949.4 1337.96  33
   2   0   6 22695.7 1282.87  21
   2   0   7 1103.66 516.433  18
   2   0   7 521.694 203.687  16
   2   0   7 684.057 198.814   9
   2   0   7 528.524 214.997  33
   2   0   7 583.327 204.170  19
   2   0   8 2893.09 743.172  18
   2   0   8 2671.10 308.595   9
   2   0   8 2474.99 353.489  17
   2   0   8 2611.82 380.224  16
   2   0   8 3005.80 388.925  33
   2   0   8 2910.68 385.617  19
   2   0   8 1575.54 288.798  22
   2   0   9 1379.05 297.089  17
   2   0   9 1110.28 280.741  16
   2   0   9 1403.43 287.672  33
   2   0   9 1306.55 250.801  22
   2   0   9 1170.65 299.202  19
   2   0  10 7410.62 593.113  17
   2   0  10 8037.10 645.296  16
   2   0  10 6580.08 586.537  33
   2   0  10 7859.51 620.600  19
   2   0  10 7549.66 617.116  20
   2   0  11 3406.76 334.572  17
   2   0  11 3654.90 359.638  20
   2   0  12 5313.66 361.509  19
  -2  -1  13 6912.16 498.035  19
  -2  -1  12 2960.46 379.994  16
  -2  -1  12 2571.24 328.972  19
  -2  -1  11 437.004 215.256  16
  -2  -1  11 258.039 174.075  33
  -2  -1  11 427.009 203.778  19
  -2  -1  10 1456.08 299.351  16
  -2  -1  10 1812.95 627.733  18
  -2  -1  10 1859.63 310.231  33
  -2  -1  10 1621.29 313.788  23
  -2  -1  10 1729.59 294.082  19
  -2  -1   9 1774.97 607.459  18
  -2  -1   9 1177.84 241.542  16
  -2  -1   9 1046.86 241.148  33
  -2  -1   9 1275.68 257.459  23
  -2  -1   8 20214.1 1210.08  15
  -2  -1   8 20484.1 1262.24  11
  -2  -1   8 22685.0 1831.47  18
  -2  -1   8 22975.9 1263.02  16
  -2  -1   8 21953.2 1243.00  33
  -2  -1   8 21014.1 1253.91  23
  -2  -1   7 67063.3 3813.03  18
  -2  -1   7 65430.4 3213.23  33
  -2  -1   6 130050. 6191.08  18
  -2  -1   6 118619. 5657.86  33
  -2  -1   5 3670.96 504.499  18
   2   1  -5 4299.35 425.352   2
  -2  -1   4 4721.33 482.909  18
  -2  -1   4 4217.54 409.532  34
   2   1  -4 5165.78 471.177   2
  -2  -1   3 4705.11 412.610  18
  -2  -1   3 5484.69 455.958  34
   2   1  -3 5670.06 495.860   2
  -2  -1   2 117399. 5565.74  18
   2   1  -2 136248. 5838.75   1
  -2  -1   1 65483.4 3242.21  34
   2   1   0 7481.85 490.016  18
  -2  -1   0 8733.98 604.071  34
  -2  -1  -1 105735. 5067.79  34
   2   1   1 105361. 5106.55   2
   2   1   2 33870.1 2022.16  35
   2   1   2 33699.6 1832.59   2
   2   1   3 50955.8 2727.42  18
   2   1   3 46827.1 2778.99  35
   2   1   3 45297.2 2397.32   2
   2   1   4 8544.32 899.973  18
   2   1   4 7277.23 511.410  33
   2   1   4 7280.27 894.539  35
   2   1   5 265.295 329.052  18
   2   1   5 98.6553 118.660  33
   2   1   5 232.363 286.436  35
   2   1   6 47747.2 2393.11   9
   2   1   6 50640.3 3240.05  18
   2   1   6 46172.9 2428.30  16
   2   1   6 46149.9 2395.40  17
   2   1   6 46754.6 2414.23  33
   2   1   6 45137.9 2411.05  19
   2   1   7 1929.69 318.923  16
   2   1   7 2107.18 327.714  17
   2   1   7 2626.47 335.118   9
   2   1   7 2114.52 633.268  18
   2   1   7 1944.48 308.011  33
   2   1   7 2245.24 354.977  19
   2   1   8 5240.76 528.014  16
   2   1   8 5471.73 533.554  17
   2   1   8 5700.54 960.211  18
   2   1   8 5397.90 485.472   9
   2   1   8 5108.08 508.310  33
   2   1   8 5656.74 539.227  19
   2   1   8 4424.58 473.473  22
   2   1   9 16277.1 1038.13  17
   2   1   9 16665.3 1063.92  16
   2   1   9 15827.0 1048.16  33
   2   1   9 17717.2 1070.84  19
   2   1   9 14492.6 971.642  22
   2   1   9 17196.4 1085.26  20
   2   1  10 6779.71 553.678  17
   2   1  10 6765.11 566.479  20
   2   1  10 8049.16 582.969  19
   2   1  11 1161.61 181.062  17
   2   1  11 1666.77 215.157  19
   2   1  11 1233.09 194.043  20
  -2  -2  14 10.7876 131.106  17
  -2  -2  14 94.1205 103.890  16
  -2  -2  13 5516.13 465.280  16
  -2  -2  13 3730.12 380.469  19
  -2  -2  12 10479.2 789.868  33
  -2  -2  12 10174.0 752.426  19
  -2  -2  11 38312.3 1998.97  16
  -2  -2  11 35906.1 1968.78  33
  -2  -2  11 33923.3 1898.72  19
  -2  -2  10 50174.6 3602.13  18
  -2  -2  10 54966.6 2820.48  16
  -2  -2  10 53901.2 2798.21  33
  -2  -2   9 6827.72 972.212  18
  -2  -2   9 6460.53 556.540  16
  -2  -2   9 6583.74 543.642  33
  -2  -2   9 6124.05 547.492  23
  -2  -2   8 17.9205 110.872  15
  -2  -2   8-67.3304 294.553  18
  -2  -2   8 18.8335 135.742  16
  -2  -2   8-17.1253 118.459  33
  -2  -2   8 76.7872 136.528  23
  -2  -2   7 5916.06 758.030  18
  -2  -2   7 5398.28 418.562  33
  -2  -2   6 23148.9 1297.67  34
  -2  -2   6 20888.0 1128.36  33
  -2  -2   5 25667.2 1502.69  34
   2   2  -5 26804.6 1586.30   2
  -2  -2   4 12561.4 879.820  34
   2   2  -4 12641.8 930.262   2
  -2  -2   3 175951. 8459.84  34
   2   2  -3 181096. 8512.42   2
  -2  -2   2 554610. 22825.3  34
   2   2  -2 569451. 22882.9   2
  -2  -2   1 1795.04 309.675  34
   2   2   0 3622.69 342.870  18
  -2  -2   0 3750.42 417.893  34
   2   2   0 2806.65 332.056  35
   2   2   0 2988.45 404.549   2
   2   2   1 26755.1 1550.64  18
  -2  -2  -1 27954.7 1561.04  34
   2   2   1 25256.6 1598.88  35
   2   2   1 27568.6 1611.50   2
   2   2   2 91691.7 4611.14  18
  -2  -2  -2 91179.6 4455.33  34
   2   2   2 88668.9 4682.65  35
   2   2   2 90052.2 4512.68   2
   2   2   3 128026. 6052.25  18
   2   2   3 119133. 5483.05  33
   2   2   3 129634. 6173.91  35
   2   2   4 9427.63 1043.11  18
   2   2   4 10219.5 648.573  33
   2   2   5 9435.17 650.645  16
   2   2   5 9738.97 1112.65  18
   2   2   5 9096.12 650.394   9
   2   2   5 8827.57 650.558  17
   2   2   5 8476.65 618.162  28
   2   2   5 8064.30 610.049  33
   2   2   5 8577.35 642.364  19
   2   2   6 838.537 214.079  16
   2   2   6 1122.89 262.162  17
   2   2   6 267.939 405.953  18
   2   2   6 810.806 224.493   9
   2   2   6 641.473 193.601  33
   2   2   6 845.142 195.857  28
   2   2   6 628.544 234.889  19
   2   2   7 9114.74 714.765  17
   2   2   7 8698.82 690.422   9
   2   2   7 8212.05 688.262  16
   2   2   7 7719.48 1197.98  18
   2   2   7 8657.04 630.053  28
   2   2   7 9227.51 701.476  33
   2   2   7 9733.58 730.402  19
   2   2   7 9328.89 733.159  22
   2   2   8 627.151 243.158  17
   2   2   8 655.505 227.411  16
   2   2   8 1036.60 246.702   9
   2   2   8 949.274 223.345  33
   2   2   8 1128.33 247.123  22
   2   2   8 749.427 284.595  19
   2   2   9 2078.60 321.863  17
   2   2   9 2392.52 326.854  19
   2   2   9 1640.87 258.331  22
   2   2  10 13800.9 859.213  17
   2   2  10 14842.8 891.916  20
   2   2  10 15777.9 896.167  19
  -2  -3  14 8408.35 607.817  17
  -2  -3  14 9727.52 601.429  16
  -2  -3  13 8523.28 618.077  16
  -2  -3  13 10008.0 653.600  21
  -2  -3  12 351.317 195.702  16
  -2  -3  12 87.8693 158.503  33
  -2  -3  12 109.265 175.737  19
  -2  -3  11 18313.0 1141.65  16
  -2  -3  11 18809.0 1132.26  33
  -2  -3  10 18096.2 1140.06  16
  -2  -3  10 17107.7 1743.45  18
  -2  -3  10 17932.2 1117.50  33
  -2  -3   9 26720.1 2210.70  18
  -2  -3   9 29337.2 1656.36  15
  -2  -3   9 32054.9 1683.43  16
  -2  -3   9 29994.7 1640.79  33
  -2  -3   8 37980.8 1990.66  15
  -2  -3   8 38998.0 1996.53  16
  -2  -3   8 37448.7 1960.02  33
  -2  -3   8 38171.2 1998.08  23
  -2  -3   7 14781.1 1017.19  34
  -2  -3   7 14367.3 831.957  33
  -2  -3   6 2171.02 344.729  34
  -2  -3   5 1918.68 338.461  34
  -2  -3   4 826.289 255.900  34
   2   3  -4 741.165 269.463   2
   2   3  -3 32690.1 1983.40   2
  -2  -3   2 101462. 5095.08  34
   2   3  -2 99356.3 4790.84  37
   2   3  -2 107482. 5163.08   2
  -2  -3   1 36173.7 2117.41  34
   2   3  -1 36794.0 2164.87   2
  -2  -3   0 83400.0 4303.89  34
   2   3   0 85011.2 4355.81   2
   2   3   1 16902.6 1188.69  18
  -2  -3  -1 17266.3 1187.56  34
   2   3   2 998.193 331.221  18
  -2  -3  -2 816.973 221.642  34
   2   3   3 727.384 347.750  18
   2   3   3 650.235 147.032  33
   2   3   3 949.339 237.577  29
   2   3   4 7166.79 950.926  18
   2   3   4 6955.10 575.856   9
   2   3   4 8117.91 593.893  17
   2   3   4 6387.41 527.970  16
   2   3   4 7425.92 533.706  33
   2   3   4 7560.28 576.934  19
   2   3   4 7898.49 596.650  20
   2   3   5 14125.2 957.487   9
   2   3   5 15397.3 980.509  17
   2   3   5 14489.5 1503.23  18
   2   3   5 13716.0 918.976  16
   2   3   5 14571.0 919.731  33
   2   3   5 16123.6 966.559  28
   2   3   5 14130.7 946.614  19
   2   3   5 14609.5 982.277  20
   2   3   6 4307.04 755.568  18
   2   3   6 3662.11 414.991   9
   2   3   6 3314.69 418.603  17
   2   3   6 2730.93 360.858  16
   2   3   6 3064.72 359.835  33
   2   3   6 2860.10 362.525  28
   2   3   6 2780.89 405.727  19
   2   3   6 2967.98 424.950  20
   2   3   6 3217.34 417.144  22
   2   3   7 28313.1 1601.22  17
   2   3   7 23998.8 1524.17  16
   2   3   7 29217.8 1595.44   9
   2   3   7 29597.2 1645.01  20
   2   3   7 27855.9 1596.06  19
   2   3   7 27208.9 1599.50  22
   2   3   8 7176.82 595.033   9
   2   3   8 7669.06 633.702  17
   2   3   8 8072.29 641.977  19
   2   3   8 7665.52 604.282  22
   2   3   9 1921.19 291.948  17
   2   3   9 1913.41 241.097  22
   2   3   9 2051.07 290.544  19
   2   3  10 387.414 129.562  19
  -2  -4  14 3832.33 329.633  16
  -2  -4  14 3749.59 356.914  21
  -2  -4  13 12975.0 813.109  16
  -2  -4  13 14729.0 856.783  21
  -2  -4  12 1466.45 262.206  16
  -2  -4  12 1047.49 224.533  33
  -2  -4  12 1384.43 301.767  21
  -2  -4  11 5241.43 871.628  18
  -2  -4  11 5842.72 530.269  16
  -2  -4  11 5772.32 518.044  33
  -2  -4  10 12972.7 859.507  16
  -2  -4  10 10771.7 1335.09  18
  -2  -4  10 12570.6 831.811  33
  -2  -4  10 11343.5 762.572   8
   2   4 -10 12827.7 824.874   6
  -2  -4   9 77.9122 128.924  16
  -2  -4   9 100.739 120.219  15
  -2  -4   9 175.004 134.267  33
  -2  -4   9 98.0453 109.969   8
  -2  -4   8 2653.16 313.522  15
  -2  -4   8 2679.75 299.560  16
  -2  -4   8 3004.06 299.506  33
  -2  -4   8 2933.12 287.255   8
  -2  -4   7 16357.6 1202.77  34
   2   4  -7 14919.7 1267.73  29
  -2  -4   6 44108.8 2608.58  34
   2   4  -6 45707.2 2747.03  29
  -2  -4   5 38810.0 2346.87  34
  -2  -4   4 50266.0 2892.23  34
   2   4  -3 79078.3 3949.19  37
  -2  -4   2 265.354 213.539  34
  -2  -4   1 532.249 260.415  34
  -2  -4   0 5514.26 667.569  34
   2   4   1 6773.20 801.392  29
  -2  -4  -1 7198.18 746.777  34
   2   4   2 58375.5 3454.41  18
   2   4   2 59120.6 3382.46  29
  -2  -4  -2 61827.8 3289.05  34
   2   4   3 58621.7 2804.73  17
   2   4   3 54439.3 3384.15  18
   2   4   3 52338.6 2771.52   9
   2   4   3 53917.5 2779.24  20
   2   4   3 54783.0 2773.38  19
   2   4   4 32458.0 1726.81  17
   2   4   4 29637.0 2314.39  18
   2   4   4 30432.5 1701.32  28
   2   4   4 30113.3 1704.69  20
   2   4   4 31558.9 1738.70  22
   2   4   4 28266.0 1677.53  19
   2   4   5 12703.5 1479.88  18
   2   4   5 15756.2 1025.68  17
   2   4   5 14961.4 979.039  28
   2   4   5 13807.0 982.899  20
   2   4   5 14887.0 995.411  19
   2   4   6 1007.55 298.544  17
   2   4   6 560.484 240.044   9
   2   4   6 429.030 228.863  28
   2   4   6 387.499 250.071  19
   2   4   6 530.994 250.699  20
   2   4   6 1072.02 281.368  22
   2   4   7 13669.0 919.971  17
   2   4   7 12932.2 890.031   9
   2   4   7 13587.5 911.755  19
   2   4   7 12834.4 917.582  20
   2   4   7 12856.5 896.963  22
   2   4   8 19620.7 1136.51  17
   2   4   8 20027.5 1146.72  20
   2   4   8 18350.2 1099.73  22
   2   4   8 18862.9 1126.57  19
   2   4   9 8736.05 560.074  19
   2   4   9 8245.20 506.341  22
  -2  -5  14 351.573 115.307  16
   2   5 -14 673.429 115.043  10
  -2  -5  14 616.353 167.142  21
  -2  -5  13 1487.88 226.718  16
  -2  -5  13 1272.90 234.354  19
  -2  -5  12 172.851 160.554  16
  -2  -5  11 5068.47 485.777  16
  -2  -5  11 6202.03 876.914  18
  -2  -5  11 4723.55 449.043   8
   2   5 -11 6155.25 494.209   6
  -2  -5  10 9555.43 702.826  16
   2   5 -10 11549.2 756.723   6
  -2  -5  10 10739.9 693.413   8
  -2  -5   9 39673.5 2165.66  15
  -2  -5   9 43396.5 2141.12   8
  -2  -5   8 34194.7 1868.40  15
  -2  -5   8 36703.4 1868.86   8
  -2  -5   8 38366.9 2298.72  34
   2   5  -7 12125.5 1193.54  29
  -2  -5   7 13099.9 1160.46  34
   2   5  -6 1707.65 448.556  29
  -2  -5   6 1262.29 390.613  34
  -2  -5   5 834.915 319.795  34
   2   5  -5 318.107 289.174  29
   2   5  -4 174223. 8445.54  37
   2   5  -3 194561. 9434.87  37
  -2  -5   3 203973. 9841.28  34
  -2  -5   2 12698.9 1177.40  34
   2   5  -1 30858.7 2166.69  29
  -2  -5   1 29657.9 2069.35  34
   2   5   0 14898.3 1355.04  29
  -2  -5   0 14778.8 1283.75  34
   2   5   1 2783.67 351.429  17
   2   5   1 2410.76 303.791   9
  -2  -5  -1 2522.67 480.498  34
   2   5   1 2752.90 543.753  29
   2   5   1 2670.26 320.917  22
   2   5   1 2747.62 333.749  19
   2   5   2 2686.64 344.251   9
   2   5   2 2903.08 385.824  17
   2   5   2 3116.32 293.424   7
   2   5   2 3418.31 509.870  29
   2   5   2 2845.13 350.167  20
   2   5   2 2655.49 342.240  19
   2   5   2 3279.80 374.648  22
   2   5   3 4248.05 461.253   9
   2   5   3 4696.43 496.512  17
   2   5   3 4337.27 459.694  19
   2   5   3 4647.15 462.431  20
   2   5   3 4196.83 456.923  22
   2   5   4 44962.8 2372.93   9
   2   5   4 46251.6 2410.06  17
   2   5   4 43757.2 2363.11  28
   2   5   4 44737.2 2370.42  19
   2   5   4 45453.0 2374.03  20
   2   5   4 44837.2 2394.39  22
   2   5   4 41978.5 2254.69  24
   2   5   5 33402.8 1897.87   9
   2   5   5 35446.2 1929.50  17
   2   5   5 33505.8 1881.98  28
   2   5   5 34645.7 1904.89  19
   2   5   5 33447.4 1900.39  20
   2   5   6 16356.8 1079.81  17
   2   5   6 15804.6 1061.12  19
   2   5   6 17993.9 1096.67  20
   2   5   7 5332.48 472.373   9
   2   5   7 5321.87 441.101  14
   2   5   7 4973.40 471.075  20
   2   5   7 5340.99 476.761  19
   2   5   7 5328.57 473.210  22
   2   5   8 489.574 139.554  22
   2   5   8 349.810 146.514  19
   2   5   8 450.509 156.760  20
   2   6 -14 4761.52 336.075  10
  -2  -6  14 4400.08 379.115  21
  -2  -6  13 515.010 207.798  21
   2   6 -12 10022.1 669.526   6
   2   6 -11 1046.93 214.383   6
  -2  -6  11 764.447 193.638   8
   2   6 -10 2569.59 323.204   6
  -2  -6  10 2264.35 301.011   8
   2   6  -9 12609.8 854.531   6
  -2  -6   9 11921.6 798.255   8
  -2  -6   8 15201.5 939.696   8
   2   6  -8 12695.9 1337.59  29
   2   6  -7 35100.0 1811.74   3
   2   6  -7 33333.9 1815.65   7
   2   6  -7 36631.8 2533.55  29
  -2  -6   7 39491.9 2507.57  34
   2   6  -6 16351.8 997.529   7
   2   6  -6 17058.0 994.255   3
   2   6  -6 19026.3 1649.56  29
  -2  -6   6 17640.1 1530.81  34
   2   6  -5 12579.3 783.540   7
   2   6  -5 11188.7 750.171   3
   2   6  -5 13336.9 1336.14  29
  -2  -6   5 13548.3 1298.58  34
   2   6  -4 38302.8 1987.38   3
   2   6  -4 40873.7 2744.85  29
   2   6  -3 1657.82 237.435   7
  -2  -6   3 1542.24 490.555  34
   2   6  -2 201.629 112.216   3
   2   6  -2 225.701 248.990  29
  -2  -6   2 281.460 247.006  34
   2   6  -1 444.282 146.229   3
   2   6  -1 530.741 158.021   7
   2   6  -1 518.253 324.702  29
  -2  -6   1 767.191 365.404  34
   2   6   0 42668.6 2265.33   9
   2   6   0 44993.8 2238.94   3
   2   6   0 45701.8 2273.54   7
   2   6   0 48744.1 3015.61  29
  -2  -6   0 45737.1 2909.30  34
   2   6   0 44180.4 2305.21  19
   2   6   0 45073.2 2291.76  22
   2   6   0 42518.6 2251.99  20
   2   6   1 49669.5 2680.09   9
   2   6   1 54680.4 2655.98   7
   2   6   1 50526.9 2599.55   3
  -2  -6  -1 54405.5 3258.80  34
   2   6   1 54787.5 3307.04  29
   2   6   1 54547.8 2728.59  19
   2   6   1 55198.1 2723.30  22
   2   6   1 52574.9 2680.90  20
   2   6   2 17740.1 1142.86   9
   2   6   2 18028.2 1066.37   7
   2   6   2 18025.9 1164.63  28
   2   6   2 19264.0 1148.21  20
   2   6   2 19869.8 1185.24  22
   2   6   2 19184.4 1182.37  19
   2   6   3 2260.78 352.520   9
   2   6   3 2106.05 343.461  22
   2   6   3 2176.19 351.264  19
   2   6   3 2136.62 333.810  20
   2   6   3 2176.64 296.936  24
   2   6   4 863.459 269.914   9
   2   6   4 838.692 266.740  28
   2   6   4 536.970 268.591  19
   2   6   4 698.017 258.273  22
   2   6   4 908.276 249.175  20
   2   6   4 838.923 187.498  24
   2   6   5 576.451 250.666   9
   2   6   5 253.753 210.598  28
   2   6   5 354.840 246.682  19
   2   6   5 721.141 245.041  22
   2   6   5 257.565 203.164  20
   2   6   6 3160.21 360.735   9
   2   6   6 2402.90 328.425  19
   2   6   6 2239.28 310.890  20
   2   6   7 8489.27 568.857  19
   2   6   7 8266.53 555.741  20
   2   6   7 8580.96 553.592  22
   2   7 -14 1459.20 169.626  10
  -2  -7  14 1338.30 197.329  21
   2   7 -13 651.284 125.027   6
   2   7 -13 720.766 169.971  10
  -2  -7  13 372.260 190.342  21
  -2  -7  12 3704.90 354.719   8
   2   7 -12 4183.70 376.341   6
  -2  -7  11 19942.5 1172.05   8
   2   7 -11 20870.0 1213.70   6
   2   7 -10 14441.0 942.020   6
  -2  -7  10 13797.9 894.524   8
  -2  -7   9 678.264 190.722   8
   2   7  -9 529.157 187.538   6
  -2  -7   9 338.125 128.248  36
   2   7  -8 1097.03 225.635   6
  -2  -7   8 839.590 211.738   8
   2   7  -8 680.262 178.045   3
  -2  -7   8 956.019 356.732  34
   2   7  -8 1252.61 411.275  29
   2   7  -7 472.956 157.623   7
   2   7  -7 383.425 156.531   3
   2   7  -7 421.351 170.104   6
  -2  -7   7 632.555 333.951  34
   2   7  -7 592.064 328.622  29
   2   7  -6 2390.51 298.809   6
   2   7  -6 2540.86 308.933   7
   2   7  -6 2245.33 294.155   3
   2   7  -6 3501.61 703.390  29
  -2  -7   6 3685.26 712.707  34
   2   7  -5 670.960 163.429   6
   2   7  -5 924.315 195.300   7
   2   7  -5 706.857 177.972   3
  -2  -7   5 666.453 366.002  34
   2   7  -5 708.106 374.657  29
   2   7  -4 10119.9 703.301   3
   2   7  -4 10077.0 669.925   6
   2   7  -4 10296.4 720.320   7
   2   7  -4 12556.2 1356.81  29
  -2  -7   4 9897.17 1203.02  34
   2   7  -3 61291.4 3100.82   7
  -2  -7   3 64974.1 3956.37  34
   2   7  -2 12135.5 804.645   3
   2   7  -2 13316.9 1425.69  29
  -2  -7   2 14261.9 1443.84  34
   2   7  -1 7899.03 586.109   3
   2   7  -1 8712.00 624.746   7
   2   7  -1 8355.16 1075.00  29
  -2  -7   1 8539.09 1083.62  34
   2   7  -1 7625.56 586.687  22
   2   7   0 383.661 175.431   7
   2   7   0 612.828 210.266   9
   2   7   0 630.522 161.128   3
  -2  -7   0 457.730 268.694  34
   2   7   0 623.593 353.814  29
   2   7   0 579.061 191.947  20
   2   7   0 486.996 206.901  22
   2   7   1 2706.11 354.653   9
   2   7   1 2747.28 320.102   7
   2   7   1 2580.28 377.088  28
   2   7   1 2734.42 341.932  20
   2   7   1 2880.86 373.093  22
   2   7   1 3116.63 452.666  19
   2   7   2 6550.64 603.691   9
   2   7   2 7675.15 555.936   7
   2   7   2 8320.36 674.372  28
   2   7   2 7268.38 652.632  19
   2   7   2 7661.35 618.270  20
   2   7   2 7801.85 639.809  22
   2   7   2 8015.88 622.019  24
   2   7   3 14659.0 963.182   9
   2   7   3 14559.2 981.148  28
   2   7   3 14894.1 993.464  19
   2   7   3 13656.4 936.664  20
   2   7   3 14535.6 968.541  22
   2   7   3 14306.4 911.310  24
   2   7   4 30673.8 1640.27   9
   2   7   4 27865.3 1629.51  19
   2   7   4 29003.3 1613.19  20
   2   7   4 29454.6 1627.36  22
   2   7   5 13638.3 869.386   9
   2   7   5 14028.7 864.210  22
   2   7   5 13603.2 848.852  20
   2   7   6 3069.87 288.043  14
   2   7   6 2878.08 277.152  22
   2   7   6 2593.28 260.626  20
   2   8 -14 3316.15 251.832  10
  -2  -8  14 3192.11 274.801  21
   2   8 -13 8860.03 560.424   6
   2   8 -13 9658.95 603.877  10
  -2  -8  13 9838.53 622.404  21
  -2  -8  12 1603.99 231.531   8
   2   8 -12 1883.31 237.299   6
   2   8 -11 94.4354 144.922   6
  -2  -8  11 163.793 149.684   8
   2   8 -10 5547.72 491.738   6
  -2  -8  10 5113.35 460.175   8
   2   8  -9 17903.5 1108.89   6
  -2  -8   9 18117.0 1080.02   8
  -2  -8   9 16921.0 1023.33  36
   2   8  -8 21114.5 1226.11   7
   2   8  -8 23153.4 1930.57  29
  -2  -8   8 22795.7 1936.13  34
   2   8  -7 13742.7 888.584   3
   2   8  -7 14451.7 922.682   6
   2   8  -7 13339.5 881.718   7
   2   8  -7 14296.9 1515.59  29
  -2  -8   7 12708.6 1436.37  34
   2   8  -6 24622.0 1396.68   6
   2   8  -6 24811.0 1406.24   7
   2   8  -6 23335.5 1389.31   3
   2   8  -6 24342.1 2162.10  29
  -2  -8   6 28299.6 2241.03  34
   2   8  -5 761.563 198.120   3
   2   8  -5 468.621 150.259   6
   2   8  -5 738.342 196.304   7
   2   8  -5 877.276 442.319  29
   2   8  -4 11668.5 744.673   6
   2   8  -4 11724.2 817.100   7
  -2  -8   4 12671.5 1435.10  34
   2   8  -3 2302.65 322.190   7
   2   8  -3 2503.10 311.080   3
  -2  -8   3 2076.84 572.264  34
   2   8  -3 1983.67 284.576  28
   2   8  -2 16016.9 968.190   3
   2   8  -2 15639.0 1613.73  29
   2   8  -2 14163.2 960.678  28
  -2  -8   2 18147.1 1701.98  34
   2   8  -1 37695.2 1937.18   7
   2   8  -1 39043.3 2734.93  29
  -2  -8   1 38224.0 2704.59  34
   2   8  -1 35649.7 1944.77  28
   2   8  -1 33183.3 1872.17  22
   2   8   0 2412.60 311.287   9
   2   8   0 2489.46 311.084   7
   2   8   0 2642.76 358.654  28
   2   8   0 2125.06 302.632  27
   2   8   0 1932.97 287.985  20
   2   8   0 2613.60 331.465  22
   2   8   1 1566.79 237.162   7
   2   8   1 1401.04 271.882   9
   2   8   1 1748.27 312.850  28
   2   8   1 1779.88 299.291  24
   2   8   1 1138.66 249.189  20
   2   8   1 1469.27 267.830  22
   2   8   2 12712.7 856.053   9
   2   8   2 13846.5 806.243   7
   2   8   2 13805.3 909.292  28
   2   8   2 12112.6 841.650  20
   2   8   2 13421.4 873.530  22
   2   8   2 12947.4 853.734  24
   2   8   3 1073.60 232.197   9
   2   8   3 1372.95 272.499  28
   2   8   3 1146.62 226.850  20
   2   8   3 937.099 223.863  22
   2   8   3 1238.25 215.601  24
   2   8   4 2056.91 259.250  20
   2   8   4 2220.56 270.353  22
   2   8   5 2697.99 286.981  14
   2   8   5 2877.86 314.648  20
   2   9 -13 7831.44 463.867   6
  -2  -9  13 7241.56 487.876  21
   2   9 -12 12088.8 762.404  10
  -2  -9  12 12898.3 761.353   8
   2   9 -12 13752.7 778.696   6
   2   9 -11 3866.87 362.287  10
   2   9 -11 4067.68 378.973   6
  -2  -9  11 4039.25 367.098   8
   2   9 -10 641.831 177.589   6
  -2  -9   9 5330.69 440.355  36
   2   9  -8 451.314 170.777   6
   2   9  -8 464.161 147.692   7
  -2  -9   8 389.962 187.671   8
   2   9  -7 8521.20 620.728   6
  -2  -9   7 7831.09 618.816   8
   2   9  -7 7733.98 600.711   7
   2   9  -7 7462.96 1040.93  29
  -2  -9   7 8441.11 1106.83  34
   2   9  -6 13671.3 915.602   7
   2   9  -6 14592.5 899.180   6
   2   9  -6 13371.9 1533.80  29
  -2  -9   6 15055.5 1624.88  34
   2   9  -5 13712.4 855.888   6
   2   9  -5 13445.3 912.387   7
   2   9  -5 14965.3 1603.93  29
  -2  -9   5 16465.2 1670.11  34
   2   9  -4 14811.1 972.709   7
  -2  -9   4 16308.4 1662.34  34
   2   9  -3 1232.01 399.671  29
  -2  -9   3 95.2162 157.842  34
   2   9  -2 724.910 199.475   7
  -2  -9   2 1151.83 374.965  34
   2   9  -2 602.845 203.360  28
   2   9  -1 1746.10 269.125   7
   2   9  -1 1835.97 297.678  28
   2   9   0 6679.57 509.196   7
   2   9   0 5235.39 507.468  28
   2   9   0 6366.94 490.250  22
   2   9   0 6215.50 541.506  24
   2   9   1 7757.47 556.353   7
   2   9   1 8341.39 624.303  28
   2   9   1 8533.79 588.330  22
   2   9   1 8633.23 618.786  24
   2   9   2 1742.94 235.457  22
   2   9   2 1754.88 232.611  24
   2   9   3 283.996 201.033  14
   2   9   3 238.821 116.366  22
   2   9   4 3158.34 233.301  22
   2  10 -12 242.376 87.3740  10
  -2 -10  12 302.820 107.584   8
   2  10 -12 179.598 89.0529   6
   2  10 -11 535.797 128.951  10
   2  10 -11 697.492 152.795   6
  -2 -10  11 540.816 151.652   8
   2  10 -10 6410.90 447.896  10
  -2 -10   9 18388.7 1035.76   8
   2  10  -9 18281.6 1042.02   6
  -2 -10   9 16749.0 996.616  36
   2  10  -8 10659.2 712.503   6
  -2 -10   8 11588.3 729.227   8
   2  10  -8 10164.3 677.993   7
  -2 -10   7 5322.96 451.278   8
   2  10  -7 5260.39 432.538   6
   2  10  -7 4997.30 432.749   7
   2  10  -6 1823.49 235.506   6
   2  10  -6 2090.94 286.054   7
  -2 -10   6 2138.11 268.505   8
  -2 -10   5 1745.68 245.011   8
   2  10  -5 2012.46 286.324   7
  -2 -10   4 3839.65 347.881   8
   2  10  -4 3605.35 388.138   7
  -2 -10   3 7800.44 523.474   8
   2  10  -2 12086.7 739.273   7
  -2 -10   2 10536.9 693.750  36
   2  10  -2 9435.24 716.636  27
   2  10  -2 10809.7 751.221  24
   2  10  -1 3309.43 321.141   7
  -2 -10   1 2557.55 260.862  36
   2  10   0 3275.86 300.546   7
   2  10   0 3454.59 336.360  24
   2  10   1 597.347 202.927  14
   2  10   1 717.137 151.351  24
   2  10   2-106.896 143.676  14
  -2 -11  10 740.211 146.616   8
   2  11 -10 819.978 142.327   6
   2  11  -9 2517.09 245.554   6
  -2 -11   9 2682.44 266.353   8
  -2 -11   8 3080.91 291.633   8
   2  11  -8 3248.56 281.994   6
   2  11  -8 2836.26 258.803   7
  -2 -11   8 3092.61 298.164  36
   2  11  -7 7903.03 517.497   7
  -2 -11   7 7851.08 516.132   8
  -2 -11   7 7023.94 527.576  36
   2  11  -7 7126.95 490.671  24
   2  11  -6 21265.1 1132.39   7
  -2 -11   6 20755.9 1098.03   8
   2  11  -6 18921.3 1110.99  24
   2  11  -5 6394.30 465.071   7
  -2 -11   5 5946.74 408.288   8
  -2 -11   5 6224.33 469.811  36
   2  11  -5 5161.74 447.765  24
   2  11  -4 8039.24 535.633   7
  -2 -11   4 7048.77 514.476  36
   2  11  -4 7094.28 534.524  24
  -2 -11   3 129.630 98.5453  36
   2  11  -3 99.7263 130.208  24
   2  11  -2 1974.72 225.864   7
   2  11  -2 2028.65 246.869  24
   2  11  -1 5691.40 380.994   7
   2  11   0 3615.41 269.497  24
  -2 -12   9 2847.02 219.065   8
  -2 -12   8 4944.79 316.832   8
   2  12  -7 450.780 96.0130   7
  -2 -12   7 259.725 75.9050   8
   2  12  -6 1793.86 183.177   7
   2  12  -6 1632.26 162.388  24
   2  12  -5 3390.57 254.042   7
   2  12  -5 2763.37 252.115  27
   2  12  -5 2557.40 231.134  24
   2  12  -4 9360.02 521.927   7
   2  12  -4 8069.68 508.027  24
   2  12  -3 5450.74 354.380  24
  -3  12  -2 9144.39 591.860  27
  -3  12  -3 4942.87 394.951  27
  -3  12  -4 1522.09 172.494  26
  -3  12  -4 1806.30 217.366  27
  -3  12  -5 6365.04 438.205  27
  -3  12  -5 5959.47 404.542  26
  -3  12  -6 5523.75 359.707   4
  -3  12  -6 5923.19 384.984  26
  -3  12  -7 7560.60 449.976   4
  -3  11   2 3416.48 286.878  13
  -3  11   1 4193.62 355.916  13
  -3  11   1 4624.31 387.938  27
  -3  11   0 4899.74 398.864  13
  -3  11  -1 440.295 167.344  27
  -3  11  -2 1453.07 252.489  27
  -3  11  -2 1124.76 199.878  26
  -3  11  -3 449.424 177.721  27
  -3  11  -3 308.512 137.144  26
  -3  11  -4 126.530 103.759   4
  -3  11  -4 168.800 131.733  27
  -3  11  -5 491.980 143.365   4
  -3  11  -5 357.101 160.259  27
  -3  11  -6 2739.83 287.229   4
  -3  11  -6 2710.73 293.947  27
  -3  11  -7 13622.7 810.214   4
  -3  11  -9 2194.82 215.396   4
  -3  10   3 1315.05 237.979  14
  -3  10   3 1171.11 206.168  13
  -3  10   3 1753.34 237.677  27
  -3  10   2 136.876 199.031  14
  -3  10   2 187.144 136.865  27
  -3  10   1 3560.68 386.417  24
  -3  10   0 2252.06 306.291  24
  -3  10   0 2154.75 280.855  26
  -3  10  -1 267.731 171.650  24
  -3  10  -1 526.460 225.776  27
  -3  10  -1 388.604 167.793  26
  -3  10  -2 5559.87 448.320   4
  -3  10  -2 5260.67 469.072  24
  -3  10  -2 6397.37 588.183  27
  -3  10  -3 11001.3 734.484   4
  -3  10  -3 10842.0 822.263  27
  -3  10  -4 20719.9 1212.03   4
  -3  10  -5 11676.3 734.341   4
   3 -10   5 8446.44 633.720   8
  -3  10  -6 2731.57 300.543  10
  -3  10  -6 3310.00 361.329   4
   3 -10   6 2632.61 313.467   8
  -3  10  -7 4110.61 369.926  10
   3 -10   7 4184.34 391.098   8
  -3  10  -8 561.277 150.887  10
  -3  10  -8 471.934 152.369   4
  -3  10  -9 2756.31 283.008  10
  -3  10  -9 3844.51 323.816   4
  -3  10 -10 8589.43 527.046  10
  -3  10 -10 8782.76 527.968   4
  -3   9   6 1591.97 168.449  13
  -3   9   5-96.0812 131.008  13
  -3   9   5 42.6910 196.532  14
  -3   9   4 3933.41 387.447  14
  -3   9   4 3159.77 364.798  27
  -3   9   3 2330.90 350.901  14
  -3   9   3 2435.39 345.158  27
  -3   9   3 2538.01 412.017  22
  -3   9   2 13229.0 863.930  14
  -3   9   2 14738.9 970.532  27
  -3   9   2 12144.0 848.338  26
  -3   9   2 14053.0 915.940  24
  -3   9   1 15662.0 971.521  14
  -3   9   1 15748.3 1016.01  26
  -3   9   1 17009.4 1048.49  24
  -3   9   0 8819.92 697.034  26
  -3   9   0 10467.3 795.574  27
  -3   9   0 8552.71 688.137  24
  -3   9  -1 3296.27 356.535   4
  -3   9  -1 4575.59 455.207   7
  -3   9  -1 3607.70 758.366  29
  -3   9  -1 5023.21 520.464  27
  -3   9  -1 4131.96 420.433  24
  -3   9  -2 1605.24 286.619   7
  -3   9  -2 1858.06 269.658   4
  -3   9  -2 1956.30 284.206  24
  -3   9  -3 944.095 498.752  37
  -3   9  -3 487.124 396.181  29
  -3   9  -3 864.459 207.987   7
  -3   9  -3 754.070 198.241   4
  -3   9  -4 2512.40 286.287  10
  -3   9  -4 2414.24 616.887  29
  -3   9  -4 2612.48 742.021  37
   3  -9   4 1979.36 275.011   8
  -3   9  -4 2386.68 326.972   4
  -3   9  -5 28494.6 1568.71  10
  -3   9  -5 30643.5 2721.77  37
   3  -9   5 28730.0 1575.55   8
  -3   9  -6 24262.0 1410.47  10
   3  -9   6 26077.9 1432.64   8
  -3   9  -7 2342.26 303.525  10
   3  -9   7 1998.80 303.858   8
  -3   9  -8 5484.96 475.023  10
  -3   9  -8 5208.16 469.463   4
   3  -9   8 5129.90 471.418   8
   3  -9   9 675.324 189.272  33
  -3   9  -9 1335.20 213.091   4
  -3   9 -10 175.811 104.676   4
  -3   9 -11 1023.34 148.220  10
  -3   8   7 5355.90 361.553  13
  -3   8   6 17826.8 1015.75  13
  -3   8   6 17766.8 1026.79  14
  -3   8   5 16993.5 1032.65  14
  -3   8   5 18151.9 1043.76  13
  -3   8   5 16052.6 1056.35  27
  -3   8   5 16417.5 1033.82  22
  -3   8   4 18.1993 273.494  14
  -3   8   4 274.747 189.498  27
  -3   8   4 250.033 224.804  22
  -3   8   3 12709.0 859.175  14
  -3   8   3 11783.6 838.351  26
  -3   8   3 12535.9 876.005  22
  -3   8   3 13141.5 932.909  27
  -3   8   3 12075.6 872.787  24
  -3   8   2 5162.43 521.796  14
  -3   8   2 5897.91 547.846  22
  -3   8   2 5870.68 528.188  26
  -3   8   2 5592.35 541.639  24
  -3   8   1 25838.7 1479.65   7
  -3   8   1 25273.5 1423.75  14
  -3   8   1 24118.4 1474.63  26
  -3   8   1 25306.5 1487.17  22
  -3   8   1 26912.9 1491.76  24
  -3   8   0 20014.8 1243.82   4
  -3   8   0 22402.3 1338.24   7
  -3   8   0 23177.9 2087.73  29
  -3   8   0 23497.9 1419.97  27
  -3   8   0 25627.8 1353.27  24
  -3   8  -1 2990.52 344.886   4
  -3   8  -1 3148.35 377.671   7
  -3   8  -1 3257.32 368.076  24
  -3   8  -2 3849.56 398.952   7
  -3   8  -2 3556.71 388.818   4
  -3   8  -2 3932.08 805.540  29
  -3   8  -2 4386.82 902.778  37
  -3   8  -2 4280.21 392.369  24
  -3   8  -3 312.431 137.700  10
  -3   8  -3 819.229 453.948  37
  -3   8  -3 458.479 355.731  29
  -3   8  -3 70.5640 134.080   7
  -3   8  -4 2296.74 289.536  10
  -3   8  -4 2156.68 693.714  37
  -3   8  -4 3108.07 724.090  29
   3  -8   4 2067.58 279.701   8
  -3   8  -5 18171.5 1094.70  10
  -3   8  -5 18521.6 2017.43  37
  -3   8  -5 15099.8 1751.43  29
   3  -8   5 18182.9 1089.18   8
  -3   8  -6 5093.82 473.741  10
   3  -8   6 4906.18 472.017   8
  -3   8  -7 2104.26 307.850  10
   3  -8   7 1649.92 294.416   8
   3  -8   8 3639.99 407.734   8
  -3   8  -9 16953.0 1021.83  10
   3  -8   9 15143.7 1023.51  33
  -3   8  -9 16944.1 1008.12   4
   3  -8  10 15758.1 1029.57  33
  -3   8 -10 17021.2 983.039   4
  -3   8 -11 366.840 124.420  10
   3  -8  12 82.5658 75.3130  19
  -3   7   8 5971.07 455.604  14
  -3   7   7 86.0106 142.298  13
  -3   7   7 136.206 179.644  22
  -3   7   6 2110.88 294.664  13
  -3   7   6 1551.25 366.647  14
  -3   7   6 1560.29 284.225  22
  -3   7   6 1578.30 458.468  20
  -3   7   5 534.393 319.769  14
  -3   7   5 443.873 340.067  20
  -3   7   5 497.593 206.633  27
  -3   7   4 10138.7 770.578  14
  -3   7   4 10119.5 761.118  26
  -3   7   4 10379.4 827.843  27
  -3   7   4 10975.9 790.535  22
  -3   7   3 54513.2 2737.26  14
  -3   7   3 51188.9 2761.34  22
  -3   7   3 51129.4 2757.16  26
  -3   7   3 55662.0 2854.38  27
  -3   7   3 55232.6 2778.07  24
  -3   7   2 25242.0 1393.12  14
  -3   7   2 24415.2 1427.04  26
  -3   7   2 23299.5 1409.62  22
  -3   7   2 24170.2 1417.07  24
  -3   7   1 26676.1 1495.42  14
  -3   7   1 26373.0 1536.34   7
  -3   7   1 27117.8 2192.84  29
  -3   7   1 28528.0 1562.85  22
  -3   7   1 26859.5 1607.84  27
  -3   7   1 29122.2 1549.11  24
  -3   7   0 8889.97 652.122   4
  -3   7   0 10255.5 707.607   7
  -3   7   0 10569.4 1218.45  29
  -3   7   0 9394.69 710.829  22
  -3   7   0 10880.5 708.445  24
  -3   7  -1 4493.74 411.509   4
  -3   7  -1 4343.08 422.818   7
  -3   7  -1 4583.14 911.157  37
  -3   7  -1 5062.18 420.464  24
  -3   7  -2 2019.56 254.982  10
  -3   7  -2 2395.44 575.434  29
  -3   7  -2 1257.37 555.711  37
  -3   7  -2 2180.29 267.612   7
  -3   7  -3 4970.10 449.198  10
  -3   7  -3 7845.42 1201.51  37
  -3   7  -3 7629.33 1024.02  29
   3  -7   3 5797.56 456.795   8
  -3   7  -3 6436.28 490.293   7
  -3   7  -4 21303.0 1245.65  10
  -3   7  -4 23840.5 1979.49  29
   3  -7   4 21757.0 1231.81   8
  -3   7  -5 118.729 144.726  10
  -3   7  -5 322.427 249.488  29
  -3   7  -5 106.491 413.034  30
  -3   7  -5 61.7759 142.680   6
   3  -7   5 385.550 166.483   8
  -3   7  -6 3827.82 415.469  10
  -3   7  -6 4028.21 424.335   6
   3  -7   6 4666.36 448.810   8
   3  -7   7 88844.4 4368.23   8
  -3   7  -8 19825.1 1193.94  10
   3  -7   8 18604.6 1182.69   8
  -3   7  -9 2877.32 356.079  10
   3  -7   9 3006.96 381.283  33
  -3   7  -9 3354.97 353.982   4
  -3   7 -10 7994.70 584.966  10
   3  -7  10 6984.24 593.228  33
  -3   7 -11 11701.1 691.680  10
   3  -7  11 10005.9 704.406  33
   3  -7  12 7420.63 494.957  19
  -3   6   8 10636.5 707.439  14
  -3   6   8 9365.38 650.034  13
  -3   6   8 9962.58 717.417  19
  -3   6   8 11096.3 734.369  20
  -3   6   8 10182.7 683.857  22
  -3   6   7 24309.9 1416.40  11
  -3   6   7 23430.0 1429.90  12
  -3   6   7 27032.9 1455.23  13
  -3   6   7 25262.7 1440.85  17
  -3   6   7 25788.5 1460.28  19
  -3   6   7 25539.9 1455.28  20
  -3   6   7 28333.2 1473.34  22
  -3   6   6 39173.2 2077.49  17
  -3   6   6 41528.9 2109.20  13
  -3   6   6 37975.4 2086.31  11
  -3   6   6 39124.5 2157.30  27
  -3   6   6 36235.5 2022.22  23
  -3   6   6 38868.7 2104.22  19
  -3   6   6 40895.8 2119.46  20
  -3   6   6 39491.7 2097.42  22
  -3   6   5 5388.69 510.068  17
  -3   6   5 5536.10 565.376  14
  -3   6   5 5774.13 566.103  27
  -3   6   5 5370.15 472.619  23
  -3   6   5 5567.86 519.773  26
  -3   6   5 5459.89 531.583  19
  -3   6   5 5904.96 540.940  20
  -3   6   5 5273.00 515.546  22
  -3   6   5 5580.93 538.523  24
  -3   6   4 24586.1 1363.99  14
  -3   6   4 23922.6 1339.61  17
  -3   6   4 21134.0 1304.23  23
  -3   6   4 22145.7 1359.59  19
  -3   6   4 24052.7 1438.18  27
  -3   6   4 24783.1 1391.37  20
  -3   6   4 22210.2 1358.36  26
  -3   6   3 12919.4 851.916  14
  -3   6   3 12865.3 888.439  19
  -3   6   3 11714.2 812.726  23
  -3   6   3 12743.8 872.791  20
  -3   6   3 12300.7 904.619  27
  -3   6   3 14512.6 887.583  22
  -3   6   3 11601.6 848.489  26
  -3   6   3 13634.1 871.795  24
  -3   6   2 35406.8 1855.39  14
  -3   6   2 38445.4 2544.98  29
  -3   6   2 38521.0 1909.52  22
  -3   6   2 32828.1 1888.64  26
  -3   6   2 32841.1 1850.64  23
  -3   6   2 37444.7 1895.46  24
  -3   6   1 26736.0 1441.49  14
  -3   6   1 25486.5 1468.06   7
  -3   6   1 28512.2 2110.06  29
  -3   6   1 26515.0 1486.13  22
  -3   6   1 26734.5 1540.33  27
  -3   6   1 29191.5 1487.52  24
  -3   6   0 7862.08 581.328   7
  -3   6   0 9525.97 1063.10  29
  -3   6   0 8340.50 608.367  22
  -3   6   0 7983.76 573.445  24
  -3   6  -1 82702.9 4519.34  29
  -3   6  -1 91704.4 4656.13  30
  -3   6  -1 88381.9 4885.46  37
  -3   6  -1 73249.7 3752.45   7
  -3   6  -2 34942.5 2507.06  29
  -3   6  -2 37689.9 2806.09  37
  -3   6  -2 39411.9 2677.57  30
  -3   6  -3 3065.87 320.351  10
  -3   6  -3 3723.51 672.834  29
   3  -6   3 3127.46 302.990   8
  -3   6  -4 523.160 156.467  10
  -3   6  -4 705.820 400.434  30
  -3   6  -4 619.731 333.051  29
  -3   6  -4 747.575 163.595   6
   3  -6   4 517.297 152.316   8
  -3   6  -5 20808.7 1233.65  10
  -3   6  -5 25268.0 2123.62  30
  -3   6  -5 20946.1 1232.42   6
   3  -6   5 22006.8 1237.14   8
  -3   6  -6 20939.8 1996.77  30
  -3   6  -6 18456.0 1161.13   6
   3  -6   6 21539.2 1212.25   8
  -3   6  -7 827.691 229.584  10
  -3   6  -7 615.217 480.399  30
   3  -6   7 836.860 327.413  35
   3  -6   7 410.119 200.783   8
  -3   6  -8 2564.94 347.827  10
  -3   6  -9 18185.6 1049.40  10
   3  -6   9 18032.1 1114.69  33
  -3   6 -10 8850.28 641.241  10
   3  -6  10 8728.29 688.429  33
  -3   6 -11 8259.96 554.659  10
   3  -6  11 8153.79 612.331  33
   3  -6  12 1175.80 169.693  19
  -3   5   9 7796.09 602.328  17
  -3   5   9 9499.46 640.602  14
  -3   5   9 8755.83 602.952  20
  -3   5   9 8632.07 613.503  19
  -3   5   9 8609.07 586.013  22
  -3   5   8 117.475 148.373  11
  -3   5   8-70.9651 267.264  14
  -3   5   8 19.6771 193.867  17
  -3   5   8 18.7628 171.351  12
  -3   5   8-88.7752 192.525  13
  -3   5   8 139.567 176.012  19
  -3   5   8 36.0985 136.781  23
  -3   5   8 71.1535 155.654  22
  -3   5   8 131.442 174.273  20
  -3   5   7 4616.07 475.169  11
  -3   5   7 4978.55 526.221  14
  -3   5   7 4817.77 479.368  13
  -3   5   7 4754.64 482.752  17
  -3   5   7 4443.39 482.108  12
  -3   5   7 4418.70 448.836  23
  -3   5   7 4991.10 477.376  22
  -3   5   7 4782.68 481.572  20
  -3   5   7 5420.31 504.095  19
  -3   5   6 15515.4 979.563  13
  -3   5   6 13465.5 939.637  17
  -3   5   6 13777.4 1017.04  27
  -3   5   6 15254.8 981.756  20
  -3   5   6 14981.8 979.182  19
  -3   5   6 14839.8 965.138  22
  -3   5   6 15256.5 963.505  23
  -3   5   5 13910.4 923.248  17
  -3   5   5 14522.5 943.532  23
  -3   5   5 15423.2 971.969  20
  -3   5   5 14647.4 960.434  19
  -3   5   5 15597.4 1034.90  27
  -3   5   5 14913.4 960.455  22
  -3   5   5 15033.9 982.652  26
  -3   5   5 14818.8 973.449  24
  -3   5   4 45617.6 2390.42  17
  -3   5   4 48074.6 2413.38  14
  -3   5   4 44445.3 2412.96  23
  -3   5   4 46290.7 2430.64  19
  -3   5   4 50896.6 2462.08  20
  -3   5   4 50184.7 2516.68  27
  -3   5   4 49187.6 2443.28  22
  -3   5   4 44957.0 2438.82  26
  -3   5   3 19829.9 1129.36  14
  -3   5   3 19070.0 1133.42  23
  -3   5   3 18676.3 1132.88  19
  -3   5   3 21141.7 1170.35  20
  -3   5   3 19258.4 1159.39  26
  -3   5   3 20732.7 1154.66  24
  -3   5   2 32655.5 2235.29  29
  -3   5   1 247.787 246.236  30
  -3   5   1 386.359 296.065  29
  -3   5   1 333.867 302.700  32
  -3   5   0 1076.73 359.409  30
  -3   5  -1 26774.3 1431.18  31
  -3   5  -1 25595.0 1899.34  30
  -3   5  -1 26654.0 2002.48  32
  -3   5  -1 26482.2 1887.47  29
  -3   5  -2 28641.4 2111.37  32
  -3   5  -2 28177.9 1979.54  29
  -3   5  -3 63419.8 3756.23  30
  -3   5  -3 59575.2 3552.90  29
  -3   5  -4 28776.4 2124.70  30
  -3   5  -4 27741.9 1910.97  29
  -3   5  -4 23701.9 1344.63   6
  -3   5  -5 24625.1 1383.08  10
  -3   5  -5 26107.2 2126.20  30
   3  -5   5 26610.1 1399.49   8
  -3   5  -5 23951.8 1366.16   6
  -3   5  -6 552.404 171.724  10
  -3   5  -6 178.471 314.150  30
   3  -5   6 914.177 212.949   8
  -3   5  -6 552.906 156.176   6
  -3   5  -7 2669.67 335.639  10
  -3   5  -7 1674.08 586.192  30
   3  -5   7 2645.50 667.551  35
  -3   5  -8 3605.11 404.238  10
  -3   5  -8 4247.81 744.829  30
   3  -5   8 4288.68 838.472  35
  -3   5  -9 20.3673 142.884  10
   3  -5   9-81.2551 184.656  33
  -3   5 -10 1162.07 217.245  10
   3  -5  10 1475.74 271.639  33
  -3   5 -11 5247.85 401.605  10
   3  -5  11 6249.48 507.172  33
   3  -5  12 5914.74 432.142  19
  -3   4  11 1929.41 224.582  17
  -3   4  10 8422.49 600.780  17
  -3   4  10 7320.78 552.445  19
  -3   4   9 13421.3 852.483  14
  -3   4   9 14482.6 900.191  17
  -3   4   9 12255.7 852.620  11
  -3   4   9 10336.5 804.653  12
  -3   4   9 13137.9 863.194  23
  -3   4   9 13494.1 839.435  20
  -3   4   9 12744.1 854.020  19
  -3   4   9 13965.3 819.665  22
  -3   4   8 12074.9 864.878  11
  -3   4   8 11699.9 814.600  13
  -3   4   8 12028.6 834.545  14
  -3   4   8 12195.4 844.286  17
  -3   4   8 11179.4 829.085  12
  -3   4   8 10466.6 762.916  16
  -3   4   8 12968.3 859.404  23
  -3   4   8 12674.0 837.186  20
  -3   4   8 12822.5 848.683  19
  -3   4   8 12401.6 804.794  22
  -3   4   7 9802.75 774.323  12
  -3   4   7 10845.6 803.950  11
  -3   4   7 11314.6 773.756  13
  -3   4   7 10261.3 771.686  14
  -3   4   7 10412.4 714.761  16
  -3   4   7 10285.2 761.843  17
  -3   4   7 11203.6 792.442  23
  -3   4   7 10594.4 756.201  22
  -3   4   7 11816.6 788.025  20
  -3   4   7 11219.3 780.157  19
  -3   4   6 7010.52 580.003  17
  -3   4   6 7779.93 617.908  14
  -3   4   6 7713.55 595.043  13
  -3   4   6 6954.83 633.605  27
  -3   4   6 6719.55 575.919  23
  -3   4   6 6977.84 573.327  19
  -3   4   6 7334.03 581.355  20
  -3   4   6 7353.34 575.116  22
  -3   4   5 11781.8 784.683  17
  -3   4   5 12514.5 828.906  23
  -3   4   5 13207.0 825.218  20
  -3   4   5 11592.1 825.021  26
  -3   4   5 12694.9 813.707  19
  -3   4   5 12732.8 816.271  22
  -3   4   5 12454.6 878.720  27
  -3   4   5 13358.0 841.416  24
  -3   4   4 6201.45 500.842  14
  -3   4   4 6311.79 530.155  27
  -3   4   4 6085.37 483.226  22
  -3   4   4 6000.95 500.754  26
  -3   4   3 54180.4 3201.65  32
  -3   4   2 72131.0 3524.25  31
  -3   4   2 74477.6 3859.37  30
  -3   4   2 79736.5 4144.30  32
  -3   4   1 70155.3 3419.80  31
  -3   4   1 72533.2 3821.17  30
  -3   4   1 79426.4 4043.44  32
  -3   4   1 68792.7 3918.00  29
  -3   4   0 112452. 5735.29  30
  -3   4  -1 20996.5 1530.55  30
  -3   4  -1 19953.1 1105.17  31
  -3   4  -1 21677.4 1598.97  32
  -3   4  -1 21763.6 1520.26  29
  -3   4  -2 640.140 156.746  31
  -3   4  -2 728.258 307.264  29
  -3   4  -2 853.212 375.360  32
  -3   4  -3 974.295 179.883  31
  -3   4  -3 1374.25 399.176  32
  -3   4  -3 1340.40 422.852  30
  -3   4  -4 22504.6 1789.16  30
  -3   4  -4 21665.3 1688.77  32
  -3   4  -5 9675.16 672.107  10
  -3   4  -5 12136.1 1251.47  30
   3  -4   5 10741.1 696.114   8
   3  -4   6 25166.3 1486.58  16
  -3   4  -6 28516.5 1489.77  10
  -3   4  -6 26812.3 2156.55  30
  -3   4  -7 48162.9 2435.23  10
   3  -4   7 46564.6 2475.86  16
  -3   4  -7 43259.2 3150.60  30
   3  -4   7 50319.5 3477.66  35
  -3   4  -8 6063.10 508.893  10
   3  -4   8 5496.13 543.395  16
   3  -4   8 6017.91 593.147  33
   3  -4   8 4754.37 959.577  35
   3  -4   9 2114.98 337.568  16
  -3   4  -9 1548.01 258.577  10
   3  -4   9 1835.42 346.906  33
   3  -4   9 1785.52 528.069  35
  -3   4 -10 232.858 130.097  10
   3  -4  10 295.517 186.953  33
   3  -4  11 1670.63 262.612  33
   3  -4  11 1433.58 258.236  19
   3  -4  12 463.881 137.679  19
  -3   3  12 2748.64 245.953  17
  -3   3  11 4029.52 384.307  17
  -3   3  11 3524.00 333.030  19
  -3   3  10 5432.57 502.522  17
  -3   3  10 5135.47 444.405  16
  -3   3  10 4548.46 460.812  23
  -3   3  10 4999.06 458.175  19
  -3   3   9 1921.62 347.420  14
  -3   3   9 1927.23 292.956  16
  -3   3   9 1750.61 322.254  17
  -3   3   9 1677.80 309.577  11
  -3   3   9 1742.98 270.741  13
  -3   3   9 1789.83 306.092  12
  -3   3   9 2077.55 327.497  23
  -3   3   9 2118.68 320.834  19
  -3   3   9 2234.72 276.397  22
  -3   3   9 1986.17 285.670  20
  -3   3   8 340.842 200.404  12
  -3   3   8 409.112 202.125  11
  -3   3   8 617.535 186.575  16
  -3   3   8 969.842 253.243  17
  -3   3   8 711.527 282.504  14
  -3   3   8 826.728 218.576  13
  -3   3   8 983.422 542.613  18
  -3   3   8 741.552 230.772  23
  -3   3   8 514.077 209.732  19
  -3   3   8 493.006 177.687  22
  -3   3   8 311.398 167.568  20
  -3   3   7 12287.6 1454.29  18
  -3   3   7 10947.8 799.851  11
  -3   3   7 11061.0 791.435  12
  -3   3   7 11218.3 768.257  14
  -3   3   7 10954.6 757.010  13
  -3   3   7 10418.6 753.017  17
  -3   3   7 10502.2 740.335  16
  -3   3   7 11596.1 745.727  22
  -3   3   7 11331.4 790.955  23
  -3   3   7 11936.7 762.486  20
  -3   3   7 9501.02 724.699  19
  -3   3   6 39881.9 2099.20  17
  -3   3   6 39056.1 2095.64  14
  -3   3   6 48306.2 3124.61  18
  -3   3   6 43885.6 2136.28  13
  -3   3   6 39967.9 2108.59  16
  -3   3   6 42001.2 2208.77  27
  -3   3   6 39299.3 2144.71  23
  -3   3   6 43724.9 2125.56  20
  -3   3   6 42579.3 2112.72  22
  -3   3   6 38219.3 2092.79  19
  -3   3   5 25801.2 2056.20  18
  -3   3   4 1653.16 514.354  18
  -3   3   4 1582.21 187.071  31
  -3   3   4 1289.19 329.107  32
  -3   3   3 30855.6 1509.47  31
  -3   3   3 27623.3 1642.15  30
  -3   3   3 30806.8 1923.79  32
  -3   3   2 6596.48 618.401  30
  -3   3   2 7288.49 736.941  32
  -3   3   2 6466.24 434.045  31
  -3   3   1 715.552 249.484  30
  -3   3   1 1005.42 333.243  37
  -3   3   0 165232. 7882.92  30
  -3   3   0 162023. 7947.89  32
  -3   3   0 158099. 7904.04  29
  -3   3  -1 209111. 10112.9  32
  -3   3  -2 88659.3 4470.72  30
  -3   3  -2 92973.9 4456.72  32
  -3   3  -2 80353.6 3926.06  31
  -3   3  -3 21202.6 1541.17  30
  -3   3  -3 21867.3 1493.34  32
  -3   3  -3 19297.6 1053.78  31
  -3   3  -4 1005.73 354.062  30
  -3   3  -4 800.260 287.502  32
  -3   3  -5 7894.46 929.346  30
   3  -3   5 6030.55 658.381   1
  -3   3  -6 5376.16 434.828  10
   3  -3   6 4553.56 458.955  16
  -3   3  -6 4624.71 771.196  30
   3  -3   6 5347.12 908.742  35
  -3   3  -7 5358.36 461.041  10
   3  -3   7 5897.27 537.693  16
   3  -3   7 6500.54 1033.47  35
  -3   3  -7 4276.09 757.571  30
  -3   3  -8 21755.9 1290.52  10
   3  -3   8 24507.2 1426.68  16
   3  -3   8 23186.4 2232.29  35
   3  -3   9 23588.2 1444.23  16
   3  -3  10 9127.02 691.700  19
   3  -3  11 616.402 200.057  19
   3  -3  12 2724.53 251.267  19
  -3   2  12 686.537 148.814  16
  -3   2  12 442.763 168.169  17
  -3   2  11 5116.55 480.528  17
  -3   2  11 5374.92 464.738  16
  -3   2  11 4838.92 432.846  19
  -3   2  10 2008.74 301.947  16
  -3   2  10 2396.67 353.180  17
  -3   2  10 2320.92 336.594  23
  -3   2  10 2017.48 259.608  20
  -3   2  10 1685.93 286.061  19
  -3   2   9 10700.1 1444.59  18
  -3   2   9 10853.4 831.444  11
  -3   2   9 9152.89 723.901  13
  -3   2   9 13051.9 841.649  16
  -3   2   9 10846.8 760.549  14
  -3   2   9 11368.8 818.317  17
  -3   2   9 10749.6 797.759  12
  -3   2   9 11630.6 749.691  20
  -3   2   9 12436.2 861.373  23
  -3   2   9 10671.8 768.473  19
  -3   2   8 11437.4 803.684  16
  -3   2   8 11943.3 858.147  11
  -3   2   8 11601.8 776.675  14
  -3   2   8 13369.8 1515.00  18
  -3   2   8 12207.3 791.045  13
  -3   2   8 11399.5 813.461  12
  -3   2   8 11333.7 829.787  23
  -3   2   8 11893.4 764.942  20
  -3   2   8 11313.6 726.060  22
  -3   2   8 9695.46 739.965  19
  -3   2   7 6329.19 962.540  18
  -3   2   7 6171.41 523.036  16
  -3   2   7 6331.75 462.063  15
  -3   2   7 5668.53 525.800  11
  -3   2   7 6180.15 514.645  14
  -3   2   7 6293.05 506.546  13
  -3   2   7 5967.92 526.269  12
  -3   2   7 6168.61 528.032  23
  -3   2   7 6217.21 482.376  20
  -3   2   7 5587.82 447.796  22
  -3   2   7 5433.26 469.129  19
  -3   2   7 5870.47 496.674  21
  -3   2   6 15661.2 1434.66  18
  -3   2   6 11845.7 797.797  23
  -3   2   5 2897.82 576.556  18
  -3   2   5 2021.93 352.438  32
   3  -2  -5 1812.68 320.273   1
  -3   2   4 67800.9 3747.51  18
  -3   2   4 67818.2 3512.46  32
   3  -2  -4 64604.4 3493.10   1
  -3   2   3 40480.3 2165.73  30
  -3   2   3 46466.8 2426.44  32
  -3   2   2 38065.2 2164.86  32
  -3   2   2 37061.0 2226.40  37
  -3   2   1 108734. 5465.59  37
  -3   2   0 1092.42 282.972  32
  -3   2  -1 37679.7 2163.95  32
  -3   2  -2 7877.92 731.305  32
  -3   2  -3 204263. 9792.63  32
  -3   2  -4 68779.8 3725.26  32
   3  -2   4 73649.0 3717.84   1
  -3   2  -5 11727.3 1138.65  30
  -3   2  -6 8848.16 612.779  10
   3  -2   6 9885.50 708.677  16
  -3   2  -6 7680.55 978.545  30
   3  -2   6 10840.6 1308.45  35
   3  -2   7 668.343 222.835  16
   3  -2   7 736.615 222.934  33
   3  -2   7 868.873 422.435  35
   3  -2   8 405.689 212.970  16
   3  -2   8 730.552 440.366  18
   3  -2   8 372.731 211.969  33
   3  -2   8 356.685 393.640  35
   3  -2   9 2736.92 403.907  16
   3  -2   9 2312.79 369.118  33
   3  -2   9 2412.44 357.961  19
   3  -2  10 387.629 184.906  33
   3  -2  10 986.148 232.128  19
   3  -2  11 5177.32 444.547  33
   3  -2  11 5497.34 442.781  19
   3  -2  11 5018.89 431.237  20
   3  -2  12 6732.30 421.348  19
  -3   1  13 7738.90 484.924  16
  -3   1  13 6731.77 485.241  17
  -3   1  12 5100.17 475.646  17
  -3   1  12 5645.77 471.371  16
  -3   1  11 629.212 204.916  16
  -3   1  11 441.214 219.643  17
  -3   1  11 501.407 197.446  19
  -3   1  10 295.446 193.909  16
  -3   1  10 404.609 182.474  19
  -3   1  10 268.283 204.050  23
  -3   1   9 4914.67 525.442  11
  -3   1   9 4909.55 462.959  14
  -3   1   9 4925.57 492.056  12
  -3   1   9 5446.14 989.428  18
  -3   1   9 4699.92 479.576  16
  -3   1   9 4206.41 423.901  19
  -3   1   9 5259.88 484.099  21
  -3   1   8 26565.3 1578.11  11
  -3   1   8 26761.4 1491.56  15
  -3   1   8 26574.8 1462.39  14
  -3   1   8 28584.6 1512.46  13
  -3   1   8 27284.3 1542.66  12
  -3   1   8 28514.8 1562.57  16
  -3   1   8 29474.2 1529.32  21
  -3   1   8 24289.4 1459.06  19
  -3   1   7 29087.9 1538.06  16
  -3   1   7 26970.8 1536.89  11
  -3   1   7 26593.8 1468.28  15
  -3   1   7 29388.9 2178.28  18
  -3   1   7 27053.9 1520.10  12
  -3   1   7 27504.2 1474.12  21
  -3   1   6 13416.9 1264.40  18
  -3   1   5 28244.3 1836.13  18
  -3   1   5 25026.2 1543.74  32
   3  -1  -5 25316.1 1561.58   1
  -3   1   4 1045.52 343.509  18
  -3   1   4 1570.20 174.960  30
  -3   1   4 1836.20 333.283  32
   3  -1  -4 2054.65 353.657   1
  -3   1   3 248.742 235.639  18
  -3   1   3 55.1783 176.735  32
   3  -1  -3 60.0403 164.690   1
   3  -1  -2 3153.39 427.146   1
  -3   1   1 4624.15 490.377  32
  -3   1   1 3391.98 430.207  37
  -3   1   0 84679.9 4241.31  32
  -3   1  -1 85465.9 4395.93  32
   3  -1   1 91278.8 4448.85   1
  -3   1  -2 46799.7 2572.13  32
   3  -1   2 49212.5 2613.26   1
  -3   1  -3 16701.2 1120.88  32
   3  -1   3 16124.8 1130.75   1
   3  -1   4 780.023 218.932   1
   3  -1   5 38623.0 2070.93  16
   3  -1   5 44181.7 2894.09  35
   3  -1   6 19360.4 1221.33  16
   3  -1   6 22193.4 1235.97  33
   3  -1   6 23017.6 2020.66  35
   3  -1   7 23809.1 2142.26  18
   3  -1   7 23424.3 1435.28  16
   3  -1   7 23765.0 1416.94  33
   3  -1   7 24689.6 2270.17  35
   3  -1   8 14078.5 1681.85  18
   3  -1   8 14598.2 969.092  17
   3  -1   8 16537.4 1099.65  16
   3  -1   8 16411.3 1073.75  33
   3  -1   8 16467.7 1044.12  19
   3  -1   9 8011.32 647.939  17
   3  -1   9 10181.9 783.971  16
   3  -1   9 9577.85 738.187  33
   3  -1   9 10561.2 739.300  19
   3  -1  10 3650.08 402.377  33
   3  -1  10 4356.46 419.048  19
   3  -1  10 4142.31 432.293  20
   3  -1  11 1961.97 258.482  20
   3  -1  11 2387.76 268.699  19
  -3   0  13 1162.23 201.250  16
  -3   0  13 1055.44 229.395  17
  -3   0  12 12744.2 814.567  17
  -3   0  12 13633.6 829.505  16
  -3   0  11 13712.6 936.044  16
  -3   0  11 15019.0 936.437  21
  -3   0  10 2019.90 707.493  18
  -3   0  10 3020.61 380.555  21
  -3   0  10 2198.97 310.726  19
  -3   0   9 4491.15 504.969  11
  -3   0   9 5454.91 485.135  15
  -3   0   9 4503.03 890.792  18
  -3   0   9 4995.72 499.587  33
  -3   0   9 5690.45 501.657  21
  -3   0   9 5520.43 526.846  23
  -3   0   9 4997.07 449.633  19
  -3   0   8 2263.28 588.092  18
  -3   0   8 1443.93 229.617  15
  -3   0   8 1217.70 264.838  11
  -3   0   8 1588.97 256.400  12
  -3   0   8 1272.64 250.291  33
  -3   0   8 1490.83 249.551  21
  -3   0   8 1402.02 218.897  19
  -3   0   8 1838.41 272.350  23
  -3   0   7 381.038 267.851  18
  -3   0   7 135.903 137.870  33
  -3   0   6 13699.0 1169.26  18
  -3   0   6 11190.8 862.811  32
  -3   0   6 13177.6 772.698  33
  -3   0   5 2210.29 422.876  18
  -3   0   5 1726.54 210.198  33
  -3   0   5 2118.34 331.174  32
   3   0  -5 1253.84 283.684   1
  -3   0   4 4049.42 497.212  18
   3   0  -4 4322.51 494.988   1
  -3   0   3 86686.3 4409.46  18
   3   0  -3 95837.0 4559.43   1
   3   0  -2 44303.3 2426.65   1
  -3   0   1 10070.6 652.833  37
   3   0   0 2123.44 356.359   1
   3   0   1 48582.2 2637.97   1
   3   0   2 41202.3 2300.71   1
  -3   0  -3 1918.08 314.640  32
   3   0   3 2654.18 366.648   2
   3   0   4 52425.5 2614.52  33
   3   0   4 53867.0 3350.02  35
   3   0   5 48047.5 3123.74  18
   3   0   5 48891.8 2480.19  33
   3   0   6 9073.82 1221.82  18
   3   0   6 10975.0 733.106   9
   3   0   6 9680.33 702.423  17
   3   0   6 11726.6 782.774  33
   3   0   6 10994.7 759.716  19
   3   0   7 10149.1 1339.42  18
   3   0   7 10742.9 740.877   9
   3   0   7 10392.7 748.590  17
   3   0   7 11243.2 811.666  33
   3   0   7 11633.3 805.573  19
   3   0   8 4160.47 488.833  16
   3   0   8 5319.53 868.197  18
   3   0   8 4155.60 429.126  17
   3   0   8 3844.09 446.867  33
   3   0   8 4685.37 468.412  19
   3   0   9 16866.3 1068.75  17
   3   0   9 19456.1 1154.70  33
   3   0   9 16226.8 1059.19  22
   3   0  10 3916.10 378.973  33
   3   0  10 4150.08 418.121  20
   3   0  10 5253.37 431.290  19
   3   0  11 2636.78 262.040  20
   3   0  11 2578.27 241.361  19
  -3  -1  14 2966.76 292.901  17
  -3  -1  13 3452.64 383.452  17
  -3  -1  12 487.298 220.942  16
  -3  -1  12 563.567 225.010  21
  -3  -1  12 169.344 151.371  19
  -3  -1  11 7325.47 629.182  16
  -3  -1  11 7744.49 620.440  21
  -3  -1  11 5884.29 526.055  19
  -3  -1  10 3195.13 374.769  15
  -3  -1  10 2829.37 759.565  18
  -3  -1  10 2968.15 385.073  16
  -3  -1  10 3410.24 396.925  33
  -3  -1  10 2913.09 401.769  23
  -3  -1  10 3133.49 394.314  21
  -3  -1  10 2335.47 317.892  19
  -3  -1   9 26095.2 1452.98  15
  -3  -1   9 23852.3 2056.14  18
  -3  -1   9 26363.5 1486.94  16
  -3  -1   9 25860.6 1460.49  33
  -3  -1   9 26744.9 1493.99  23
  -3  -1   9 26991.8 1450.11  21
  -3  -1   9 21957.4 1356.80  19
  -3  -1   8 11258.5 777.071  16
  -3  -1   8 10989.6 751.185  15
  -3  -1   8 12316.4 1242.38  18
  -3  -1   8 11599.4 758.761  33
  -3  -1   8 10602.2 758.713  23
  -3  -1   7 84276.4 4389.79  18
  -3  -1   7 77232.2 3789.16  33
  -3  -1   6 81650.6 4066.04  18
  -3  -1   6 74115.1 3587.52  33
   3   1  -6 73761.4 3870.15   2
  -3  -1   5 7442.99 686.598  18
   3   1  -5 6840.64 666.651   2
  -3  -1   4 12568.2 844.714  18
  -3  -1   4 12282.8 907.196  34
  -3  -1   3 39134.7 1995.02  18
  -3  -1   3 39679.9 2221.67  34
   3   1  -3 45127.7 2323.83   1
  -3  -1   2 104866. 5481.27  34
   3   1  -2 121927. 5601.87   1
  -3  -1   1 1305.07 269.114  34
  -3  -1   0 1824.92 318.973  34
   3   1   0 2510.15 394.611   1
   3   1   1 8432.51 751.226   2
   3   1   2 51149.1 2835.88  18
   3   1   2 52518.9 2822.96   2
   3   1   3 2777.05 498.042  18
   3   1   3 3439.99 294.888  33
   3   1   3 2673.71 556.746  35
   3   1   3 2977.49 403.254   2
   3   1   4 1280.24 440.971  18
   3   1   4 1501.36 217.361  33
   3   1   4 1790.61 482.636  35
   3   1   5 23921.6 1935.98  18
   3   1   5 23841.8 1324.62  17
   3   1   5 23819.3 1381.09  16
   3   1   5 23299.5 1349.73   9
   3   1   5 23845.8 1342.34  33
   3   1   5 25555.7 2132.37  35
   3   1   5 23165.9 1341.80  19
   3   1   6 41445.7 2106.74   9
   3   1   6 36827.8 2804.88  18
   3   1   6 38013.6 2139.44  16
   3   1   6 38452.0 2071.01  17
   3   1   6 37714.2 2092.51  33
   3   1   6 42225.0 2122.57  19
   3   1   7 6110.37 531.603  17
   3   1   7 5966.88 517.758   9
   3   1   7 5788.63 559.132  16
   3   1   7 5203.15 503.867  33
   3   1   7 6052.96 543.663  19
   3   1   8 18387.7 1101.96   9
   3   1   8 16778.6 1104.71  17
   3   1   8 18127.7 1143.68  33
   3   1   8 20757.3 1181.12  19
   3   1   8 18708.8 1156.80  22
   3   1   8 19289.5 1214.11  20
   3   1   9 1824.28 265.488  17
   3   1   9 1846.85 263.608  33
   3   1   9 1914.59 267.810  22
   3   1   9 1903.37 299.362  19
   3   1  10 597.805 172.128  19
  -3  -2  14 5706.61 471.194  17
  -3  -2  14 6997.72 472.612  16
  -3  -2  13 10662.6 743.456  16
  -3  -2  12 10533.1 733.733  16
  -3  -2  12 10606.8 726.094  21
  -3  -2  11 18063.5 1095.74  16
  -3  -2  11 15287.6 1023.26  33
  -3  -2  11 18250.6 1075.53  21
  -3  -2  11 14198.1 957.673  19
  -3  -2  10 5110.33 913.820  18
  -3  -2  10 5297.09 520.787  16
  -3  -2  10 5487.53 501.974  33
  -3  -2  10 5458.19 525.806  23
  -3  -2  10 5791.20 527.396  21
  -3  -2  10 4468.44 434.593  19
  -3  -2   9 1794.90 514.923  18
  -3  -2   9 3088.28 357.967  16
  -3  -2   9 2321.43 307.414  33
  -3  -2   9 2479.12 327.003  23
  -3  -2   8 373.294 169.061  16
  -3  -2   8 694.296 194.779  11
  -3  -2   8 414.326 160.708  15
  -3  -2   8 427.464 343.311  18
  -3  -2   8 742.482 165.305  33
  -3  -2   8 579.805 171.193  23
  -3  -2   7 31665.9 2034.42  18
  -3  -2   7 30408.8 1583.10  33
  -3  -2   6 62372.4 3342.03  18
  -3  -2   6 59266.9 3289.30  34
   3   2  -6 66554.6 3419.09   2
  -3  -2   5 45096.0 2549.32  18
  -3  -2   5 50147.7 2675.53  34
   3   2  -5 53731.6 2796.86   2
  -3  -2   4 25035.3 1399.37  18
  -3  -2   4 27110.1 1629.96  34
   3   2  -4 30204.6 1754.48   2
   3   2  -3 48014.2 2695.17   2
  -3  -2   2 6636.13 661.474  34
   3   2  -2 8296.54 760.618   2
  -3  -2   1 23971.8 1514.86  34
   3   2  -1 24199.8 1600.79   2
  -3  -2   0 33679.9 1895.55  34
   3   2   0 37161.4 2016.50   2
   3   2   1 9905.45 791.528  18
  -3  -2  -1 11507.6 885.757  34
   3   2   1 10590.1 924.682  35
   3   2   1 11146.3 935.393   2
   3   2   2 18642.4 1336.84  18
   3   2   2 19810.5 1490.92  35
   3   2   2 19021.8 1346.08   2
   3   2   3 13865.9 1152.35  18
   3   2   3 10886.2 681.451  33
   3   2   3 11270.3 1158.72  35
   3   2   4 25320.1 1979.51  18
   3   2   4 28163.2 1479.74  17
   3   2   4 27663.2 1509.99  16
   3   2   4 26672.4 1508.42   9
   3   2   4 25990.9 1443.88  33
   3   2   4 27070.5 1483.04  19
   3   2   5 1967.18 314.152  16
   3   2   5 2644.37 649.607  18
   3   2   5 1642.17 297.721  17
   3   2   5 2549.81 347.586   9
   3   2   5 1830.39 268.880  33
   3   2   5 2314.77 323.009  19
   3   2   6-24.1767 154.830  16
   3   2   6 63.3367 174.548  17
   3   2   6-138.148 201.456   9
   3   2   6-42.2411 128.319  33
   3   2   6-18.4701 133.127  28
   3   2   6 43.8957 179.633  19
   3   2   7 2689.59 360.367  17
   3   2   7 2253.73 337.144   9
   3   2   7 2073.70 296.776  33
   3   2   7 2302.92 391.705  20
   3   2   7 2166.36 331.304  19
   3   2   7 3139.42 408.497  22
   3   2   8 14267.9 936.126   9
   3   2   8 15098.9 961.312  17
   3   2   8 16838.5 1043.55  20
   3   2   8 14918.0 974.316  22
   3   2   8 16042.7 985.544  19
   3   2   9 5488.50 438.967  17
   3   2   9 5931.95 505.919  20
   3   2   9 6631.75 484.936  19
   3   2   9 5509.99 433.351  22
   3   2  10 4201.74 307.381  19
  -3  -3  14 1112.85 194.771  16
  -3  -3  13-58.2062 148.778  16
  -3  -3  12 8341.79 624.213  16
  -3  -3  12 5233.60 482.228  19
  -3  -3  11 4105.48 717.565  18
  -3  -3  11 3938.43 453.326  16
  -3  -3  11 3856.60 419.590  33
  -3  -3  11 4724.51 490.589  21
  -3  -3  10 9351.86 718.561  15
  -3  -3  10 10320.2 742.550  16
  -3  -3  10 9227.43 678.880  33
  -3  -3   9 21068.5 1228.07  15
  -3  -3   9 18513.3 1647.71  18
  -3  -3   9 20779.0 1223.64  16
  -3  -3   9 19588.3 1161.49  33
  -3  -3   9 20491.2 1215.82  23
  -3  -3   8 54695.8 2725.83  16
  -3  -3   8 56188.1 2735.67  15
  -3  -3   8 52279.8 3186.18  18
  -3  -3   8 52582.1 2655.25  33
  -3  -3   8 53126.1 2702.79  23
  -3  -3   7 2144.91 443.970  18
  -3  -3   7 2271.92 391.372  34
  -3  -3   7 2342.47 209.479  36
  -3  -3   6 3606.42 465.360  18
  -3  -3   6 3636.97 278.636  36
  -3  -3   6 3013.44 462.567  34
  -3  -3   5 2357.96 415.743  34
  -3  -3   5 2295.46 220.683  36
   3   3  -5 2762.98 476.791   2
  -3  -3   4 412.019 119.019  18
  -3  -3   4 622.002 261.806  34
   3   3  -4 273.899 262.176   2
   3   3  -3 26929.2 1811.02   2
  -3  -3   2 53346.7 2978.56  34
  -3  -3   1 92887.2 4470.13  34
   3   3  -1 100351. 4614.80   2
  -3  -3   0 24817.3 1597.28  34
  -3  -3   0 23454.4 1206.02  36
   3   3   0 21917.8 1447.49  35
   3   3   0 26377.5 1711.48   2
   3   3   1 161.393 213.660  18
  -3  -3  -1 267.678 189.879  34
  -3  -3  -1 167.178 83.3790  36
   3   3   1 281.502 245.468   2
   3   3   2 760.531 340.751  18
  -3  -3  -2 765.686 243.631  34
   3   3   3 9260.25 657.710  17
   3   3   3 8117.42 951.963  18
   3   3   3 9598.34 657.831  19
   3   3   4 19966.9 1202.79   9
   3   3   4 19574.0 1167.18  17
   3   3   4 18319.5 1096.31  33
   3   3   4 19180.3 1201.22  20
   3   3   4 19704.3 1165.53  19
   3   3   5 612.609 240.997  17
   3   3   5 459.830 244.429   9
   3   3   5 541.380 220.396  28
   3   3   5 493.191 144.983  33
   3   3   5 371.195 215.725  20
   3   3   5 479.905 203.656  19
   3   3   6 1356.22 296.929  17
   3   3   6 1610.50 315.257   9
   3   3   6 987.168 247.198  28
   3   3   6 1386.19 316.720  20
   3   3   6 849.731 254.055  19
   3   3   6 1423.37 310.005  22
   3   3   7 18760.6 1156.55   9
   3   3   7 17743.0 1143.27  17
   3   3   7 19234.6 1202.59  20
   3   3   7 19509.3 1196.60  22
   3   3   7 19383.2 1159.22  19
   3   3   8 4954.50 415.820   9
   3   3   8 4102.05 392.030  17
   3   3   8 4037.50 404.650  22
   3   3   8 3946.87 424.961  20
   3   3   8 4428.56 414.207  19
   3   3   9 840.145 163.656  19
   3   3   9 687.390 169.739  20
  -3  -4  14 7782.33 529.609  16
  -3  -4  13 9378.87 670.033  16
  -3  -4  12 12392.6 749.017  16
  -3  -4  12 6911.54 597.980  19
  -3  -4  11 11277.6 808.426  16
  -3  -4  10 549.013 192.654  16
  -3  -4  10 705.177 206.376  15
  -3  -4  10 799.098 361.541  18
  -3  -4   9 5579.21 497.907  15
  -3  -4   9 4945.60 776.685  18
  -3  -4   9 5859.25 498.690  16
  -3  -4   9 5927.37 446.491   8
  -3  -4   8 24028.4 1343.16  16
  -3  -4   8 24762.5 1368.25  15
  -3  -4   8 22051.1 1694.66  18
  -3  -4   8 24579.1 1666.67  34
  -3  -4   7 21164.9 1491.52  34
  -3  -4   7 19141.9 1040.03  36
  -3  -4   6 44664.4 2676.43  34
   3   4  -5 10920.5 1077.78   2
  -3  -4   5 9842.36 969.110  34
   3   4  -4 271199. 13157.5   2
   3   4  -3 5752.32 741.055   2
  -3  -4   3 4074.75 607.396  34
  -3  -4   2 4045.12 596.956  34
   3   4  -1 31594.5 2118.08   2
  -3  -4   1 29901.2 2014.77  34
  -3  -4   0 54245.0 3134.47  34
   3   4   1 115951. 5645.02   9
  -3  -4  -1 127317. 6117.92  34
  -3  -4  -1 117896. 5533.08  36
   3   4   2 29485.3 1579.81  17
   3   4   2 28617.3 1589.94   9
   3   4   2 26830.3 1982.21  29
   3   4   2 27818.8 1540.50  19
   3   4   2 28356.6 1564.30  20
   3   4   3 4363.42 464.378  17
   3   4   3 3353.65 422.823   9
   3   4   3 4232.35 442.036  20
   3   4   3 4702.87 440.468  19
   3   4   4 3903.05 456.143  17
   3   4   4 3833.48 449.456  20
   3   4   4 3769.12 457.835  22
   3   4   4 3942.42 434.230  19
   3   4   5 232.488 246.277  17
   3   4   5 159.025 202.445  28
   3   4   5 124.641 212.336  20
   3   4   5 202.667 205.788  19
   3   4   6 107.220 212.783  17
   3   4   6-22.9627 211.438   9
   3   4   6 190.800 179.899  28
   3   4   6 23.5819 206.367  20
   3   4   6 20.9793 194.733  19
   3   4   6 196.432 229.702  22
   3   4   7 3714.24 391.938   9
   3   4   7 4234.84 417.247  22
   3   4   7 3456.09 377.293  19
   3   4   7 3417.04 397.088  20
   3   4   8 8529.17 562.198  22
   3   4   8 8313.35 552.431  19
   3   4   8 8766.34 584.008  20
  -3  -5  14 29.9068 100.960  16
   3   5 -14 55.6849 91.4536  10
  -3  -5  13 10456.6 689.830  16
  -3  -5  12 21576.0 1277.47  16
   3   5 -12 22785.5 1257.71   6
  -3  -5  11 9620.90 690.824  16
  -3  -5  11 8662.92 622.610   8
   3   5 -11 10293.0 714.675   6
  -3  -5  10 5339.65 491.016  15
  -3  -5  10 4744.12 451.445  16
  -3  -5  10 5106.77 429.872   8
  -3  -5   9 13114.4 857.969  15
  -3  -5   9 12621.8 807.844   8
  -3  -5   8 4485.11 421.431  15
  -3  -5   8 5233.42 694.833  34
   3   5  -8 4862.74 761.791  29
  -3  -5   8 5004.58 382.178  36
   3   5  -7 3246.42 315.625   3
  -3  -5   7 3367.60 570.661  34
   3   5  -7 3445.76 669.073  29
  -3  -5   7 3153.16 302.010  36
  -3  -5   6 478.492 262.558  34
  -3  -5   5 70545.5 4036.62  34
  -3  -5   3 14213.3 1300.96  34
  -3  -5   2 19750.3 1595.47  34
  -3  -5   1 3657.77 610.739  34
   3   5   0 1074.63 230.038   9
   3   5   0 1237.31 215.497   7
   3   5   0 1008.44 182.212   3
  -3  -5   0 652.539 321.338  34
   3   5   0 1006.45 397.068  29
   3   5   1 8526.53 599.889   7
   3   5   1 8741.86 663.945   9
  -3  -5  -1 8100.59 913.421  34
   3   5   1 8660.80 1037.73  29
  -3  -5  -1 8813.39 564.093  36
   3   5   1 9082.87 646.067  19
   3   5   1 8084.56 615.669  20
   3   5   2 3050.56 387.344   9
   3   5   2 2951.11 357.296  20
   3   5   2 3247.50 375.502  19
   3   5   2 2955.08 389.978  22
   3   5   3 32699.4 1764.26   9
   3   5   3 32080.3 1731.17  20
   3   5   3 31823.2 1779.85  22
   3   5   3 31470.5 1723.31  19
   3   5   3 27173.2 1632.21  24
   3   5   4 6900.66 614.123   9
   3   5   4 7369.26 630.600  28
   3   5   4 7070.79 600.060  19
   3   5   4 6906.81 631.447  22
   3   5   4 6008.03 580.829  20
   3   5   5 21373.5 1258.81  28
   3   5   5 21450.4 1254.59  19
   3   5   5 19979.5 1258.40  20
   3   5   5 20486.3 1291.12  22
   3   5   6 3148.28 354.486  19
   3   5   6 3225.60 370.160  20
   3   5   7 95.4644 136.251  22
   3   5   7 40.7679 141.235  20
   3   5   7 11.6738 141.201  19
   3   5   8 1677.94 177.174  20
   3   6 -14 637.414 131.315  10
   3   6 -13 3298.87 292.720   6
   3   6 -12 3806.01 372.104   6
  -3  -6  11 1298.99 218.299   8
   3   6 -11 1616.70 263.820   6
  -3  -6  10 7777.62 620.893  15
  -3  -6  10 9255.92 632.860   8
  -3  -6   9 5907.51 508.707  15
  -3  -6   9 6544.07 470.205  36
  -3  -6   9 6967.20 532.157   8
  -3  -6   8 8945.75 635.707  15
   3   6  -8 9557.76 647.791   3
   3   6  -8 8333.08 648.563   7
  -3  -6   8 10793.8 1104.23  34
   3   6  -8 9084.53 1115.38  29
  -3  -6   8 9849.47 632.322  36
   3   6  -7 21617.7 1227.96   3
   3   6  -7 20912.0 1251.80   7
  -3  -6   7 22839.5 1814.62  34
   3   6  -7 22688.6 1931.01  29
   3   6  -6 7545.30 592.755   7
   3   6  -6 7527.73 572.402   3
   3   6  -6 8928.65 1143.08  29
  -3  -6   6 9409.39 1058.67  34
   3   6  -5 24149.7 1337.13   7
   3   6  -5 21958.2 1288.31   3
   3   6  -5 23674.1 2033.25  29
   3   6  -4 620.983 182.232   7
   3   6  -4 584.084 178.993   3
  -3  -6   4 516.230 335.107  34
   3   6  -4 954.454 454.550  29
  -3  -6   3 9321.30 1097.15  34
   3   6  -2 40938.7 2147.04   7
   3   6  -2 39704.1 2112.88   3
   3   6  -2 43188.4 2975.11  29
  -3  -6   2 45849.8 2886.79  34
   3   6  -1 13666.1 855.202   3
   3   6  -1 14944.2 902.390   7
   3   6  -1 13306.9 868.771   9
  -3  -6   1 13023.5 1334.01  34
   3   6  -1 15362.2 1526.45  29
   3   6  -1 12841.0 854.392  22
   3   6   0 21936.9 1303.48   9
   3   6   0 21725.4 1241.49   3
   3   6   0 22371.3 1279.10   7
   3   6   0 25220.3 1997.14  29
  -3  -6   0 22434.0 1238.22  36
  -3  -6   0 23026.3 1816.93  34
   3   6   0 22929.8 1304.02  19
   3   6   0 21576.6 1296.86  22
   3   6   1 16998.5 1113.96   9
   3   6   1 18918.0 1064.87   7
   3   6   1 19252.3 1618.58  29
   3   6   1 18184.4 1113.87  19
   3   6   1 16809.4 1077.22  20
   3   6   1 17987.6 1133.62  22
   3   6   2 6859.46 600.144   9
   3   6   2 6976.46 589.546  19
   3   6   2 6767.58 605.730  22
   3   6   2 5930.77 543.268  20
   3   6   3 3268.04 418.075   9
   3   6   3 3014.03 382.094  19
   3   6   3 3081.08 413.832  22
   3   6   3 2957.95 387.078  20
   3   6   3 2846.11 322.889  24
   3   6   4 728.124 245.326   9
   3   6   4 555.563 239.668  28
   3   6   4 529.000 219.701  19
   3   6   4 678.088 246.018  22
   3   6   4 537.589 209.715  20
   3   6   5 14356.3 899.336   9
   3   6   5 13712.6 868.215  28
   3   6   5 13116.5 849.172  19
   3   6   5 13021.1 857.912  20
   3   6   5 13787.1 889.541  22
   3   6   6 13251.8 749.822  14
   3   6   6 12385.8 765.257  20
   3   6   7 6098.19 383.925  22
   3   7 -14 926.880 141.033  10
  -3  -7  14 389.874 158.156  21
   3   7 -13 3464.06 299.117   6
  -3  -7  12 7300.50 530.096   8
   3   7 -12 8399.05 588.400   6
  -3  -7  11 6777.48 523.890   8
   3   7 -11 7190.98 579.962   6
  -3  -7  10 13711.3 869.048   8
   3   7 -10 13168.6 906.455   6
  -3  -7   9 117.518 150.234   8
   3   7  -9 172.377 121.618   3
  -3  -7   9 202.702 136.905  34
  -3  -7   9-15.0825 119.686  36
   3   7  -8 1813.69 259.306   3
   3   7  -8 1519.03 260.329   7
  -3  -7   8 1222.69 425.619  34
  -3  -7   8 1731.35 246.086  36
   3   7  -8 1587.71 520.981  29
   3   7  -7 2049.98 310.970   7
   3   7  -7 2433.39 309.963   3
   3   7  -7 3486.51 738.812  29
  -3  -7   7 2940.66 621.079  34
   3   7  -6 12260.8 838.508   3
   3   7  -6 13056.8 871.417   7
   3   7  -6 13138.4 1487.91  29
  -3  -7   6 13822.9 1420.06  34
   3   7  -5 50269.5 2665.64   3
   3   7  -5 53897.9 2704.70   7
   3   7  -5 55936.0 3673.37  29
   3   7  -4 9429.60 692.788   7
   3   7  -4 8971.99 621.519   6
  -3  -7   4 8783.67 1138.58  34
   3   7  -3 59411.9 3020.59   3
   3   7  -3 63943.1 4039.01  29
  -3  -7   3 59637.4 3843.10  34
   3   7  -2 29517.6 1667.66   3
   3   7  -2 31253.2 1707.66   7
   3   7  -2 32943.5 2534.62  29
  -3  -7   2 33415.7 2446.02  34
   3   7  -1 841.885 234.782   9
   3   7  -1 965.904 201.544   3
   3   7  -1 968.665 219.148   7
   3   7  -1 893.645 457.161  29
  -3  -7   1 1359.62 450.206  34
   3   7  -1 622.114 205.870  22
   3   7   0 28210.7 1595.22   9
   3   7   0 29390.2 1579.41   7
   3   7   0 27460.4 1532.30   3
   3   7   0 31338.8 2299.65  29
  -3  -7   0 28808.0 1529.94  36
   3   7   0 28037.8 1597.31  22
   3   7   1 34094.3 1890.84   9
   3   7   1 35759.7 1829.19   7
   3   7   1 35138.5 1942.96  28
   3   7   1 31429.1 1830.23  20
   3   7   1 37366.5 1926.00  22
   3   7   2 31636.8 1759.67   9
   3   7   2 33996.7 1809.94  28
   3   7   2 29827.4 1705.25  20
   3   7   2 33825.6 1781.16  22
   3   7   2 29693.8 1704.40  24
   3   7   3 15620.0 974.761   9
   3   7   3 13382.1 901.850  20
   3   7   3 15458.1 969.575  22
   3   7   4 4459.95 425.939   9
   3   7   4 4311.13 414.678  28
   3   7   4 3810.09 370.342  20
   3   7   4 4378.07 410.812  22
   3   7   5 2070.86 249.798   9
   3   7   5 1828.61 259.640  14
   3   7   5 1875.55 237.374  22
   3   7   5 1596.55 206.014  20
   3   7   6 140.899 75.1533  22
   3   8 -14 3504.34 259.631  10
  -3  -8  14 3092.96 285.233  21
   3   8 -13 666.889 126.806   6
   3   8 -12 6493.89 489.745   6
  -3  -8  12 6128.23 453.611   8
   3   8 -11 16788.7 989.831   6
  -3  -8  11 14690.1 923.239   8
  -3  -8  10 13101.6 851.406   8
   3   8 -10 13679.7 899.617   6
  -3  -8   9 17491.1 1041.20   8
   3   8  -9 15694.2 980.727   7
  -3  -8   9 16538.2 976.174  36
   3   8  -8 5100.68 447.908   3
   3   8  -8 5525.19 490.884   6
   3   8  -8 4795.16 455.340   7
  -3  -8   8 4369.77 755.441  34
   3   8  -8 5507.04 887.320  29
  -3  -8   8 4554.74 436.965  36
   3   8  -7 5139.26 472.461   3
   3   8  -7 5313.05 478.828   6
   3   8  -7 4906.72 480.544   7
  -3  -8   7 4720.89 819.471  34
   3   8  -7 5154.28 919.636  29
   3   8  -6 4669.33 472.469   7
   3   8  -6 4429.27 452.460   3
   3   8  -6 4963.91 445.216   6
  -3  -8   6 5647.29 905.799  34
   3   8  -6 5346.84 948.643  29
   3   8  -5 39129.6 2031.46   3
   3   8  -5 36446.7 1963.05   6
   3   8  -5 37922.7 2044.16   7
   3   8  -5 38959.3 2954.06  29
  -3  -8   5 36897.1 2815.74  34
   3   8  -4 912.113 241.123   7
  -3  -8   4 1222.51 442.055  34
   3   8  -3 367.459 167.821   3
  -3  -8   3 276.251 264.193  34
   3   8  -3 401.933 407.284  29
   3   8  -2 10263.1 727.745   3
   3   8  -2 10874.1 765.923   7
  -3  -8   2 10026.7 1231.68  34
   3   8  -2 11076.7 1308.05  29
   3   8  -1 51130.0 2710.98   9
   3   8  -1 57289.3 2770.33   7
  -3  -8   1 53886.1 3485.32  34
   3   8  -1 53719.9 2799.62  28
   3   8  -1 58325.6 3600.87  29
  -3  -8   1 55447.2 2724.24  36
   3   8  -1 52261.3 2709.94  22
   3   8   0 16167.2 1028.85   9
   3   8   0 18546.6 1040.18   7
   3   8   0 17211.1 1096.47  28
   3   8   0 16150.5 1021.89  22
   3   8   1 6812.78 563.352   9
   3   8   1 7933.17 528.239   7
   3   8   1 6779.93 599.847  28
   3   8   1 7245.08 571.091  22
   3   8   1 6869.88 573.708  24
   3   8   2 7406.31 577.902   9
   3   8   2 8887.13 632.917  28
   3   8   2 8023.75 580.455  22
   3   8   2 6645.52 521.355  20
   3   8   2 7587.82 543.111  24
   3   8   3 21661.5 1155.00   9
   3   8   3 23107.6 1160.04  22
   3   8   4 7825.08 497.058  22
   3   9 -13 5276.04 367.938  10
   3   9 -13 5510.69 363.823   6
   3   9 -12 3752.44 341.003  10
   3   9 -12 4651.26 366.023   6
  -3  -9  12 4721.69 349.562   8
   3   9 -11 368.058 155.414   6
  -3  -9  11 451.162 147.689   8
  -3  -9  10 1039.31 203.220   8
  -3  -9  10 391.420 106.923  36
   3   9  -9 700.188 171.940   7
   3   9  -9 818.368 191.417   6
  -3  -9   9 918.599 177.391  36
   3   9  -8 5082.58 450.767   6
   3   9  -8 4409.43 419.652   7
  -3  -9   8 4714.43 446.165   8
  -3  -9   8 4867.99 436.497  36
   3   9  -7 6480.70 521.736   6
   3   9  -7 6542.96 543.783   7
   3   9  -6 796.272 174.341   6
   3   9  -6 767.653 198.229   3
   3   9  -6 894.806 218.851   7
   3   9  -5 12839.1 833.737   3
   3   9  -5 13901.8 869.665   7
   3   9  -5 10598.2 729.856   6
  -3  -9   5 13722.2 1461.40  34
   3   9  -4 10050.8 699.323   3
   3   9  -4 9120.26 701.520   7
   3   9  -3 879.678 219.637  28
  -3  -9   3 364.917 174.381  36
   3   9  -2 1498.09 248.328   7
   3   9  -2 1179.61 259.898  28
  -3  -9   2 1339.36 229.094  36
   3   9  -1 480.781 163.877   7
   3   9  -1 476.896 202.362  28
  -3  -9   1 686.376 153.158  36
   3   9   0 3607.75 344.610   9
   3   9   0 4582.89 367.783   7
   3   9   0 4031.34 408.813  28
   3   9   0 3857.56 345.438  22
   3   9   0 4066.38 397.641  24
   3   9   1 6770.89 490.110   9
   3   9   1 7733.49 550.279  28
   3   9   1 6593.80 478.951  22
   3   9   1 7346.95 513.501  24
   3   9   2 11666.7 668.373  22
   3   9   3 15439.1 820.280  14
   3  10 -12 3238.12 253.549   6
  -3 -10  12 3254.56 247.250   8
  -3 -10  11 6103.24 427.563   8
   3  10 -10 10479.3 667.565   6
   3  10  -9 3737.37 335.445   6
  -3 -10   9 3394.51 335.210   8
   3  10  -9 3091.48 291.199   7
  -3 -10   9 4211.64 334.602  36
   3  10  -8 1482.29 222.674   7
   3  10  -8 2099.99 246.374   6
  -3 -10   8 2077.31 266.684   8
  -3 -10   8 1953.23 248.657  36
   3  10  -7 3597.20 325.679   6
  -3 -10   7 3958.81 366.199   8
   3  10  -7 3482.82 356.788   7
  -3 -10   7 3662.67 368.427  36
  -3 -10   6 3169.25 326.973   8
   3  10  -6 3220.55 353.108   7
   3  10  -5 11733.0 751.064   7
  -3 -10   5 10016.0 718.028  36
  -3 -10   4 6322.86 502.082  36
   3  10  -3 20796.8 1146.14   7
  -3 -10   3 18964.9 1108.88  36
   3  10  -2 4455.57 378.536   7
   3  10  -2 3538.85 350.633  28
  -3 -10   2 4521.30 348.765  36
   3  10  -1 175.898 107.260   7
   3  10  -1 72.1499 134.054  24
   3  10   0 2656.32 255.718  24
   3  10   1 385.793 154.208  14
   3  11 -11 39.7898 54.3057   6
   3  11 -10 1847.34 188.665   6
  -3 -11  10 2150.92 206.650   8
   3  11  -9 8959.89 515.295   6
  -3 -11   9 10278.5 551.189   8
  -3 -11   8 15441.4 827.150   8
   3  11  -8 13453.6 799.682   7
  -3 -11   8 14779.0 829.056  36
   3  11  -7 2736.64 265.578   7
  -3 -11   7 2504.73 250.415   8
   3  11  -6 127.304 114.349   7
  -3 -11   6 51.8119 97.7027   8
  -3 -11   6-12.7735 99.0887  36
   3  11  -5 1285.25 191.464   7
  -3 -11   5 1080.25 155.402   8
  -3 -11   5 1328.61 181.687  36
  -3 -11   4 141.515 85.5974  36
   3  11  -4 117.577 132.422  24
   3  11  -3 1418.43 180.541   7
   3  11  -3 1121.75 189.919  24
   3  11  -2 3279.51 254.736   7
   3  11  -1 4244.47 292.930  24
   3  12  -7 3345.50 235.541   7
   3  12  -6 7572.82 445.611   7
   3  12  -5 804.680 109.947   7
   3  12  -5 667.742 102.593  24
  -4  12  -1 2996.12 258.064  27
  -4  12  -2 9616.41 585.143  27
  -4  12  -3 9710.99 598.628  27
  -4  12  -3 10224.4 560.237  26
  -4  12  -4 6885.52 426.258  26
  -4  12  -5 1166.45 143.829  26
  -4  11   2 5613.23 384.530  13
  -4  11   1 8245.23 523.656  13
  -4  11   0 720.722 151.704  13
  -4  11   0 819.185 182.576  27
  -4  11  -1 3448.77 298.505  13
  -4  11  -1 4334.19 352.876  26
  -4  11  -1 4749.79 405.728  27
  -4  11  -2 792.787 194.328  27
  -4  11  -2 753.200 163.554  26
  -4  11  -3 1130.82 215.166  27
  -4  11  -3 1119.29 202.851  26
  -4  11  -4 2762.45 261.819   4
  -4  11  -4 1888.35 263.883  27
  -4  11  -5 3204.20 303.331   4
  -4  11  -5 3136.94 295.063  27
  -4  11  -6 18038.3 1002.22   4
  -4  11  -8 127.694 80.4786   4
  -4  10   4 8960.30 533.932  13
  -4  10   4 7549.87 496.431  12
  -4  10   3 7439.79 525.096  13
  -4  10   3 7777.92 568.496  27
  -4  10   2 852.879 200.613  13
  -4  10   1 45.5355 151.727  13
  -4  10   1 247.936 163.934  27
  -4  10   1 94.9433 137.319  26
  -4  10   0 10506.3 749.144  13
  -4  10   0 12447.0 848.741  27
  -4  10   0 13160.8 808.498  26
  -4  10  -1 41060.7 2012.89  26
  -4  10  -1 40437.1 2060.21  27
  -4  10  -2 3286.08 336.639   4
  -4  10  -2 3603.08 422.186  27
  -4  10  -3 5297.55 451.079   4
  -4  10  -3 4711.50 488.490  27
  -4  10  -4 8240.68 592.953   4
  -4  10  -4 6969.77 598.694  27
  -4  10  -5 5480.96 457.088   4
  -4  10  -5 4431.36 427.211  27
  -4  10  -6 2201.24 262.887  10
  -4  10  -7 6311.46 475.636   4
  -4  10  -7 5190.77 420.884  10
  -4  10  -8 20396.3 1092.99   4
  -4  10  -8 19026.0 1062.56  10
  -4  10  -9 11090.1 639.786   4
  -4  10  -9 10865.8 632.500  10
  -4   9   6 818.873 140.556  13
  -4   9   5 6585.23 490.529  14
  -4   9   5 5038.47 417.768  12
  -4   9   4 309.440 179.508  13
  -4   9   4 613.069 266.242  14
  -4   9   4 624.968 199.260  27
  -4   9   3 154.748 259.139  14
  -4   9   3 232.942 191.018  13
  -4   9   3 137.328 139.260  26
  -4   9   2 17656.3 1055.53  14
  -4   9   2 18436.3 1107.49  26
  -4   9   1 15561.4 956.303  14
  -4   9   1 16111.1 1086.26  27
  -4   9   1 16294.2 1029.68  26
  -4   9   0 2507.07 297.152   4
  -4   9   0 3365.76 424.612  27
  -4   9   0 2916.53 374.760  26
  -4   9   0 3283.05 381.040  24
  -4   9  -1 2184.42 287.450   4
  -4   9  -1 2281.59 358.464  27
  -4   9  -2 4806.12 449.896   4
  -4   9  -2 4782.10 507.811  27
  -4   9  -3 21841.5 1235.72   4
  -4   9  -3 19135.0 1138.28  10
  -4   9  -3 20285.5 1273.39  27
  -4   9  -4 10260.8 709.642   4
  -4   9  -4 8342.27 625.476  10
  -4   9  -4 8358.04 692.078  27
   4  -9   5 28225.6 1542.43   8
  -4   9  -5 30118.2 1572.92  10
  -4   9  -5 26997.6 1578.43  27
  -4   9  -6 5707.93 498.433  10
  -4   9  -6 6579.65 550.171   4
  -4   9  -7 1767.78 258.481  10
  -4   9  -7 1554.85 255.257   4
  -4   9  -8 1414.34 229.612  10
  -4   9  -8 1526.36 231.359   4
   4  -9   9 350.775 124.111  33
  -4   9  -9 311.556 121.602   4
  -4   9 -10 2826.02 254.840  10
  -4   8   7 12761.1 726.418  13
  -4   8   6 5446.04 464.151  14
  -4   8   6 5238.16 430.955  13
  -4   8   6 4558.17 412.281  12
  -4   8   5 3094.00 338.393  11
  -4   8   5 3065.42 404.727  14
  -4   8   4 7577.51 637.011  14
  -4   8   4 8501.95 650.217  13
  -4   8   4 8118.52 687.733  27
  -4   8   4 7855.77 622.499  26
  -4   8   3 72.3838 279.173  14
  -4   8   3 182.624 164.673  26
  -4   8   2 1446.78 329.906  14
  -4   8   2 1356.05 229.117  23
  -4   8   2 1709.67 322.522  27
  -4   8   2 1753.31 296.213  26
  -4   8   2 1018.55 272.375  24
  -4   8   1 6002.19 505.559   4
  -4   8   1 6809.46 566.788  14
  -4   8   1 6705.45 540.367  23
  -4   8   1 7337.85 652.509  27
  -4   8   1 7142.75 606.587  26
  -4   8   1 6520.09 582.440  24
  -4   8   0 1457.09 240.436   4
  -4   8   0 1525.43 257.933  23
  -4   8   0 1838.58 329.892  27
  -4   8   0 1453.26 274.413  24
  -4   8  -1 18877.9 1113.32   4
  -4   8  -1 18772.7 1200.95  27
  -4   8  -1 16250.0 1072.96  24
  -4   8  -2 51661.4 2751.09  10
  -4   8  -2 59173.1 2848.98   4
  -4   8  -2 54864.1 2893.54  27
  -4   8  -3 18631.2 1153.30  10
  -4   8  -3 21624.7 2168.35  37
  -4   8  -3 21205.1 1227.28   4
  -4   8  -4 355.607 170.460  10
  -4   8  -4 368.159 454.005  37
   4  -8   4 332.219 168.069   8
  -4   8  -5 22525.6 1346.52  10
  -4   8  -5 21181.6 2270.63  37
  -4   8  -5 24703.0 1393.15   4
   4  -8   5 22532.0 1326.86   8
  -4   8  -6 1354.61 262.913  10
  -4   8  -6 1624.45 282.997   4
   4  -8   6 1058.29 251.008   8
  -4   8  -7 2557.69 335.161   4
  -4   8  -8 10155.4 705.830   4
  -4   8  -9 8378.43 586.616  10
   4  -8   9 8321.02 612.110  33
  -4   8  -9 7366.80 544.333   4
  -4   8 -10 3589.56 316.895  10
   4  -8  10 3035.63 313.557  33
  -4   8 -11 130.521 63.2110  10
  -4   7   8 404.933 134.752  13
  -4   7   7 1055.40 217.284  12
  -4   7   7 472.238 196.325  13
  -4   7   6 2536.39 329.723  11
  -4   7   6 2478.17 389.862  14
  -4   7   6 3102.18 366.553  13
  -4   7   6 1867.75 390.155  22
  -4   7   5 3462.92 457.605  14
  -4   7   5 4118.20 479.503  27
  -4   7   5 3125.76 345.789  23
  -4   7   5 3690.53 415.672  26
  -4   7   4 10218.2 760.286  14
  -4   7   4 9016.13 686.730  23
  -4   7   4 10628.6 774.562  26
  -4   7   3 39542.2 2061.54  14
  -4   7   3 36578.7 2035.65  23
  -4   7   3 39461.9 2114.01  26
  -4   7   3 37940.8 2104.90  22
  -4   7   3 39104.3 2099.02  24
  -4   7   2 7389.12 594.070  14
  -4   7   2 6481.24 559.312  23
  -4   7   2 7147.91 650.453  22
  -4   7   2 6267.80 612.673  27
  -4   7   2 7324.23 621.393  26
  -4   7   2 7038.68 601.421  24
  -4   7   1 6758.75 552.128   4
  -4   7   1 7988.07 600.667  14
  -4   7   1 7864.52 670.562  27
  -4   7   1 7426.56 606.250  24
  -4   7   0 315.898 139.045   4
  -4   7   0 602.828 204.573  27
  -4   7   0 677.479 207.499  24
  -4   7  -1 599.582 176.422   4
  -4   7  -1 451.241 153.359  10
  -4   7  -1 644.927 198.593  27
  -4   7  -1 270.349 153.195  24
  -4   7  -2 645.766 174.338  10
  -4   7  -2 1257.98 507.210  30
  -4   7  -2 889.420 204.990   4
  -4   7  -3 18280.6 1092.86  10
   4  -7   3 17403.2 1057.03   8
  -4   7  -4 100765. 4958.71  10
  -4   7  -4 110699. 5014.44   4
   4  -7   4 98134.3 4929.37   8
  -4   7  -5 8561.61 654.853  10
  -4   7  -5 6403.80 1161.11  30
  -4   7  -5 8724.76 661.799   4
   4  -7   5 7976.34 639.653   8
  -4   7  -6 8448.02 1386.74  30
  -4   7  -6 11053.2 780.063   4
   4  -7   6 10250.2 760.931   8
  -4   7  -7 266.477 182.232  10
  -4   7  -7 314.041 161.066   4
  -4   7  -8 11943.8 825.157  10
  -4   7  -8 11730.0 791.057   4
  -4   7  -9 15145.2 922.124  10
   4  -7   9 15706.0 983.802  33
  -4   7  -9 13423.2 847.953   4
  -4   7 -10 3212.04 309.763  10
   4  -7  10 2952.52 321.104  33
  -4   7 -11 5277.50 361.624  10
   4  -7  11 5593.23 384.557  19
  -4   6   8 11487.4 776.874  13
  -4   6   8 11348.0 776.544  12
  -4   6   7 16459.8 1056.81  11
  -4   6   7 18291.2 1066.61  13
  -4   6   7 15967.6 1058.82  12
  -4   6   7 15624.9 995.876  23
  -4   6   7 17742.1 1061.23  22
  -4   6   6 1447.12 381.112  14
  -4   6   6 1913.79 310.620  13
  -4   6   6 1126.09 236.695  23
  -4   6   6 1088.28 273.564  22
  -4   6   6 2080.38 541.470  20
  -4   6   5 3155.28 445.857  14
  -4   6   5 3148.65 436.600  27
  -4   6   5 3301.02 389.307  23
  -4   6   5 3678.18 429.190  22
  -4   6   5 3100.23 399.787  26
  -4   6   5 3731.60 580.342  20
  -4   6   4 4952.09 521.221  14
  -4   6   4 3774.53 418.180  23
  -4   6   4 4472.61 700.685  20
  -4   6   4 4603.18 473.187  26
  -4   6   3 30483.0 1654.66  14
  -4   6   3 29042.7 1669.35  23
  -4   6   3 31299.5 1703.86  22
  -4   6   3 29746.9 1742.70  27
  -4   6   3 29388.0 1705.84  26
  -4   6   3 31265.1 1697.79  24
  -4   6   2 50046.8 2770.10   4
  -4   6   2 59337.2 2813.75  14
  -4   6   2 54760.5 2871.24  26
  -4   6   2 55199.3 2848.34  23
  -4   6   2 58779.4 2872.70  22
  -4   6   2 57841.6 2919.97  27
  -4   6   2 58653.7 2854.41  24
  -4   6   1 17470.2 1079.45   4
  -4   6   1 19992.6 1090.06  14
  -4   6   1 17006.2 1154.81  27
  -4   6   1 20207.9 1124.65  24
  -4   6   0 5471.91 449.941  10
  -4   6   0 6096.98 484.213   4
  -4   6   0 5717.20 517.223  27
  -4   6   0 5931.92 482.914  24
  -4   6  -1 2010.87 258.526  10
  -4   6  -1 2644.88 622.599  30
  -4   6  -1 2376.05 282.676   4
  -4   6  -2 2114.49 280.926  10
  -4   6  -2 3527.51 711.721  30
  -4   6  -3 1923.19 275.369  10
   4  -6   3 1766.90 249.164   8
  -4   6  -4 4543.80 434.282  10
  -4   6  -4 5143.91 947.688  30
   4  -6   4 4395.25 422.592   8
  -4   6  -5 1454.75 545.632  30
   4  -6   5 1035.94 244.986   8
  -4   6  -6 34063.1 1885.90  10
  -4   6  -6 34317.0 2854.79  30
  -4   6  -6 34158.1 1874.57   4
   4  -6   6 35307.8 1894.02   8
  -4   6  -7 11848.2 812.084  10
  -4   6  -7 8519.05 1377.72  30
   4  -6   7 10691.7 1361.48  35
  -4   6  -7 10939.9 769.133   4
  -4   6  -8 23299.6 1310.52  10
  -4   6  -8 20714.5 1234.81   4
  -4   6  -9 457.321 191.310  10
   4  -6   9 492.170 204.351  33
  -4   6 -10 1708.17 236.118  10
   4  -6  10 2244.50 293.189  33
  -4   6 -11 1540.89 164.756  10
   4  -6  11 1961.27 218.441  19
  -4   5   9 50.2268 146.548  11
  -4   5   9 154.017 368.998  14
  -4   5   9 98.7708 137.105  13
  -4   5   9 94.4302 158.351  12
  -4   5   9 121.536 117.900  23
  -4   5   8 5977.40 527.277  11
  -4   5   8 4618.82 441.900  17
  -4   5   8 5644.93 544.729  14
  -4   5   8 5484.74 494.770  13
  -4   5   8 5587.60 526.293  12
  -4   5   8 5934.06 498.846  23
  -4   5   8 4507.97 453.105  19
  -4   5   8 5798.05 546.292  20
  -4   5   8 4763.43 491.539  22
  -4   5   7 13234.8 932.253  11
  -4   5   7 11580.3 830.125  17
  -4   5   7 14844.5 923.159  13
  -4   5   7 13668.2 933.946  12
  -4   5   7 13355.5 898.021  23
  -4   5   7 12258.9 853.823  19
  -4   5   7 13582.8 887.465  20
  -4   5   7 12685.3 886.745  22
  -4   5   6 5132.50 486.548  17
  -4   5   6 6459.92 565.989  13
  -4   5   6 6778.59 630.521  27
  -4   5   6 6425.68 566.827  23
  -4   5   6 5974.38 534.265  19
  -4   5   6 6812.85 563.584  20
  -4   5   6 6546.31 590.244  26
  -4   5   6 6667.41 563.484  22
  -4   5   5 26529.9 1548.20  14
  -4   5   5 30146.6 1672.43  27
  -4   5   5 27413.5 1581.46  23
  -4   5   5 25761.4 1528.17  19
  -4   5   5 29982.0 1583.40  20
  -4   5   5 27973.8 1611.85  26
  -4   5   5 27311.6 1568.21  22
  -4   5   4 32322.0 1684.40  14
  -4   5   4 27986.2 1644.69  19
  -4   5   4 31644.6 1714.83  23
  -4   5   4 31337.5 1700.56  20
  -4   5   4 31304.1 1698.24  22
  -4   5   4 30387.8 1727.41  26
  -4   5   3 1167.03 293.732  14
  -4   5   3 637.563 190.394  23
  -4   5   3 911.119 219.844  27
  -4   5   3 656.900 398.186  20
  -4   5   3 994.931 215.225  24
  -4   5   2 4102.47 409.213  14
  -4   5   2 4831.09 421.479  31
  -4   5   2 4371.97 760.859  32
  -4   5   2 4073.85 408.320  22
  -4   5   2 3775.41 410.488  27
  -4   5   2 4531.46 408.519  24
  -4   5   1 71.0362 149.768  31
  -4   5   1 249.689 350.879  37
  -4   5   1 57.9030 244.119  30
  -4   5   1 233.438 287.718  32
  -4   5   1 38.0244 119.755  27
  -4   5   0 2471.82 536.117  30
  -4   5   0 2538.51 630.756  37
  -4   5  -1 4223.71 419.576  31
  -4   5  -1 5035.36 872.523  37
  -4   5  -1 5049.33 789.457  30
  -4   5  -1 5933.84 881.696  32
  -4   5  -2 30885.3 1738.32  10
  -4   5  -2 38000.6 1824.62  31
  -4   5  -2 42228.2 2630.32  30
  -4   5  -2 37820.9 2589.80  32
  -4   5  -2 31398.8 1754.60   4
  -4   5  -3 27749.9 1517.93  10
  -4   5  -3 30976.2 1564.22  31
  -4   5  -3 27330.3 2215.42  32
   4  -5   3 26380.9 1487.81   8
  -4   5  -4 3933.23 374.496  10
  -4   5  -4 4346.51 829.227  30
   4  -5   4 3170.33 356.144   8
  -4   5  -5 19270.8 1173.08  10
  -4   5  -5 22347.0 1976.78  30
   4  -5   5 19688.5 1179.62   8
  -4   5  -6 24194.0 1364.31  10
  -4   5  -6 21194.6 2080.55  30
  -4   5  -6 22613.3 1323.63   4
  -4   5  -7 2717.32 347.341  10
  -4   5  -7 3063.77 758.621  30
   4  -5   7 1978.97 666.571  35
  -4   5  -7 2715.49 314.804   4
  -4   5  -8 19756.8 1193.47  10
  -4   5  -9 9773.20 702.370  10
   4  -5   9 11554.3 818.979  33
  -4   5 -10 14309.2 839.122  10
   4  -5  11 3369.94 300.043  19
  -4   4  10 10204.1 689.885  23
  -4   4   9 17181.0 1054.67  11
  -4   4   9 15528.3 974.737  13
  -4   4   9 17587.1 1014.64  14
  -4   4   9 15157.1 958.291  17
  -4   4   9 14797.5 1000.93  12
  -4   4   9 17068.9 1028.60  23
  -4   4   9 14506.2 926.507  20
  -4   4   9 14182.9 930.411  19
  -4   4   8 35705.7 2013.62  11
  -4   4   8 39547.5 1967.71  14
  -4   4   8 36141.8 2002.49  12
  -4   4   8 33103.8 1901.80  17
  -4   4   8 38505.5 1969.80  13
  -4   4   8 34910.5 1894.52  16
  -4   4   8 37274.9 2003.44  23
  -4   4   8 37681.6 1922.90  20
  -4   4   8 32649.7 1895.76  19
  -4   4   8 36987.0 1919.17  22
  -4   4   7 11401.8 835.665  11
  -4   4   7 10817.0 803.835  14
  -4   4   7 12029.3 799.670  13
  -4   4   7 9550.08 727.443  17
  -4   4   7 10201.0 720.604  16
  -4   4   7 11477.8 829.560  12
  -4   4   7 11061.0 811.631  23
  -4   4   7 11122.5 752.457  20
  -4   4   7 9642.94 731.904  19
  -4   4   7 11246.5 763.905  22
  -4   4   6 975.085 195.832  16
  -4   4   6 764.719 204.867  17
  -4   4   6 1125.68 257.481  13
  -4   4   6 741.660 204.462  19
  -4   4   6 639.850 216.982  26
  -4   4   6 680.190 224.562  23
  -4   4   6 886.213 233.053  22
  -4   4   6 1178.89 276.684  27
  -4   4   6 1009.72 222.130  20
  -4   4   5 29417.2 1650.83  23
  -4   4   5 32504.1 1629.27  20
  -4   4   5 27380.7 1569.73  19
  -4   4   5 31122.2 1631.66  22
  -4   4   5 30433.5 1678.66  26
  -4   4   5 27913.4 1579.72  25
  -4   4   4 52686.7 2594.76  14
  -4   4   4 50220.0 2567.89  31
  -4   4   4 51362.8 3202.68  32
  -4   4   4 49948.7 2635.10  23
  -4   4   4 54134.0 2607.46  20
  -4   4   4 51110.5 2607.71  22
  -4   4   4 52933.6 2678.88  27
  -4   4   3 29071.7 1513.09  31
  -4   4   3 31102.7 2134.94  32
  -4   4   3 25885.4 1725.62  30
  -4   4   2 16034.0 911.563  31
  -4   4   2 13592.8 1169.18  30
  -4   4   2 15649.9 1393.15  32
  -4   4   1 18612.8 1455.19  30
  -4   4   1 21202.5 1707.97  37
  -4   4   0 87821.5 4639.30  30
  -4   4   0 89463.3 4837.70  37
  -4   4   0 86646.0 4734.81  32
  -4   4   0 82699.3 4059.36  31
  -4   4  -1 10878.8 705.531  31
  -4   4  -1 11990.4 1137.43  30
  -4   4  -1 11295.3 1155.46  32
  -4   4  -2 2684.09 299.439  31
  -4   4  -2 3051.72 593.817  32
  -4   4  -3 15062.1 920.387  31
  -4   4  -3 18567.6 1552.33  30
  -4   4  -3 16319.5 1454.57  32
  -4   4  -4 25350.5 1400.95  10
  -4   4  -4 25311.5 1385.26  31
  -4   4  -4 29935.8 2170.90  30
  -4   4  -4 26531.3 1994.22  32
   4  -4   4 24641.4 1396.38   8
  -4   4  -4 25790.1 1395.76   4
  -4   4  -5 55410.2 2692.05  10
  -4   4  -5 53052.0 3505.79  30
  -4   4  -5 52990.5 2654.60   4
   4  -4   5 46569.7 3069.11   1
  -4   4  -6 17418.4 1068.36  10
  -4   4  -6 17141.7 1722.20  30
  -4   4  -7 4530.51 439.118  10
  -4   4  -7 4000.54 733.674  30
   4  -4   7 4934.88 960.878  35
  -4   4  -8 1893.27 283.059  10
   4  -4   8 1742.98 532.910  35
  -4   4  -9 901.106 184.411  10
   4  -4  10 2047.38 292.027  33
   4  -4  10 1765.56 273.366  19
   4  -4  11 5562.80 404.718  19
  -4   3  11 5683.71 445.110  17
  -4   3  10 698.201 178.609  16
  -4   3  10 575.074 206.439  11
  -4   3  10 601.752 206.611  17
  -4   3  10 379.192 191.600  23
  -4   3   9 9372.96 724.257  11
  -4   3   9 8205.29 632.944  13
  -4   3   9 8632.80 674.680  14
  -4   3   9 6722.62 593.577  17
  -4   3   9 9016.11 689.152  12
  -4   3   9 8104.41 621.303  16
  -4   3   9 9017.37 692.119  23
  -4   3   9 7683.57 557.699  20
  -4   3   9 6742.44 572.449  22
  -4   3   9 6429.51 564.709  19
  -4   3   8 29911.4 1691.63  11
  -4   3   8 29064.3 1584.08  14
  -4   3   8 30252.1 1615.58  13
  -4   3   8 25895.5 1551.60  17
  -4   3   8 29511.9 1665.15  12
  -4   3   8 29295.2 1601.41  16
  -4   3   8 29685.5 1659.16  23
  -4   3   8 28493.9 1538.02  20
  -4   3   8 27165.7 1531.47  22
  -4   3   8 25694.4 1531.86  19
  -4   3   7 12844.7 920.063  11
  -4   3   7 13084.2 862.696  14
  -4   3   7 13088.6 863.916  13
  -4   3   7 13259.1 914.292  12
  -4   3   7 12974.2 858.104  16
  -4   3   7 12813.7 894.323  23
  -4   3   7 13206.6 820.753  20
  -4   3   7 12990.7 824.038  22
  -4   3   7 10939.5 790.351  19
  -4   3   6 71252.0 3591.74  16
  -4   3   6 70425.5 3564.33  14
  -4   3   6 81350.1 3622.41  13
  -4   3   6 78558.6 3710.82  27
  -4   3   6 74042.9 3643.79  23
  -4   3   6 73764.6 3553.81  20
  -4   3   6 69907.9 3558.21  22
  -4   3   6 70535.8 3637.60  26
  -4   3   6 69925.6 3568.06  25
   4  -3  -5 18224.7 1391.40   1
  -4   3   5 17933.1 1421.10  32
  -4   3   5 17683.5 1074.59  23
  -4   3   5 17273.4 1019.12  22
  -4   3   4 1564.87 207.676  31
  -4   3   4 1598.02 400.409  32
   4  -3  -4 1665.94 411.429   1
  -4   3   3 6487.24 662.058  30
  -4   3   3 8046.02 869.977  32
  -4   3   3 8066.77 520.596  31
  -4   3   2 10967.2 1077.45  37
  -4   3   2 8912.05 835.776  30
  -4   3   2 10509.6 1014.21  32
  -4   3   2 9468.88 604.767  31
  -4   3   1 65587.3 3612.50  30
  -4   3   1 68362.1 3795.09  37
  -4   3   0 45999.9 2674.28  32
  -4   3   0 42610.4 2136.75  31
  -4   3  -1 15472.6 1312.60  32
  -4   3  -1 16547.3 916.367  31
  -4   3  -2 37712.4 2390.92  32
  -4   3  -2 37176.9 1872.52  31
  -4   3  -3 10573.7 663.164  31
  -4   3  -3 12097.3 1106.83  32
  -4   3  -4 123.523 123.941  10
  -4   3  -4 136.167 210.714  30
  -4   3  -4 54.7163 247.859  32
   4  -3   4 291.795 212.857   1
  -4   3  -5 984.177 200.296  10
  -4   3  -5 910.375 408.854  30
  -4   3  -6 4126.08 404.382  10
  -4   3  -6 4173.95 771.172  30
   4  -3   6 4648.65 922.485  35
  -4   3  -7 17334.0 1078.29  10
   4  -3   7 19127.3 1202.69  33
   4  -3   7 18994.9 1991.48  35
  -4   3  -8 10586.7 740.127  10
   4  -3   8 13193.2 907.978  33
   4  -3   8 12387.6 1558.21  35
   4  -3   9 17979.7 1196.66  33
   4  -3   9 20627.3 1170.36  19
   4  -3  10 2740.28 329.901  33
   4  -3  10 3462.75 345.149  19
   4  -3  11 127.516 135.001  20
   4  -3  11 42.4584 98.8405  19
  -4   2  12 10710.4 650.531  16
  -4   2  12 9793.59 633.126  17
  -4   2  11 10420.7 753.204  17
  -4   2  11 11967.3 781.762  16
  -4   2  11 12428.9 826.746  23
  -4   2  10 5035.25 522.209  11
  -4   2  10 4980.54 468.526  17
  -4   2  10 4849.12 473.060  16
  -4   2  10 5165.29 514.438  23
  -4   2  10 4155.04 398.892  19
  -4   2   9 4484.42 506.305  11
  -4   2   9 4473.35 526.758  14
  -4   2   9 3426.27 870.449  18
  -4   2   9 3902.03 434.412  13
  -4   2   9 4090.76 426.883  17
  -4   2   9 4346.75 482.611  12
  -4   2   9 5153.68 485.693  16
  -4   2   9 4281.58 477.960  23
  -4   2   9 3500.40 382.837  19
  -4   2   8 341.248 185.685  16
  -4   2   8 375.557 147.077  15
  -4   2   8 805.753 238.176  11
  -4   2   8 701.737 294.564  14
  -4   2   8 778.751 441.387  18
  -4   2   8 622.719 208.604  13
  -4   2   8 511.065 193.409  17
  -4   2   8 419.948 228.557  12
  -4   2   8 509.544 176.558  19
  -4   2   7 2377.76 341.205  12
  -4   2   7 2839.09 341.772  16
  -4   2   7 2624.91 284.329  15
  -4   2   7 2557.81 344.086  14
  -4   2   7 2669.40 684.606  18
  -4   2   7 2730.64 326.745  13
  -4   2   7 2162.17 271.256  22
  -4   2   7 2158.41 308.821  25
  -4   2   6 2157.52 322.322  14
  -4   2   6 2532.16 298.862  13
  -4   2   6 2733.16 643.084  18
  -4   2   6 2479.89 413.153  32
  -4   2   6 2010.20 282.348  25
  -4   2   5 36838.0 2282.77  32
  -4   2   5 36997.4 1837.46  31
   4  -2  -5 36785.6 2285.18   1
  -4   2   4 131902. 5963.14  32
  -4   2   4 122252. 5391.69  31
   4  -2  -4 126113. 5939.99   1
  -4   2   3 80249.4 4142.49  32
   4  -2  -3 74148.3 4109.30   1
  -4   2   2 88476.0 4639.35  37
  -4   2   1 2322.36 455.041  37
  -4   2   1 3530.57 515.221  32
  -4   2   0 17569.7 1311.19  32
  -4   2  -1 20163.5 1447.54  32
   4  -2   1 20500.2 1466.37   1
  -4   2  -2 6349.12 724.280  32
  -4   2  -2 6045.12 418.360  31
   4  -2   2 6314.47 720.377   1
  -4   2  -3 20165.3 1472.43  32
  -4   2  -3 19677.5 1058.22  31
   4  -2   3 20367.2 1469.23   1
   4  -2   4 11700.8 1024.33   1
   4  -2   5 39044.6 2108.98  16
  -4   2  -5 40188.5 2015.52  10
  -4   2  -5 35159.0 2611.53  30
   4  -2   6 12089.3 863.502  16
  -4   2  -6 11178.3 745.637  10
  -4   2  -6 10270.5 1222.73  30
   4  -2   7 2602.15 371.584  33
   4  -2   7 2523.21 712.139  35
   4  -2   8-101.575 170.618  33
   4  -2   8-99.9492 184.088  19
   4  -2   9 3497.68 398.338  33
   4  -2   9 3984.09 405.584  19
   4  -2  10 6444.22 514.681  33
   4  -2  10 7145.19 514.055  19
   4  -2  11 6188.66 454.083  20
   4  -2  11 7067.98 412.753  19
  -4   1  13 1035.11 161.310  16
  -4   1  13 880.844 163.847  17
  -4   1  12 315.422 150.037  16
  -4   1  12 417.029 178.327  17
  -4   1  11 6562.93 579.785  17
  -4   1  11 7958.17 619.126  16
  -4   1  10 2093.33 366.414  11
  -4   1  10 2192.59 555.163  18
  -4   1  10 2551.63 362.122  16
  -4   1  10 1965.92 266.258  19
  -4   1   9 4848.63 529.951  11
  -4   1   9 5363.15 464.913  15
  -4   1   9 4993.70 940.054  18
  -4   1   9 5197.31 535.510  12
  -4   1   9 5025.05 508.464  16
  -4   1   9 4628.07 465.707  21
  -4   1   8 24560.4 1400.23  16
  -4   1   8 25095.7 2089.25  18
  -4   1   8 21958.6 1312.98  15
  -4   1   8 22342.0 1312.85  14
  -4   1   8 26277.0 1380.19  13
  -4   1   8 23323.6 1397.63  12
  -4   1   8 21701.3 1285.38  21
  -4   1   8 24007.7 1400.52  23
  -4   1   7 33605.3 1845.34  11
  -4   1   7 32417.0 1765.51  15
  -4   1   7 33381.5 1748.32  14
  -4   1   7 38365.4 2540.07  18
  -4   1   7 35292.8 1802.87  13
  -4   1   7 35525.7 1848.28  12
  -4   1   7 31033.5 1715.92  21
  -4   1   7 35927.6 1840.27  23
  -4   1   7 32287.7 1788.84  25
  -4   1   6 7334.74 893.087  18
  -4   1   6 5524.44 650.202  32
   4  -1  -6 6394.43 702.140   1
  -4   1   5 497.890 298.204  18
  -4   1   5 433.348 232.072  32
   4  -1  -5 1095.79 300.187   1
  -4   1   4 5488.18 626.975  32
  -4   1   4 5078.97 370.768  36
   4  -1  -4 5187.85 638.288   1
  -4   1   3 10627.7 935.988  32
  -4   1   3 11352.3 652.606  36
   4  -1  -3 12308.9 1020.67   1
   4  -1  -2 58408.8 3228.50   1
  -4   1   1 149523. 6873.59  36
  -4   1   1 136147. 7139.34  37
  -4   1   1 151572. 7303.34  32
   4  -1  -1 159058. 7380.90   1
  -4   1   0 122445. 6043.77  32
  -4   1   0 119019. 5625.45  36
   4  -1   0 128255. 6121.76   1
  -4   1  -1 41806.8 2391.34  32
  -4   1  -1 40081.8 1986.48  36
   4  -1   1 41464.6 2421.22   1
  -4   1  -2 3776.82 518.530  32
  -4   1  -2 3227.79 280.112  36
   4  -1   2 3545.34 527.959   1
  -4   1  -3 195.205 182.735  32
   4  -1   3 131.815 178.113   1
   4  -1   4 7033.60 568.199  16
   4  -1   5 22490.6 1408.23  16
   4  -1   5 25612.0 1408.78  33
   4  -1   6 12179.1 1453.84  18
   4  -1   6 13477.5 953.606  16
   4  -1   6 13058.8 911.550  33
   4  -1   7 27024.7 1566.13  33
   4  -1   7 27850.6 1527.06  19
   4  -1   8 17841.8 1155.66  33
   4  -1   8 19216.4 1134.13  19
   4  -1   9 2232.23 296.040  33
   4  -1   9 2190.57 302.742  19
   4  -1  10 1171.59 193.324  19
  -4   0  14 1928.04 187.882  16
  -4   0  13 2631.66 300.106  17
  -4   0  13 3581.99 336.343  16
  -4   0  12 13670.4 928.149  17
  -4   0  12 16461.4 989.575  16
  -4   0  11 7136.89 632.639  23
  -4   0  11 6545.11 562.817  21
  -4   0  10 3406.70 380.608  15
  -4   0  10 2620.44 628.828  18
  -4   0  10 3485.04 405.090  21
  -4   0  10 3810.15 448.264  23
  -4   0   9 2077.29 289.374  15
  -4   0   9 1379.21 528.207  18
  -4   0   9 1273.76 247.209  21
  -4   0   9 1340.24 291.832  23
  -4   0   8 1558.49 520.267  18
  -4   0   8 1742.66 303.392  11
  -4   0   8 1938.04 273.964  15
  -4   0   8 1721.64 316.360  12
  -4   0   8 2275.21 276.353  21
  -4   0   8 1658.98 276.985  23
  -4   0   7 3914.70 657.931  18
  -4   0   7 3764.22 400.866  11
  -4   0   7 3628.38 379.346  13
  -4   0   7 3980.72 387.891  23
  -4   0   7 3571.26 374.784  25
  -4   0   6 2104.91 450.820  18
  -4   0   6 1706.55 191.317  36
  -4   0   6 2049.06 370.968  32
  -4   0   5 10522.2 937.747  18
   4   0  -5 9654.10 941.882   1
  -4   0   5 11034.7 629.275  36
   4   0  -4 57187.7 3159.27   1
  -4   0   4 55585.0 2672.71  36
   4   0  -3 119474. 5755.02   1
  -4   0   3 110729. 5217.18  36
   4   0  -2 9812.13 919.577   1
  -4   0   1 10731.4 753.523  37
  -4   0   1 12257.6 663.564  36
   4   0   0 6221.79 713.676   1
  -4   0   0 6383.95 414.332  36
   4   0   1 130656. 6507.90   1
  -4   0  -1 128585. 5988.50  36
   4   0   2 46902.7 2817.88   1
  -4   0  -2 52516.7 2791.29  32
  -4   0  -2 48580.3 2363.76  36
   4   0   3 25460.2 1788.52   2
  -4   0  -3 30821.0 1808.73  32
   4   0   4 9834.59 699.608   9
   4   0   4 9445.17 663.076  33
   4   0   4 10161.6 1228.98  35
   4   0   5 958.783 387.874  18
   4   0   5 994.882 229.588   9
   4   0   5 856.589 204.631  33
   4   0   5 709.789 445.537  35
   4   0   5 948.766 218.266  19
   4   0   6 7500.65 1107.64  18
   4   0   6 8953.77 657.979   9
   4   0   6 8198.84 660.480  33
   4   0   6 7076.78 1175.94  35
   4   0   6 9462.14 663.046  19
   4   0   7 1294.25 236.063   9
   4   0   7 1414.58 263.595  33
   4   0   7 1102.56 250.264  19
   4   0   8 1593.29 270.098  33
   4   0   8 1880.94 297.302  19
   4   0   8 1521.17 286.170  22
   4   0   9 6733.90 514.389  33
   4   0   9 7360.06 592.140  20
   4   0   9 7401.05 536.894  19
   4   0  10 9980.86 581.001  19
  -4  -1  14 4951.89 368.061  17
  -4  -1  13 14.6351 178.649  17
  -4  -1  12 160.962 178.564  16
  -4  -1  12 240.992 187.922  21
  -4  -1  11 2344.29 357.116  16
  -4  -1  11 2667.69 357.458  21
  -4  -1  11 2597.11 371.526  23
  -4  -1  10 38444.0 2152.37  15
  -4  -1  10 35943.0 2840.45  18
  -4  -1  10 41658.0 2217.55  16
  -4  -1  10 39520.8 2196.42  23
  -4  -1  10 42726.5 2152.40  21
  -4  -1   9 31875.7 1811.35  16
  -4  -1   9 31326.6 1835.22  11
  -4  -1   9 31545.4 1778.39  15
  -4  -1   9 34437.0 2463.01  18
  -4  -1   9 33014.3 1810.17  23
  -4  -1   9 32655.3 1735.26  21
  -4  -1   8 10837.3 754.313  16
  -4  -1   8 9885.39 750.375  11
  -4  -1   8 9699.46 710.433  15
  -4  -1   8 9549.90 1071.21  18
  -4  -1   8 9829.99 708.676  23
  -4  -1   7 12065.2 805.757  11
  -4  -1   7 12131.8 1113.64  18
  -4  -1   7 12032.3 982.958  32
  -4  -1   6 10353.4 897.603  18
  -4  -1   6 9238.68 566.481  36
   4   1  -6 10277.1 933.377   2
  -4  -1   5 21428.6 1310.87  18
  -4  -1   5 19529.3 1048.32  36
   4   1  -5 21771.2 1496.32   2
  -4  -1   4 4999.09 346.099  36
   4   1  -3 5898.67 701.256   1
  -4  -1   2 51169.9 2501.36  36
   4   1  -2 60117.2 3095.97   1
  -4  -1   1 80780.4 3795.00  36
  -4  -1   0 23247.8 1189.41  36
   4   1   1 453.138 214.052  18
  -4  -1  -1 690.873 127.974  36
   4   1   1 500.639 256.702   2
   4   1   2 4897.32 595.033  18
   4   1   2 5375.83 389.351  33
   4   1   2 6035.87 694.541   2
   4   1   3 10396.1 1005.92  18
   4   1   3 9278.46 892.997   2
   4   1   3 10407.5 736.391   9
   4   1   3 10276.5 659.031  33
   4   1   3 12511.6 1267.37  35
   4   1   4 10043.6 731.829   9
   4   1   4 9923.11 672.739  33
   4   1   4 9941.50 1246.34  35
   4   1   5 26826.4 1502.47   9
   4   1   5 24949.6 1445.99  33
   4   1   5 26465.5 2318.75  35
   4   1   5 26173.5 1453.23  19
   4   1   6 18681.7 1106.56   9
   4   1   6 16169.7 1061.39  33
   4   1   6 17186.5 1074.88  19
   4   1   7 12614.2 843.700   9
   4   1   7 12128.0 838.213  33
   4   1   7 13416.3 859.263  19
   4   1   8 2190.36 278.074  33
   4   1   8 3455.15 418.782  20
   4   1   8 2862.83 360.632  22
   4   1   8 3597.06 358.145  19
   4   1   9 141.276 158.288  20
   4   1   9 336.309 142.228  19
  -4  -2  14 6628.01 437.676  16
  -4  -2  14 4250.52 395.431  17
  -4  -2  13 12801.8 834.229  16
  -4  -2  13 11966.8 800.382  21
  -4  -2  12 7272.44 592.077  16
  -4  -2  12 5624.42 534.149  21
  -4  -2  11 436.110 215.697  16
  -4  -2  11 758.331 253.642  21
  -4  -2  11 537.894 217.441  23
  -4  -2  10 76.3732 178.898  16
  -4  -2  10 535.649 236.943  18
  -4  -2  10 305.811 183.394  21
  -4  -2  10 148.797 164.357  23
  -4  -2   9 639.192 217.711  16
  -4  -2   9 599.267 331.297  18
  -4  -2   9 508.413 182.739  23
  -4  -2   8 20797.5 1268.18  11
  -4  -2   8 22377.3 1647.26  18
  -4  -2   8 21027.7 1223.53  23
  -4  -2   7 46782.4 2695.75  18
  -4  -2   7 46896.3 2270.39  36
   4   2  -7 45174.0 2802.06   2
  -4  -2   6 4231.43 506.243  18
   4   2  -6 5321.54 677.842   2
  -4  -2   6 4947.41 350.255  36
   4   2  -5 25037.8 1720.20   2
  -4  -2   5 23288.7 1595.76  34
  -4  -2   5 23413.3 1209.71  36
   4   2  -4 4050.89 597.422   2
  -4  -2   4 3908.78 542.268  34
  -4  -2   4 3469.70 280.213  36
   4   2  -3 342.195 262.382   2
  -4  -2   2 7043.29 732.484  34
  -4  -2   2 6754.03 437.533  36
   4   2  -1 4133.73 627.016   2
  -4  -2   1 4511.59 593.428  34
  -4  -2   1 4215.81 314.438  36
   4   2   0 41443.8 2502.70   2
  -4  -2   0 37995.6 2368.72  34
  -4  -2   0 39610.2 1941.65  36
   4   2   1 4026.88 598.242   2
  -4  -2  -1 3337.46 275.353  36
   4   2   1 2727.48 516.536  35
   4   2   2 44951.8 2634.51   2
   4   2   2 41567.9 2214.18   9
   4   2   2 41276.1 2749.70  35
   4   2   3 23072.0 1364.39   9
   4   2   3 23898.8 1944.22  35
   4   2   4 2781.81 383.855   9
   4   2   4 2773.70 330.232  19
   4   2   5 4822.59 490.705   9
   4   2   5 4232.76 395.589  33
   4   2   5 3972.60 424.989  19
   4   2   6 5228.44 480.717  17
   4   2   6 6081.58 546.416   9
   4   2   6 5111.86 450.302  28
   4   2   6 4677.65 538.331  20
   4   2   6 6332.11 516.648  19
   4   2   7 23874.4 1349.36   9
   4   2   7 23685.3 1332.82  19
   4   2   7 23997.8 1419.55  20
   4   2   7 22388.0 1396.75  22
   4   2   8 12450.9 767.828  19
   4   2   8 13079.8 845.775  20
   4   2   8 12160.3 802.664  22
   4   2   9 3636.30 323.204  20
  -4  -3  14 332.936 135.689  16
  -4  -3  13 932.659 218.489  16
  -4  -3  13 581.971 220.064  21
  -4  -3  12 712.016 221.909  16
  -4  -3  12 623.809 237.236  21
  -4  -3  11 16613.6 1097.03  15
  -4  -3  11 18007.6 1129.17  16
  -4  -3  10 10376.1 759.539  15
  -4  -3  10 9384.56 746.182  16
  -4  -3  10 10065.4 740.776  23
  -4  -3   9 20805.2 1240.09  16
  -4  -3   9 20238.3 1231.93  15
  -4  -3   9 19997.3 1203.82  23
  -4  -3   8 31807.1 1697.05  23
   4   3  -7 4712.80 706.564   2
  -4  -3   7 5344.32 688.479  34
  -4  -3   7 5972.69 408.074  36
   4   3  -6 9576.38 1005.82   2
  -4  -3   6 8907.92 546.622  36
  -4  -3   6 7312.55 837.910  34
   4   3  -5 51525.5 2979.39   2
  -4  -3   5 45617.2 2773.31  34
  -4  -3   5 46916.9 2305.98  36
   4   3  -4 79607.0 4424.36   2
   4   3  -3 38389.9 2383.23   2
  -4  -3   3 34775.6 2210.69  34
  -4  -3   3 33829.2 1724.58  36
  -4  -3   2 11555.7 1080.34  34
  -4  -3   2 12631.4 721.064  36
   4   3  -1 585.486 282.579   2
  -4  -3   1 143.165 209.219  34
  -4  -3   1 217.965 105.197  36
   4   3  -1 546.334 178.354  35
   4   3   0 6202.94 801.624   2
  -4  -3   0 6225.37 737.093  34
   4   3   0 5698.55 648.100  35
  -4  -3   0 6307.91 428.232  36
   4   3   1 23148.6 1709.11   2
   4   3   1 20718.2 1240.38   9
  -4  -3  -1 21301.0 1122.02  36
   4   3   1 19666.2 1545.38  35
   4   3   3 19977.7 1153.83  17
   4   3   3 18852.4 1195.33  20
   4   3   4 65575.0 3346.50   9
   4   3   4 64015.9 3256.51  17
   4   3   4 62693.9 3312.15  20
   4   3   4 67568.5 3251.86  19
   4   3   5 259.509 210.285  17
   4   3   5 49.4820 214.752   9
   4   3   5 126.932 182.025  28
   4   3   5 445.898 230.098  20
   4   3   5 273.621 194.145  19
   4   3   6 3281.63 402.557   9
   4   3   6 2986.95 372.373  17
   4   3   6 3372.48 341.036  28
   4   3   6 2774.37 391.346  20
   4   3   6 3221.57 358.486  19
   4   3   6 3028.40 417.487  22
   4   3   7 502.276 194.425   9
   4   3   7 344.669 195.508  20
   4   3   7 747.352 194.690  19
   4   3   7 637.215 223.770  22
   4   3   8 155.359 135.510  20
   4   3   8 133.767 106.337  19
   4   3   8 92.3755 131.018  22
  -4  -4  14 7195.64 509.899  16
  -4  -4  14 7923.54 545.232  21
  -4  -4  13 26352.7 1544.73  16
  -4  -4  13 31405.8 1586.07  21
   4   4 -12 6307.18 510.818   6
  -4  -4  12 7094.66 574.907  16
  -4  -4  12 6807.81 587.464  21
  -4  -4  11 1181.54 249.512  16
  -4  -4  11 1886.55 304.247  15
  -4  -4  10 6101.26 550.747  15
  -4  -4  10 5977.70 534.173  16
  -4  -4   9 39615.4 2077.04  16
  -4  -4   9 40628.6 2103.37  15
  -4  -4   9 37431.6 1975.76   8
  -4  -4   8 38929.2 2156.13  16
  -4  -4   8 40835.5 2612.93  34
  -4  -4   8 44039.3 2089.20  36
   4   4  -7 16021.1 952.415   3
  -4  -4   7 14893.9 1323.64  34
  -4  -4   7 16278.6 910.191  36
   4   4  -6 12202.5 1236.38   2
  -4  -4   6 12132.3 1127.98  34
  -4  -4   6 11258.6 696.452  36
   4   4  -5 13244.3 1269.70   2
  -4  -4   5 10622.2 1079.81  34
  -4  -4   5 11432.3 699.795  36
   4   4  -4 2115.84 532.019   2
  -4  -4   3 5994.29 787.752  34
  -4  -4   3 5786.34 428.344  36
   4   4  -2 27778.0 2010.27   2
  -4  -4   2 25159.9 1852.07  34
  -4  -4   2 25039.7 1339.24  36
   4   4  -1 28311.7 2040.75   2
  -4  -4   1 24187.0 1827.79  34
  -4  -4   1 24846.5 1328.07  36
   4   4   0 23056.1 1297.71   3
   4   4   0 21550.1 1345.03   9
  -4  -4   0 25525.7 1810.74  34
  -4  -4   0 24510.2 1261.39  36
   4   4   1 15095.5 971.873   9
  -4  -4  -1 14395.0 1279.02  34
  -4  -4  -1 13812.4 820.506  36
   4   4   2 5259.51 520.869   9
   4   4   2 4372.66 446.575  20
   4   4   3 628.386 232.008  20
   4   4   4 1812.84 317.161  20
   4   4   4 1800.12 288.466  19
   4   4   4 1387.00 339.223  22
   4   4   5 47.0201 209.342   9
   4   4   5-40.5469 186.643  28
   4   4   5-22.4745 194.877  20
   4   4   5 54.2301 166.420  19
   4   4   6 19112.5 1090.82   9
   4   4   6 16510.4 1011.38  19
   4   4   6 17454.4 1078.70  20
   4   4   7 7632.64 506.763   9
   4   4   7 6183.56 443.188  19
   4   4   7 7115.99 515.461  20
   4   4   7 7120.08 516.923  22
   4   4   8 3572.55 276.151  20
  -4  -5  14 891.424 153.213  16
  -4  -5  14 1140.46 206.561  21
   4   5 -13 4217.75 343.487   6
  -4  -5  13 4033.47 371.215  16
  -4  -5  13 4558.56 439.398  21
  -4  -5  12 12346.3 815.792  16
   4   5 -12 12489.2 813.995   6
  -4  -5  11 23899.4 1407.71  16
  -4  -5  11 26155.9 1460.28  15
  -4  -5  10 26972.8 1526.07  15
  -4  -5  10 25941.1 1475.88  16
  -4  -5  10 26461.6 1431.13   8
  -4  -5   9 728.498 205.854  15
  -4  -5   9 901.373 200.131   8
  -4  -5   9 954.551 167.238  36
   4   5  -8 19028.9 1120.10   3
  -4  -5   8 18229.0 1564.41  34
  -4  -5   8 20102.9 1091.87  36
   4   5  -8 19578.3 1774.23  29
   4   5  -7 18124.4 1081.28   3
  -4  -5   7 18031.8 1552.42  34
  -4  -5   7 18688.7 1048.15  36
   4   5  -6 1785.78 253.073   3
  -4  -5   6 1859.06 471.463  34
  -4  -5   6 1431.05 218.700  36
   4   5  -5 15495.1 955.246   3
  -4  -5   4 47686.2 2523.11   5
   4   5  -4 51543.9 2561.86   3
  -4  -5   4 55103.8 3256.49  34
  -4  -5   4 50664.4 2509.54  36
  -4  -5   3 16694.2 1015.65   5
   4   5  -3 18665.0 1063.29   3
  -4  -5   3 17644.7 1541.46  34
  -4  -5   3 17206.9 1006.74  36
   4   5  -2 12200.9 839.112   7
  -4  -5   2 12408.7 793.004   5
   4   5  -2 11415.9 818.520   9
   4   5  -2 13546.8 835.738   3
  -4  -5   2 14106.5 1324.54  34
  -4  -5   2 13243.7 791.191  36
   4   5  -1 1234.76 258.469   9
   4   5  -1 1074.84 230.100   7
  -4  -5   1 1087.99 196.773   5
   4   5  -1 1010.45 207.856   3
  -4  -5   1 1331.27 399.840  34
  -4  -5   1 996.118 185.652  36
   4   5   0 14049.5 908.389   7
   4   5   0 13816.5 961.075   9
   4   5   0 15532.8 904.659   3
  -4  -5   0 15440.7 1376.47  34
  -4  -5   0 13751.8 849.258  36
   4   5   1 6223.64 496.227   7
   4   5   1 7098.16 605.512   9
   4   5   1 5684.43 833.953  29
   4   5   2 14980.1 997.873   9
   4   5   2 12942.0 914.140  20
   4   5   2 14908.2 1007.12  22
   4   5   3 4874.40 524.814   9
   4   5   3 4608.60 434.762  19
   4   5   3 4064.49 442.251  20
   4   5   3 4000.61 496.678  22
   4   5   4 830.306 273.318   9
   4   5   4 713.622 250.425  28
   4   5   4 562.786 229.169  20
   4   5   4 614.372 194.714  19
   4   5   4 547.715 257.078  22
   4   5   5 6432.32 511.796  28
   4   5   5 5659.00 478.614  19
   4   5   5 6033.74 512.766  20
   4   5   5 6995.83 575.917  22
   4   5   6 1031.22 210.585   9
   4   5   6 927.138 194.925  20
   4   5   7 132.703 85.6358  22
   4   5   7-19.1252 77.8398  20
  -4  -6  14 165.485 147.262  21
   4   6 -13 949.106 167.744   6
  -4  -6  13 1519.90 266.522  21
   4   6 -12 2463.39 305.201   6
  -4  -6  11 431.120 166.416  15
  -4  -6  11 444.687 143.700   8
  -4  -6  10 17094.5 1084.79  15
  -4  -6  10 18840.3 1071.58   8
  -4  -6   9 19924.6 1207.49  15
  -4  -6   9 17742.5 1650.90  34
  -4  -6   9 21922.9 1162.40  36
   4   6  -9 20691.5 1230.01   7
  -4  -6   8 62449.9 3286.67  15
   4   6  -8 67608.3 3360.13   7
   4   6  -8 67117.5 3308.30   3
  -4  -6   8 65448.9 4002.33  34
  -4  -6   8 71044.5 3287.95  36
   4   6  -8 62113.8 4193.11  29
   4   6  -7 19581.5 1175.92   3
   4   6  -7 20279.0 1222.11   7
  -4  -6   7 18931.1 1715.94  34
   4   6  -7 20946.9 1963.54  29
  -4  -6   7 20208.3 1152.35  36
   4   6  -6 2595.86 349.847   7
   4   6  -6 2579.36 323.541   3
  -4  -6   6 3099.94 631.464  34
  -4  -6   6 2257.88 292.798  36
   4   6  -5 2275.02 301.028   3
   4   6  -5 1941.35 304.776   7
  -4  -6   4 10734.6 1223.57  34
  -4  -6   4 10957.9 734.736  36
   4   6  -3 15537.1 997.286   7
   4   6  -3 15129.0 963.980   3
  -4  -6   3 15195.0 1511.95  34
  -4  -6   3 14884.4 927.839  36
   4   6  -2 16567.8 1055.62   7
   4   6  -2 15825.4 1026.30   9
   4   6  -2 17522.0 1042.98   3
  -4  -6   2 15601.8 1543.28  34
  -4  -6   2 16718.9 1001.50  36
   4   6  -2 18051.6 1802.20  29
   4   6  -1 16184.1 983.964   7
   4   6  -1 13955.4 966.900   9
   4   6  -1 15238.2 946.662   3
  -4  -6   1 15313.1 1468.46  34
   4   6  -1 15026.3 1638.75  29
  -4  -6   1 16684.5 941.915  36
   4   6  -1 13600.7 944.956  22
   4   6   0 31956.8 1733.01   3
   4   6   0 30842.6 1806.90   9
   4   6   0 35779.6 1782.13   7
  -4  -6   0 28769.3 2271.17  34
   4   6   0 30904.2 2487.86  29
  -4  -6   0 32949.6 1713.06  36
   4   6   0 33198.4 1814.29  22
   4   6   1 3095.83 322.985   7
   4   6   1 3394.23 434.538   9
   4   6   1 3907.46 436.605  22
   4   6   2 1500.23 307.474   9
   4   6   2 1367.45 319.210  22
   4   6   2 1704.34 278.542  20
   4   6   3 90.6335 208.661   9
   4   6   3 45.5318 235.137  28
   4   6   3 23.0623 230.440  22
   4   6   3 254.278 176.471  20
   4   6   4-77.2831 214.314   9
   4   6   4 72.4932 183.518  28
   4   6   4 98.3235 182.502  22
   4   6   4 61.6848 156.159  20
   4   6   5 11485.7 703.628   9
   4   6   5 9491.77 634.201  20
   4   6   5 11742.5 708.436  22
   4   6   6 5563.16 374.417  22
   4   7 -13 12543.5 745.569   6
   4   7 -12 226.689 129.354   6
   4   7 -11 2259.85 307.836   6
  -4  -7  11 2051.56 263.588   8
  -4  -7  10 3270.33 332.523  15
  -4  -7  10 3592.29 364.545   8
  -4  -7   9 2012.59 453.314  34
  -4  -7   9 1966.14 250.455  36
   4   7  -9 2017.47 268.251   3
   4   7  -9 1788.83 282.010   7
   4   7  -8 487.395 255.105  29
  -4  -7   8 212.936 128.401  36
   4   7  -8 111.205 162.796   7
   4   7  -8 215.617 152.449   3
  -4  -7   7 10431.3 1260.27  34
   4   7  -7 11647.4 1442.69  29
  -4  -7   7 11254.6 766.216  36
   4   7  -7 11281.8 818.166   7
   4   7  -7 11559.2 799.507   3
  -4  -7   6 301944. 15253.8  34
   4   7  -6 317363. 15638.5  29
   4   7  -6 309394. 14355.4   7
   4   7  -6 307033. 14315.4   3
  -4  -7   5 79974.7 4661.31  34
  -4  -7   5 75429.6 3712.59  36
   4   7  -5 77337.9 4846.69  29
   4   7  -5 75915.0 3776.59   7
   4   7  -5 72874.9 3734.05   3
  -4  -7   4 1145.70 450.424  34
  -4  -7   4 673.910 192.687  36
   4   7  -3 3465.48 828.084  29
  -4  -7   3 3386.36 711.901  34
  -4  -7   3 2866.48 343.572  36
   4   7  -3 3710.51 393.102   3
   4   7  -3 3426.64 396.528   7
   4   7  -2 5279.41 507.054   9
   4   7  -2 6041.59 521.654   3
   4   7  -2 6881.87 560.015   7
  -4  -7   2 5493.30 887.358  34
   4   7  -2 6730.53 1067.41  29
  -4  -7   2 6563.33 516.631  36
   4   7  -1 19223.2 1197.31   9
   4   7  -1 21302.4 1206.72   7
   4   7  -1 21602.5 1183.61   3
  -4  -7   1 21983.5 1808.46  34
   4   7  -1 18573.3 1820.24  29
  -4  -7   1 19988.7 1145.51  36
   4   7  -1 17155.9 1152.23  22
   4   7   0 2881.15 308.164   3
   4   7   0 3285.21 345.792   7
   4   7   0 3125.25 384.686   9
   4   7   0 3050.46 366.783  22
   4   7   1 9886.31 733.822   9
   4   7   1 9668.83 762.731  28
   4   7   1 9611.62 723.553  22
   4   7   2 12961.9 866.407   9
   4   7   2 12867.0 863.590  22
   4   7   3 4753.53 430.459   9
   4   7   3 3880.88 339.464  20
   4   7   3 4391.57 418.388  22
   4   7   4 3430.89 317.932   9
   4   7   4 2728.82 292.422  22
   4   7   5 135.465 82.5287  22
   4   8 -14 229.571 73.5250  10
   4   8 -13 359.040 105.302   6
  -4  -8  12 7444.20 477.719   8
   4   8 -12 6753.50 517.262   6
   4   8 -11 12248.9 784.960   6
  -4  -8  11 11016.2 717.551   8
  -4  -8  10 3735.82 366.888   8
   4   8 -10 2751.59 306.398   7
  -4  -8  10 3617.35 308.374  36
   4   8  -9 8046.60 595.892   3
   4   8  -9 9034.48 670.123   6
  -4  -8   9 7979.25 624.735   8
   4   8  -9 7794.30 606.771   7
  -4  -8   9 8815.81 600.422  36
   4   8  -8 3515.77 403.315   7
   4   8  -8 4366.48 413.302   3
   4   8  -8 4173.92 419.741   6
  -4  -8   8 3518.08 652.534  34
  -4  -8   8 3993.32 390.618  36
   4   8  -7 1068.46 220.035   6
   4   8  -7 1139.34 272.725   7
   4   8  -7 1296.75 247.798   3
   4   8  -7 1874.26 519.791  29
  -4  -8   7 1314.96 401.222  34
  -4  -8   7 1563.82 263.087  36
   4   8  -6 3699.15 418.563   7
   4   8  -6 3746.82 407.147   3
   4   8  -6 3050.51 345.217   6
   4   8  -6 2694.86 739.997  29
   4   8  -5 3012.68 386.898   7
   4   8  -5 3116.38 375.304   3
   4   8  -5 2627.58 300.724   6
   4   8  -5 3034.45 751.018  29
  -4  -8   5 3124.18 684.319  34
  -4  -8   5 3325.74 373.779  36
   4   8  -4 48715.5 2508.56   3
  -4  -8   4 45495.2 3273.22  34
   4   8  -4 49942.1 3567.42  29
  -4  -8   4 47987.9 2490.38  36
   4   8  -3 29455.6 1615.94   3
   4   8  -3 28674.9 1637.05   7
  -4  -8   3 27520.1 2296.50  34
   4   8  -3 28501.6 2473.38  29
  -4  -8   3 29290.4 1600.60  36
   4   8  -2 12885.6 848.751   3
   4   8  -2 13592.8 886.021   7
  -4  -8   2 12991.5 831.952  36
   4   8  -1 1225.50 227.918   7
   4   8  -1 599.073 210.273   9
   4   8  -1 951.152 278.375  28
  -4  -8   1 979.411 181.995  36
   4   8   0 271.006 124.629   7
   4   8   0 456.031 179.437   9
   4   8   0 452.028 232.537  28
   4   8   0 305.446 162.419  22
   4   8   1 1910.30 279.299   9
   4   8   1 2315.75 327.328  28
   4   8   1 1872.67 267.363  22
   4   8   1 2116.27 255.263  24
   4   8   2 149.771 155.716   9
   4   8   2 478.562 180.971  28
   4   8   2 290.556 139.960  22
   4   8   3 5688.99 404.208   9
   4   8   3 5682.70 386.239  22
   4   9 -13 1451.25 158.120  10
   4   9 -13 1645.75 166.521   6
   4   9 -12 2479.37 249.923   6
  -4  -9  12 2426.82 225.873   8
  -4  -9  11 12.2903 102.622   8
   4   9 -10 2554.05 291.424   6
   4   9 -10 2203.04 242.147   7
  -4  -9  10 2310.61 270.093   8
  -4  -9  10 2412.66 243.521  36
   4   9  -9 6594.21 519.186   6
   4   9  -9 6008.04 486.357   7
  -4  -9   9 6897.87 492.779  36
   4   9  -8 2619.25 305.273   3
   4   9  -8 2375.83 295.748   6
   4   9  -8 2765.59 327.401   7
  -4  -9   8 2877.65 312.484  36
   4   9  -7 11955.8 777.413   3
   4   9  -7 9930.38 715.283   6
   4   9  -7 11535.8 791.161   7
  -4  -9   7 12160.0 773.234  36
   4   9  -6 4303.59 414.323   3
   4   9  -6 3828.84 348.027   6
   4   9  -6 4199.86 430.693   7
   4   9  -5 15104.4 963.632   7
  -4  -9   5 14163.8 916.316  36
   4   9  -4 15172.4 910.698   3
  -4  -9   4 14509.9 892.848  36
   4   9  -4 12650.8 850.381  28
   4   9  -3 551.222 192.472   7
  -4  -9   3 711.413 168.246  36
   4   9  -3 843.506 215.833  28
   4   9  -2 17857.1 1033.00   7
  -4  -9   2 17408.6 992.171  36
   4   9  -2 17044.0 1045.62  28
   4   9  -1 35706.4 1813.10   7
   4   9  -1 35266.3 1868.03  28
   4   9   0 25997.8 1273.27  28
   4   9   0 24277.6 1222.01  24
   4   9   1 8410.85 555.571  28
   4   9   2 708.384 157.381  14
  -4 -10  12 4631.47 302.875   8
   4  10 -11 3560.15 292.594   6
  -4 -10  11 3595.13 284.744   8
   4  10 -10 6313.22 445.633   6
   4  10  -9 2871.44 278.805   6
   4  10  -9 2863.82 278.878   7
  -4 -10   9 3480.01 295.661  36
   4  10  -8 255.895 135.231   7
   4  10  -8 342.501 111.094   6
  -4 -10   8 663.722 168.832   8
  -4 -10   8 465.199 136.949  36
  -4 -10   7 22150.3 1224.58   8
   4  10  -7 21914.6 1231.97   7
   4  10  -6 9887.43 673.237   7
  -4 -10   6 9678.30 648.266  36
   4  10  -5 7521.63 538.992   7
  -4 -10   5 6548.65 504.302  36
  -4 -10   4 7109.68 503.233  36
   4  10  -3 17925.1 960.959   7
  -4 -10   3 18002.3 933.281  36
   4  10  -2 2068.41 218.372   7
   4  10  -2 1904.42 226.590  28
   4  10  -2 1866.47 238.199  24
   4  10  -1 281.808 116.015  24
   4  10   0 1673.17 185.204  14
  -4 -11   9 3339.98 250.099   8
   4  11  -9 2303.73 201.054   7
   4  11  -8 1818.52 195.370   7
  -4 -11   8 2093.44 204.132   8
   4  11  -7 397.911 122.899   7
  -4 -11   7 373.683 112.615   8
  -4 -11   6 2680.31 231.446   8
   4  11  -6 2605.96 251.074   7
  -4 -11   6 2704.89 243.004  36
  -4 -11   5 106.797 68.1072   8
   4  11  -5-10.9610 97.6507  24
   4  11  -4 1867.13 184.624   7
   4  11  -4 1107.94 189.660  24
   4  11  -3 6462.01 389.994   7
  -5  11   2 4742.42 333.749  12
  -5  11   1 3974.28 338.163  27
  -5  11   0 9092.87 605.905  27
  -5  11   0 9482.19 568.116  26
  -5  11  -1 796.187 170.466  27
  -5  11  -1 935.515 162.449  26
  -5  11  -2 4462.75 389.298  27
  -5  11  -2 5628.05 410.877  26
  -5  11  -3 5407.55 396.111  27
  -5  11  -4 5307.60 386.433   4
  -5  11  -5 4643.51 346.422   4
  -5  11  -5 4138.22 344.438  26
  -5  11  -6 4888.88 356.287  26
  -5  11  -7 1645.27 164.381  26
  -5  10   4 821.320 137.890  12
  -5  10   4 455.999 130.120  13
  -5  10   3 40.0677 122.288  13
  -5  10   2 6629.65 512.963  27
  -5  10   2 7378.89 473.123  26
  -5  10   1 15127.8 840.206  26
  -5  10   1 14707.3 876.118  27
  -5  10   0 26652.2 1366.38  27
  -5  10   0 26205.4 1325.48  26
  -5  10  -1 15089.6 976.313  27
  -5  10  -1 15890.6 969.902  26
  -5  10  -2 617.068 167.472   4
  -5  10  -2 906.840 202.800  27
  -5  10  -3 272.756 138.545   4
  -5  10  -3 339.742 143.479  27
  -5  10  -4-32.3233 118.015   4
  -5  10  -6 3571.18 331.839   4
  -5  10  -6 3204.16 298.960  10
  -5  10  -7 3294.66 297.451   4
  -5  10  -7 2781.45 269.447  10
  -5  10  -8 6211.44 404.877   4
  -5  10  -8 5867.56 392.101  10
  -5   9   5 4228.79 386.976  13
  -5   9   5 5188.81 390.860  12
  -5   9   4 19279.8 1095.17  13
  -5   9   3 19804.6 1182.72  13
  -5   9   3 21783.3 1273.33  27
  -5   9   3 21492.2 1210.09  26
  -5   9   2 4656.58 454.574  13
  -5   9   2 5708.18 534.430  27
  -5   9   2 6009.99 500.427  26
  -5   9   1 1636.78 279.958  13
  -5   9   1 2056.45 342.389  27
  -5   9   1 2663.23 342.114  26
  -5   9   0 2720.47 335.961  13
  -5   9   0 2613.58 304.760  23
  -5   9   0 3560.74 412.608  27
  -5   9  -1 3948.23 399.228   4
  -5   9  -1 3835.37 385.507  23
  -5   9  -1 3885.72 449.317  27
  -5   9  -2 8437.86 647.498   4
  -5   9  -2 8677.30 681.947  27
  -5   9  -3 9880.17 708.029   4
  -5   9  -3 8400.40 625.813  10
  -5   9  -3 10285.8 716.652  27
  -5   9  -4 1970.67 263.921  10
  -5   9  -5 11995.7 807.352  10
  -5   9  -5 13516.1 862.521   4
  -5   9  -6 293.968 148.724  10
  -5   9  -6 409.515 172.370   4
  -5   9  -7 309.535 145.539  10
  -5   9  -7 135.852 132.428   4
   5  -9   8 420.502 124.783  33
  -5   9  -8 258.587 113.320   4
  -5   9  -9 1614.40 187.445  10
  -5   8   7 1359.03 193.570  13
  -5   8   7 1433.31 181.484  12
  -5   8   6 4807.80 388.008  11
  -5   8   6 4698.40 418.071  12
  -5   8   5 8997.11 652.501  13
  -5   8   4 497.767 375.768  14
  -5   8   4 443.454 205.530  13
  -5   8   4 606.623 190.949  26
  -5   8   3 2555.53 430.399  14
  -5   8   3 2851.87 370.546  13
  -5   8   3 2485.74 315.077  23
  -5   8   3 3031.00 406.501  27
  -5   8   3 3113.22 371.546  26
  -5   8   2 4284.61 457.711  13
  -5   8   2 4538.46 442.976  23
  -5   8   2 5115.82 540.826  27
  -5   8   2 5323.10 506.771  26
  -5   8   1 42861.2 2300.57  13
  -5   8   1 43620.9 2314.26  23
  -5   8   1 47133.8 2424.83  27
  -5   8   0 19904.9 1174.11   4
  -5   8   0 17679.0 1129.55  13
  -5   8   0 21299.2 1275.17  27
  -5   8  -1 298.907 171.430   4
  -5   8  -1 150.411 132.904  10
  -5   8  -1 271.073 186.995  27
  -5   8  -2 2226.52 296.050  10
  -5   8  -2 2075.54 312.408   4
  -5   8  -2 2359.31 748.753  37
  -5   8  -2 1899.48 309.175  27
  -5   8  -3 2979.78 344.186  10
  -5   8  -3 2671.87 348.802  27
  -5   8  -4 11480.6 809.149  10
  -5   8  -4 11566.4 1581.13  37
  -5   8  -4 12443.8 845.718   4
  -5   8  -5 22524.8 1340.29  10
  -5   8  -5 23732.5 1366.60   4
  -5   8  -6 2087.50 303.921  10
  -5   8  -6 1886.02 289.866   4
  -5   8  -7 20261.4 1179.22   4
  -5   8  -8 2769.93 306.969  10
  -5   8  -8 2537.86 282.598   4
  -5   8  -9 895.988 172.875  10
   5  -8   9 849.676 172.233  33
  -5   8 -10 411.547 91.8250  10
  -5   7   8 378.126 131.716  12
  -5   7   7 8888.48 617.285  11
  -5   7   7 9910.25 645.562  13
  -5   7   7 7755.19 626.640  12
  -5   7   6 11966.8 817.074  11
  -5   7   6 12333.3 856.561  14
  -5   7   6 11354.6 748.585  23
  -5   7   5 794.810 355.379  14
  -5   7   5 993.873 244.261  13
  -5   7   5 802.739 208.661  23
  -5   7   5 913.343 243.562  26
  -5   7   4 7862.09 664.259  14
  -5   7   4 8732.69 671.314  13
  -5   7   4 7908.90 705.429  27
  -5   7   4 7772.82 630.122  23
  -5   7   4 8226.31 678.418  26
  -5   7   3 20771.5 1223.38  14
  -5   7   3 20960.2 1239.37  13
  -5   7   3 18148.9 1205.85  23
  -5   7   3 20969.8 1311.06  27
  -5   7   3 20036.2 1268.72  26
  -5   7   2 4837.26 483.972  14
  -5   7   2 3637.51 428.460  13
  -5   7   2 4444.56 460.573  23
  -5   7   2 3869.15 475.839  27
  -5   7   1 486.856 177.398   4
  -5   7   1 590.990 196.792  13
  -5   7   1 627.222 217.287  27
  -5   7   1 346.341 199.628  26
  -5   7   0 3765.25 400.397   4
  -5   7   0 3864.68 380.725  10
  -5   7   0 3513.03 378.006  13
  -5   7   0 3639.37 436.666  27
  -5   7  -1 40232.3 2124.42  10
  -5   7  -1 43377.2 2182.50   4
  -5   7  -1 46290.3 3341.88  37
  -5   7  -1 39893.5 3022.07  30
  -5   7  -1 37884.4 2171.46  27
  -5   7  -2 27583.7 1517.12  10
  -5   7  -2 33215.1 2678.86  37
  -5   7  -2 31474.4 2523.35  30
  -5   7  -2 24514.7 1515.62  27
  -5   7  -3 29293.2 1643.65  10
  -5   7  -3 31973.8 2736.39  37
  -5   7  -3 27944.9 2556.48  30
  -5   7  -3 29773.5 1671.42   4
  -5   7  -4 7451.81 622.936  10
  -5   7  -4 7424.54 1247.76  37
  -5   7  -4 8326.82 651.870   4
  -5   7  -5 1340.06 556.511  30
  -5   7  -5 1044.48 238.451   4
   5  -7   5 1474.27 409.775   1
  -5   7  -6 10292.2 725.120  10
  -5   7  -6 8265.35 673.442   4
  -5   7  -7 7760.92 613.302  10
  -5   7  -7 7627.82 585.555   4
  -5   7  -8 5368.90 457.138  10
  -5   7  -8 4704.04 403.224   4
  -5   7  -9 4506.42 378.102  10
   5  -7   9 3847.88 394.798  33
  -5   7 -10 740.641 127.559  10
  -5   6   8 6160.78 515.057  11
  -5   6   8 5877.18 503.571  13
  -5   6   8 6205.72 519.827  12
  -5   6   8 6798.31 483.150  23
  -5   6   7 2077.33 334.682  12
  -5   6   7 2268.80 331.500  11
  -5   6   7 2259.87 334.710  13
  -5   6   7 1724.85 275.406  23
  -5   6   6 845.442 356.921  14
  -5   6   6 904.103 226.882  23
  -5   6   5 671.585 325.320  14
  -5   6   5 410.509 228.973  13
  -5   6   5 639.713 215.798  23
  -5   6   5 391.843 206.165  26
  -5   6   4 6631.40 611.189  14
  -5   6   4 7228.93 592.321  13
  -5   6   4 6857.99 596.086  23
  -5   6   4 6204.18 609.517  27
  -5   6   4 5737.36 509.495  25
  -5   6   3 10682.7 759.566  14
  -5   6   3 9749.73 732.430  13
  -5   6   3 10004.9 758.390  23
  -5   6   3 9645.29 786.036  27
  -5   6   2 2620.81 380.744  14
  -5   6   2 2928.68 361.819  13
  -5   6   2 2869.50 387.655  27
  -5   6   2 3040.84 383.771  26
  -5   6   1 10478.7 718.425  10
  -5   6   1 10176.4 733.941  13
  -5   6   1 10444.1 744.518   4
  -5   6   1 10622.6 1224.83  30
  -5   6   1 11112.6 808.673  27
  -5   6   0 20637.0 1189.75  10
  -5   6   0 20081.7 1209.72   4
  -5   6   0 21115.7 1884.57  30
  -5   6   0 22663.2 2101.10  37
  -5   6   0 20194.9 1243.31  27
  -5   6  -1 5726.45 480.961  10
  -5   6  -1 6317.43 978.090  30
  -5   6  -1 6411.64 1054.02  37
  -5   6  -1 6034.52 1024.62  32
  -5   6  -1 4527.79 465.506  27
  -5   6  -2 899.713 214.215  10
  -5   6  -2 1384.36 530.582  37
  -5   6  -2 1138.79 432.608  30
  -5   6  -2 1242.86 530.190  32
  -5   6  -2 1241.51 229.821   4
  -5   6  -3 31702.4 1772.44  10
  -5   6  -3 34031.7 2795.85  37
  -5   6  -3 32877.9 1786.62   4
  -5   6  -4 12269.5 1528.78  30
  -5   6  -4 10985.7 792.643   4
  -5   6  -5 493.848 192.922  10
  -5   6  -5 108.327 358.267  30
  -5   6  -5 577.272 190.436   4
  -5   6  -6 2217.19 320.981  10
  -5   6  -6 1814.43 604.887  30
  -5   6  -6 1754.07 281.789   4
  -5   6  -7 6061.43 514.808   4
  -5   6  -7 6868.11 568.435  10
  -5   6  -8 5101.65 456.902  10
  -5   6  -9 109.567 115.579  10
  -5   6 -10 2509.75 220.494  10
   5  -6  10 2516.63 221.668  19
  -5   5   9 5653.29 479.299  11
  -5   5   9 4336.42 451.084  12
  -5   5   9 5527.97 449.991  23
  -5   5   8 288.407 207.004  12
  -5   5   8 478.469 221.294  11
  -5   5   8 264.112 455.745  14
  -5   5   8 631.474 224.727  13
  -5   5   8 549.487 187.793  23
  -5   5   7 6939.29 629.720  11
  -5   5   7 6737.15 585.302  13
  -5   5   7 5895.57 591.186  12
  -5   5   7 5984.48 556.977  23
  -5   5   6 2143.10 392.369  14
  -5   5   6 1907.36 318.155  23
  -5   5   6 1452.86 302.673  26
  -5   5   5 35807.7 1948.25  14
  -5   5   5 40221.4 1988.52  13
  -5   5   5 37440.1 2046.54  27
  -5   5   5 35770.2 1989.95  23
  -5   5   5 32005.8 1889.41  25
  -5   5   4 20366.6 1193.95  14
  -5   5   4 21237.6 1212.06  13
  -5   5   4 19553.1 1225.51  23
  -5   5   4 21570.2 1283.90  27
  -5   5   4 17988.8 1155.27  25
  -5   5   3 23599.0 1350.61  14
  -5   5   3 22387.7 1347.41  13
  -5   5   3 25863.2 1386.79  31
  -5   5   3 26694.5 2149.77  32
  -5   5   3 23274.6 1394.72  23
  -5   5   3 22636.3 1409.24  27
  -5   5   3 23993.6 1398.63  26
  -5   5   2 985.945 287.443  14
  -5   5   2 865.306 182.157  10
  -5   5   2 720.203 185.163  13
  -5   5   2 1066.86 227.595   4
  -5   5   2 1140.84 331.379  30
  -5   5   2 1270.13 261.946  31
  -5   5   2 889.102 430.223  32
  -5   5   2 592.206 203.717  27
  -5   5   2 546.113 172.424  26
  -5   5   1 17234.0 1037.92  10
  -5   5   1 17412.3 1031.82  13
  -5   5   1 18003.7 1065.32   4
  -5   5   1 20101.3 1634.19  30
  -5   5   1 16545.0 1087.67  27
  -5   5   0 17005.8 1067.65  10
  -5   5   0 17264.5 1082.97   4
  -5   5   0 22735.1 1170.12  31
  -5   5   0 17862.1 1647.72  30
  -5   5   0 22703.8 1909.56  37
  -5   5   0 20583.4 1854.07  32
  -5   5   0 17319.7 1092.22  27
  -5   5  -1 14118.2 942.416  10
  -5   5  -1 17256.0 1018.47  31
  -5   5  -1 17366.6 1609.98  30
  -5   5  -1 18775.0 1746.01  37
  -5   5  -1 17263.1 1682.09  32
  -5   5  -1 15119.3 963.277   4
  -5   5  -2 39498.2 2181.36  10
  -5   5  -2 45896.9 2242.36  31
  -5   5  -2 48136.4 3109.98  30
  -5   5  -2 42995.7 3062.58  32
  -5   5  -2 41274.9 2198.19   4
  -5   5  -3 2792.97 335.326  31
  -5   5  -3 1873.32 600.731  32
  -5   5  -3 2385.96 313.307   4
  -5   5  -4 6934.48 568.457  10
  -5   5  -4 8237.37 1152.39  30
  -5   5  -4 6990.50 562.950   4
   5  -5   4 5223.87 861.754   1
  -5   5  -5 7398.41 603.626  10
  -5   5  -5 9026.09 1250.61  30
  -5   5  -5 7352.60 592.105   4
  -5   5  -6 13193.8 872.153  10
  -5   5  -6 12067.1 1511.79  30
  -5   5  -6 11720.4 809.861   4
  -5   5  -7 24937.9 1437.58  10
  -5   5  -8 12330.0 810.576  10
  -5   5  -9 3931.17 359.745  10
   5  -5   9 4719.63 438.969  33
   5  -5  10 4529.68 322.900  19
  -5   4  10 8858.29 665.710  11
  -5   4  10 9783.83 667.509  23
  -5   4   9 7179.08 625.140  11
  -5   4   9 6667.58 574.434  13
  -5   4   9 7513.85 635.199  12
  -5   4   9 7453.29 605.428  23
  -5   4   8 2495.68 370.811  12
  -5   4   8 2038.52 365.988  11
  -5   4   8 2531.00 496.769  14
  -5   4   8 2424.93 359.337  13
  -5   4   8 2310.18 293.577  16
  -5   4   8 2514.42 354.428  23
  -5   4   7 56.1087 129.460  16
  -5   4   7 159.917 185.120  13
  -5   4   7 208.202 187.638  23
  -5   4   6 3629.21 388.034  16
  -5   4   6 4720.39 480.110  23
  -5   4   6 3860.44 408.311  25
  -5   4   5 34715.0 1844.24  14
  -5   4   5 39366.6 1898.33  13
  -5   4   5 36830.0 1958.31  27
  -5   4   5 31228.6 1784.79  31
  -5   4   5 32215.7 2446.68  32
  -5   4   5 33241.4 1893.83  23
  -5   4   5 35735.3 1914.03  26
  -5   4   5 34927.2 1854.21  25
  -5   4   4 46976.3 2418.25  14
  -5   4   4 52017.2 2456.15  13
   5  -4  -4 39510.7 2918.72   1
  -5   4   4 47754.1 2413.48  31
  -5   4   4 43158.2 3059.06  32
  -5   4   4 47920.1 2503.05  27
  -5   4   4 46445.3 2478.23  23
  -5   4   4 47290.2 2472.53  26
  -5   4   3 52804.8 2591.92  14
  -5   4   3 47550.3 2578.44  10
  -5   4   3 54113.7 2610.35  13
  -5   4   3 58083.1 2634.75  31
  -5   4   3 44690.2 2911.46  30
  -5   4   3 54544.6 3375.17  32
  -5   4   3 50057.6 2643.37  27
  -5   4   3 50506.9 2631.81  26
  -5   4   2 10966.1 701.209  14
  -5   4   2 10816.8 691.452  13
  -5   4   2 9335.54 681.889   4
  -5   4   2 12461.2 733.253  31
  -5   4   2 9398.23 989.989  30
  -5   4   2 10437.0 1189.75  32
  -5   4   2 9651.43 716.042  27
  -5   4   2 9406.36 694.529  26
  -5   4   1 28640.1 1998.21  30
  -5   4   1 29489.7 2165.43  37
  -5   4   1 26301.0 1467.44   4
  -5   4   0 411.049 136.881  10
  -5   4   0 317.369 306.455  30
  -5   4   0 286.570 170.386  31
  -5   4   0 298.062 302.276  37
  -5   4   0 871.579 398.671  32
  -5   4   0 356.515 140.255   4
  -5   4  -1 3679.31 363.355  31
  -5   4  -1 2882.75 630.458  30
  -5   4  -1 3587.81 691.626  32
  -5   4  -1 3287.22 334.433   4
  -5   4  -2 29213.9 1637.61  10
  -5   4  -2 33029.5 1666.55  31
  -5   4  -2 33512.5 2378.06  32
  -5   4  -2 29781.4 1638.05   4
  -5   4  -3 9977.37 699.939  10
  -5   4  -3 10118.9 689.977  31
  -5   4  -3 11091.5 1270.80  30
  -5   4  -3 10947.4 1212.33  32
  -5   4  -3 9279.47 675.185   4
   5  -4   3 11158.6 1171.15   1
  -5   4  -4 39393.9 1986.10  10
  -5   4  -4 35946.5 1929.93  31
  -5   4  -4 41504.5 2869.02  30
  -5   4  -4 36359.9 2628.51  32
  -5   4  -4 35909.2 1937.39   4
   5  -4   4 35421.8 2510.09   1
  -5   4  -5 7152.08 569.720  10
  -5   4  -5 5925.50 986.880  30
  -5   4  -5 6419.12 525.331   4
  -5   4  -6 1473.36 257.726  10
  -5   4  -6 767.757 424.605  30
  -5   4  -7-38.8879 138.286  10
   5  -4   7 116.832 334.599  35
  -5   4  -8 512.069 163.463  10
   5  -4   8 423.319 195.627  33
   5  -4   9 2058.84 288.600  33
   5  -4   9 1836.09 259.028  19
  -5   4 -10 2089.73 205.107   5
   5  -4  10 2015.81 198.888  19
  -5   3  11 235.028 149.863  23
  -5   3  10 10082.9 779.930  11
  -5   3  10 9958.21 699.004  16
  -5   3  10 11284.3 781.135  23
  -5   3   9 31243.8 1834.35  11
  -5   3   9 30900.4 1749.03  13
  -5   3   9 31403.5 1807.17  12
  -5   3   9 31468.0 1739.96  16
  -5   3   9 33283.7 1823.67  23
  -5   3   8 18013.6 1158.04  14
  -5   3   8 18915.8 1156.74  13
  -5   3   8 17749.6 1181.77  12
  -5   3   8 17374.1 1116.66  16
  -5   3   8 17938.3 1178.60  23
  -5   3   7 14479.6 949.846  16
  -5   3   7 13501.3 944.456  14
  -5   3   7 16158.5 977.375  13
  -5   3   7 12941.6 911.333  25
  -5   3   6 21529.0 1780.50  32
  -5   3   6 25016.2 1440.75  26
  -5   3   6 23568.5 1377.40  25
  -5   3   5 3151.69 364.684  13
   5  -3  -5 2662.38 572.437   1
  -5   3   5 3065.93 318.978  31
  -5   3   5 3732.96 641.345  32
  -5   3   5 2458.35 351.992  27
  -5   3   5 3076.78 362.975  26
  -5   3   5 3153.76 355.321  25
  -5   3   4 3476.96 395.155  14
  -5   3   4 3332.04 348.225  13
   5  -3  -4 3124.53 596.057   1
  -5   3   4 3237.21 373.829  27
  -5   3   4 3224.29 639.001  32
  -5   3   4 3293.28 327.713  31
  -5   3   4 3317.41 361.125  23
  -5   3   4 2973.86 340.393  26
  -5   3   3 29.2449 120.902  31
  -5   3   3-41.8933 146.954  30
  -5   3   3-125.467 264.465  32
   5  -3  -3-121.200 255.471   1
  -5   3   2 614.234 163.273  31
  -5   3   2 703.726 276.074  30
   5  -3  -2 1137.36 378.223   1
  -5   3   1 17436.0 1465.05  37
  -5   3   1 18207.2 1499.35  32
  -5   3   1 17084.3 990.232  31
  -5   3   0 20572.3 1697.22  37
  -5   3   0 23487.4 1772.52  32
  -5   3   0 22265.3 1219.78  31
  -5   3  -1 59617.9 3573.27  32
  -5   3  -1 60370.2 2951.74  31
   5  -3   1 59891.7 3561.93   1
  -5   3  -2 21012.9 1212.85  10
  -5   3  -2 20929.2 1736.19  32
  -5   3  -2 22773.4 1214.10  31
   5  -3   2 20978.8 1707.44   1
  -5   3  -3 3169.09 332.076  10
  -5   3  -3 2839.19 308.137  31
  -5   3  -3 2334.51 546.709  32
   5  -3   3 2922.38 578.199   1
  -5   3  -3 2858.45 308.332   4
  -5   3  -4 2105.39 283.844  10
  -5   3  -4 2767.08 631.212  30
   5  -3   4 1758.10 458.319   1
  -5   3  -5 3882.53 398.966  10
  -5   3  -5 4110.92 792.325  30
  -5   3  -6 25099.1 1402.05  10
  -5   3  -6 22286.6 2096.46  30
   5  -3   6 24504.3 2369.12  35
  -5   3  -7 6183.26 523.253  10
   5  -3   7 7595.10 633.601  33
   5  -3   8 4059.00 429.474  33
   5  -3   8 3536.71 381.611  19
   5  -3   9 2817.98 325.248  33
   5  -3   9 2727.15 290.210  19
  -5   2  12 8733.98 564.356  16
  -5   2  11 10615.4 722.490  16
  -5   2  10 7844.87 674.381  11
  -5   2  10 5925.42 512.358  17
  -5   2  10 7934.17 616.079  16
  -5   2   9 2659.15 317.969  15
  -5   2   9 2761.56 326.689  17
  -5   2   9 3180.08 444.501  12
  -5   2   9 3610.49 417.286  16
  -5   2   8 360.358 176.226  16
  -5   2   8 251.588 138.812  15
  -5   2   8 607.934 246.131  13
  -5   2   8 500.554 205.018  23
  -5   2   7 8646.13 666.002  15
  -5   2   7 11814.9 822.410  11
  -5   2   7 9483.45 769.339  14
  -5   2   7 11441.1 761.758  13
  -5   2   7 10533.0 775.680  23
  -5   2   7 9543.64 728.728  25
  -5   2   6 57464.4 2759.09  14
  -5   2   6 60237.3 2833.59  12
   5  -2  -6 46844.1 3187.89   1
  -5   2   6 50799.7 3207.49  32
  -5   2   6 50561.7 2668.68  31
  -5   2   6 55937.2 2813.95  23
  -5   2   6 57586.6 2828.81  26
  -5   2   6 54901.9 2787.84  25
  -5   2   5 32036.4 1628.85  13
   5  -2  -5 27922.5 2062.90   1
  -5   2   5 30345.4 2099.38  32
  -5   2   5 30748.7 1566.23  31
  -5   2   5 29555.8 1639.87  23
  -5   2   5 28828.9 1635.12  26
  -5   2   5 28891.3 1620.19  25
  -5   2   4 33044.8 2042.61  32
   5  -2  -4 29193.4 1992.03   1
  -5   2   3 10140.0 1021.34  32
   5  -2  -3 9401.28 1000.93   1
   5  -2  -2 41902.0 2643.01   1
  -5   2   1 10102.6 975.400  37
  -5   2   1 12343.7 1109.33  32
   5  -2  -1 10416.2 1063.59   1
  -5   2   0 7632.32 870.262  32
   5  -2   0 6820.22 844.796   1
  -5   2  -1 34172.4 2276.94  32
   5  -2   1 34834.3 2313.07   1
  -5   2  -2 29184.5 2119.56  32
  -5   2  -2 33024.2 1659.87  31
   5  -2   2 31671.7 2200.73   1
  -5   2  -3 42247.5 2158.22  10
  -5   2  -3 41300.5 2661.57  32
  -5   2  -3 42518.4 2119.22  31
   5  -2   3 42196.3 2702.70   1
  -5   2  -4 51687.3 2605.62  10
  -5   2  -5 4900.61 436.055  10
  -5   2  -5 3948.73 810.210  30
   5  -2   6 313.946 186.462  33
  -5   2  -6 1077.70 350.167  30
   5  -2   7 1127.24 237.297  33
   5  -2   7 1197.39 236.602  19
   5  -2   8 7781.61 602.659  33
   5  -2   8 7139.48 545.915  19
   5  -2   9 9006.69 613.454  33
   5  -2   9 8907.46 570.138  19
  -5   1  13 2489.98 242.173  16
  -5   1  12 118.375 142.679  16
  -5   1  11 8358.51 634.891  16
  -5   1  11 8695.01 666.787  23
  -5   1  10 23032.0 1303.41  15
  -5   1  10 19679.1 1256.18  17
  -5   1  10 24716.2 1405.28  16
  -5   1  10 24688.2 1420.64  23
  -5   1   9 25321.0 1502.64  16
  -5   1   9 25897.0 1551.24  11
  -5   1   9 23380.7 1407.41  15
  -5   1   9 25729.1 1533.21  12
  -5   1   9 24875.1 1503.35  23
  -5   1   8 36201.2 2012.64  16
  -5   1   8 37106.6 2044.82  11
  -5   1   8 34351.9 1930.48  15
  -5   1   8 37970.3 2019.78  23
  -5   1   7 5117.72 519.093  11
  -5   1   7 5792.34 512.936  13
  -5   1   7 5591.51 534.525  12
  -5   1   7 5644.31 516.882  23
  -5   1   7 5616.39 507.537  25
  -5   1   6 841.020 219.497  12
   5  -1  -6 1360.77 400.053   1
  -5   1   6 829.972 300.695  32
  -5   1   6 1409.38 242.270  23
  -5   1   6 875.443 220.679  25
  -5   1   5 154.028 199.097  32
  -5   1   5-39.2340 105.939  36
   5  -1  -5 59.6640 241.653   1
  -5   1   4 26922.0 1802.70  32
  -5   1   4 24397.7 1310.55  36
   5  -1  -4 24345.8 1822.35   1
  -5   1   3 63962.8 3521.02  32
  -5   1   3 60867.1 2982.44  36
   5  -1  -3 62553.7 3582.72   1
  -5   1   2 148601. 7542.49  32
   5  -1  -2 152165. 7642.28   1
  -5   1   1 39118.7 2369.63  32
  -5   1   1 32411.0 2089.19  37
  -5   1   1 38897.5 1881.95  36
  -5   1   0 15384.0 1292.47  32
  -5   1   0 16060.0 911.402  36
   5  -1   0 16371.1 1379.97   1
  -5   1  -1 656.455 296.491  32
  -5   1  -1 572.544 141.476  36
   5  -1   1 745.732 315.795   1
  -5   1  -2 307.749 224.587  32
   5  -1   2 117.387 237.910   1
  -5   1  -3 10660.5 678.610  10
   5  -1   3 9153.35 1011.41   1
  -5   1  -3 9392.41 967.849  32
   5  -1   4 19540.5 1178.45   9
   5  -1   5 18336.9 1115.39   9
   5  -1   5 18419.0 1145.53  33
   5  -1   5 20781.2 2044.10  35
   5  -1   6 12865.8 877.260  33
   5  -1   6 11361.9 1548.96  35
   5  -1   7 14879.0 970.933  33
   5  -1   7 15338.8 933.310  19
   5  -1   8 3031.32 338.020  33
   5  -1   8 3304.74 323.934  19
   5  -1   9 400.111 178.134  20
  -5   0  13 5755.56 454.140  16
  -5   0  12 264.231 179.506  16
  -5   0  12 57.1924 156.923  17
  -5   0  12 86.3024 165.514  23
  -5   0  11 1409.70 299.005  23
  -5   0  10 627.339 255.332  11
  -5   0  10 888.583 218.540  15
  -5   0  10 349.081 191.753  21
  -5   0  10 294.302 204.049  23
  -5   0   9 858.615 304.003  18
  -5   0   9 629.049 251.769  11
  -5   0   9 608.505 197.458  15
  -5   0   9 492.151 168.502  21
  -5   0   9 768.315 239.349  23
  -5   0   8 3453.31 416.703  11
  -5   0   8 2126.12 571.081  18
  -5   0   8 2818.34 365.347  23
  -5   0   7 39328.9 2135.02  11
  -5   0   7 44022.6 2173.98  12
  -5   0   7 35611.8 2412.70  32
  -5   0   7 39016.7 2099.17  23
  -5   0   7 39472.3 2110.47  25
  -5   0   6 64983.8 3058.08  12
  -5   0   6 61418.0 3465.98  32
  -5   0   6 57554.5 2935.62  36
  -5   0   5 8599.76 560.101  36
   5   0  -5 8047.09 943.044   1
  -5   0   4 42875.8 2145.88  36
   5   0  -4 45646.6 2785.53   1
   5   0  -3 9097.79 1007.36   1
  -5   0   2 32582.9 1680.06  36
   5   0  -2 36079.4 2306.69   1
  -5   0   1 11119.9 677.418  36
  -5   0   0 41896.9 2104.92  36
   5   0   0 44645.4 2744.80   1
  -5   0  -1 82291.3 4248.59  32
  -5   0  -1 76238.9 3673.52  36
   5   0   1 73375.4 4306.74   1
  -5   0  -2 7123.23 804.631  32
  -5   0  -2 6899.25 494.201  36
   5   0   2 7665.99 879.966   2
   5   0   3 9584.15 968.994   2
   5   0   4 14075.2 931.796  33
   5   0   4 14858.4 1639.92  35
   5   0   4 16472.5 1013.11   9
   5   0   5 1830.72 269.985  33
   5   0   5 2694.46 700.275  35
   5   0   5 2016.53 324.428   9
   5   0   6 8831.94 609.534   9
  -5   0  -6 6259.78 550.340   5
   5   0   6 7429.54 584.402  33
   5   0   6 7857.95 1202.24  35
   5   0   7 5587.92 490.714  33
   5   0   7 6836.35 507.682  19
   5   0   8 3225.45 364.495  22
   5   0   8 4643.21 448.816  20
   5   0   9 3706.04 347.659  20
  -5  -1  13 8449.21 600.923  17
  -5  -1  13 11181.7 693.865  16
  -5  -1  12 7590.00 625.933  23
  -5  -1  12 6367.87 552.816  21
  -5  -1  11 1385.19 278.415  16
  -5  -1  11 1237.32 252.877  15
  -5  -1  11 1367.72 241.041  21
  -5  -1  11 1434.12 279.585  23
  -5  -1  10 6747.31 614.979  16
  -5  -1  10 6901.59 650.950  11
  -5  -1  10 7401.37 607.849  15
  -5  -1  10 5961.35 526.543  21
  -5  -1  10 6654.64 596.215  23
  -5  -1   9 13593.8 941.832  16
  -5  -1   9 13529.4 964.550  11
  -5  -1   9 13502.7 909.256  15
  -5  -1   9 12900.6 900.164  23
  -5  -1   9 12349.9 817.696  21
  -5  -1   8 6544.15 585.136  11
  -5  -1   8 6732.38 557.510  23
  -5  -1   7 4028.62 408.098  11
   5   1  -7 3343.57 586.341   2
  -5  -1   7 3652.49 326.874  36
  -5  -1   7 3257.22 361.860  23
  -5  -1   7 3775.70 390.990  25
   5   1  -6 10409.9 1058.01   2
  -5  -1   6 9261.32 602.747  36
  -5  -1   6 9348.32 665.472  25
  -5  -1   5 54543.7 2684.75  36
   5   1  -5 58128.1 3363.62   2
  -5  -1   4 33190.7 1684.88  36
   5   1  -3 17786.3 1522.98   1
  -5  -1   2 73981.7 3536.48  36
  -5  -1   1 31277.0 1600.56  36
  -5  -1   0 1741.68 218.281  36
   5   1   0 1521.07 445.270   2
  -5  -1  -1 687.770 152.739  36
   5   1   1 1234.72 369.620   2
  -5  -1  -1 722.113 189.346   5
  -5  -1  -2 13944.0 1227.25  32
   5   1   2 15361.0 1471.51  35
   5   1   2 12940.1 1266.68   2
  -5  -1  -2 15307.3 916.110   5
   5   1   3 73955.7 4452.16  35
   5   1   3 70951.3 3594.75   9
  -5  -1  -3 70560.6 3497.11   5
   5   1   4 14102.8 1567.92  35
  -5  -1  -4 11918.1 825.647   5
   5   1   4 13592.8 916.040   9
  -5  -1  -5 15370.1 1030.51   5
   5   1   5 21469.7 1174.13   9
   5   1   6 15893.4 999.922   9
   5   1   7 562.689 227.993  20
   5   1   7 795.582 249.078  22
   5   1   8 1383.03 235.921  20
   5   1   8 1100.07 199.451  22
   5   1   9 547.751 127.465  20
  -5  -2  14 6407.62 458.158  16
  -5  -2  13 4233.35 412.309  16
  -5  -2  12 2635.17 353.277  16
  -5  -2  12 2508.15 327.979  21
  -5  -2  11 2894.51 401.027  16
  -5  -2  11 3107.11 387.226  23
  -5  -2  11 2923.28 366.414  21
  -5  -2  10 12440.5 892.552  16
  -5  -2  10 11646.9 846.009  23
  -5  -2  10 11861.9 803.132  21
  -5  -2   9 9253.87 746.144  11
  -5  -2   9 9410.97 732.647  16
  -5  -2   9 8619.11 681.725  23
  -5  -2   8 5056.73 504.665  11
  -5  -2   8 4698.77 386.491  36
  -5  -2   8 5367.26 461.690  23
  -5  -2   7 142.609 158.196  11
   5   2  -7 264.254 244.384   2
  -5  -2   7 119.376 109.939  36
  -5  -2   7 228.153 117.717  23
   5   2  -6 5031.54 762.743   2
  -5  -2   6 4849.31 375.083  36
  -5  -2   6 4075.10 403.872  25
   5   2  -5 77618.7 4486.97   2
  -5  -2   5 79143.4 3769.73  36
   5   2  -4 3480.93 629.625   2
   5   2  -3 50005.1 3130.39   2
  -5  -2   3 49322.2 2425.98  36
  -5  -2   2 13112.1 771.183  36
   5   2  -1 73702.9 4234.88   2
  -5  -2   1 72260.5 3479.48  36
  -5  -2   0 37578.3 1991.95   5
   5   2   0 37686.2 2592.79   2
  -5  -2   0 39363.1 1945.83  36
   5   2   1 10120.4 1107.06   2
  -5  -2  -1 9311.63 681.616   5
  -5  -2  -1 10158.4 639.908  36
   5   2   1 10281.3 1097.05  35
   5   2   2 17222.7 1107.30   9
   5   2   2 15995.7 1457.85   2
  -5  -2  -2 16367.5 1010.98   5
   5   2   2 15504.6 1507.67  35
   5   2   3 1459.36 315.254   9
  -5  -2  -3 1573.63 262.147   5
   5   2   3 974.362 419.283  35
   5   2   4 11153.4 840.236   9
   5   2   5 20984.3 1210.92   9
   5   2   5 17961.3 1109.35  28
   5   2   5 17586.8 1193.63  20
   5   2   6 7601.34 575.341   9
   5   2   6 5542.47 565.357  20
   5   2   7 16595.9 924.324   9
   5   2   7 16359.5 991.369  20
   5   2   7 14902.7 980.562  22
   5   2   8 7575.99 480.989  20
   5   2   8 5800.47 435.474  22
  -5  -3  14 3705.64 322.575  16
  -5  -3  13 504.860 185.182  16
  -5  -3  13-14.0037 152.952  21
  -5  -3  12 10260.7 746.836  15
  -5  -3  12 10419.0 760.464  16
  -5  -3  12 10122.3 717.950  21
  -5  -3  11 17944.3 1101.09  15
  -5  -3  11 16965.5 1089.06  16
  -5  -3  11 15187.5 1017.51  21
  -5  -3  10 6774.77 604.049  16
  -5  -3  10 6925.67 603.209  15
  -5  -3  10 6774.68 570.018  23
  -5  -3   9 3388.39 397.050  16
  -5  -3   9 2680.09 326.000  23
   5   3  -8 285.517 277.578   2
  -5  -3   8 501.360 136.855  36
   5   3  -7 8745.62 656.556   3
  -5  -3   7 10291.8 637.023  36
   5   3  -6 11123.7 1225.88   2
  -5  -3   6 10777.0 732.545   5
   5   3  -6 10405.9 727.850   3
  -5  -3   6 11564.7 694.832  36
  -5  -3   5 11592.9 771.030   5
   5   3  -5 14436.9 1385.91   2
  -5  -3   5 11846.9 1174.02  34
  -5  -3   5 12363.0 740.371  36
   5   3  -4 18218.8 1635.51   2
  -5  -3   3 24679.7 1911.99  34
  -5  -3   3 26737.0 1393.85  36
   5   3  -2 11998.1 1240.20   2
  -5  -3   2 9932.74 685.155   5
  -5  -3   2 9252.51 1035.89  34
  -5  -3   2 10197.4 646.189  36
  -5  -3   1 4070.77 393.505   5
   5   3  -1 3802.55 395.833   3
   5   3  -1 4796.32 781.080   2
  -5  -3   1 4191.88 358.842  36
   5   3   0 1752.90 268.700   3
  -5  -3   0 1301.09 249.450   5
   5   3   0 2028.02 502.563   2
  -5  -3   0 1882.64 237.802  36
   5   3   1 18331.7 1597.27   2
  -5  -3  -1 16720.9 1014.23   5
   5   3   1 15362.7 976.846   3
   5   3   1 17656.2 1110.80   9
  -5  -3  -1 16582.9 950.967  36
   5   3   1 14824.1 1401.39  35
  -5  -3  -2 8261.71 616.414   5
   5   3   2 7426.32 632.458  20
   5   3   3 19342.3 1223.84   9
   5   3   3 17362.1 1151.26  20
   5   3   4 12833.9 883.103   9
   5   3   4 10114.2 811.830  20
   5   3   5 4682.61 479.522   9
   5   3   5 4552.09 425.370  28
   5   3   5 4378.28 469.245  20
   5   3   6 1460.36 250.210   9
   5   3   6 1058.93 240.605  20
   5   3   6 909.811 253.291  22
   5   3   7 78.7613 123.507   9
   5   3   7 70.8329 131.733  20
   5   3   7 117.565 129.658  22
  -5  -4  14 760.393 155.259  16
  -5  -4  14 767.181 160.749  21
  -5  -4  13-49.5100 137.809  16
  -5  -4  13 186.899 157.695  21
  -5  -4  12 4409.39 442.263  15
  -5  -4  12 4180.87 429.204  16
  -5  -4  12 4471.54 438.371  21
  -5  -4  11 1344.81 265.805  16
  -5  -4  11 1464.43 280.675  15
  -5  -4  10 3532.60 394.740  16
  -5  -4  10 3018.07 388.314  15
  -5  -4   9 46295.9 2337.45  16
  -5  -4   9 42528.3 2201.96  36
   5   4  -8 8767.37 646.814   3
  -5  -4   8 9630.76 625.880  36
   5   4  -7 1123.50 221.075   3
   5   4  -7 1420.32 461.198   2
  -5  -4   7 1129.18 391.861  34
  -5  -4   7 1154.35 194.419  36
   5   4  -6 2523.78 618.483   2
   5   4  -6 2667.81 323.363   3
  -5  -4   6 2204.84 532.345  34
  -5  -4   6 2870.24 295.165  36
   5   4  -5 235.266 151.094   3
  -5  -4   5 481.860 178.028   5
   5   4  -5 336.286 340.852   2
   5   4  -4 1508.16 264.291   3
   5   4  -4 1847.25 533.707   2
  -5  -4   4 1672.34 261.883   5
  -5  -4   4 1943.45 482.186  34
  -5  -4   4 1539.38 222.617  36
  -5  -4   3 4542.73 425.835   5
  -5  -4   3 4978.04 768.846  34
  -5  -4   3 4922.83 408.485  36
   5   4  -2 28462.1 2222.74   2
   5   4  -2 24547.6 1461.54   3
  -5  -4   2 26593.4 1447.22   5
  -5  -4   2 25177.9 1994.67  34
  -5  -4   2 26116.9 1400.98  36
   5   4  -1 9974.68 766.869   7
   5   4  -1 11518.6 1301.41   2
  -5  -4   1 11752.4 763.858   5
   5   4  -1 10344.4 754.565   3
  -5  -4   1 11220.3 1209.87  34
  -5  -4   1 11926.3 723.588  36
  -5  -4   0 8220.98 600.585   5
   5   4   0 7148.18 588.685   7
   5   4   0 8280.81 607.813   3
   5   4   0 8074.05 678.904   9
  -5  -4   0 7984.09 563.419  36
   5   4   1 12984.7 937.975   9
  -5  -4  -1 11603.7 797.481   5
   5   4   2 3188.88 437.437   9
   5   4   2 2260.03 333.256  20
   5   4   3 7139.88 602.622  20
   5   4   4 7332.05 612.842  28
   5   4   4 7401.74 613.819  20
   5   4   4 8170.96 689.562  22
   5   4   5 18047.0 1082.32   9
   5   4   5 17753.3 1018.96  28
   5   4   5 17231.0 1049.57  20
   5   4   5 17415.8 1115.11  22
   5   4   6 18455.8 966.491   9
   5   4   6 14980.3 917.936  20
   5   4   7 1977.50 195.207  22
  -5  -5  14 6890.99 454.912  16
  -5  -5  14 8254.71 514.997  21
   5   5 -13 5711.29 427.199   6
  -5  -5  13 5544.37 433.848  16
  -5  -5  13 5764.37 468.149  21
  -5  -5  12 4916.27 450.034  15
  -5  -5  12 4596.76 420.507  16
  -5  -5  11 457.038 169.843  16
  -5  -5  11 637.496 192.151  15
  -5  -5  10 236.878 133.774  16
  -5  -5  10 435.036 188.239  15
  -5  -5  10 581.108 158.523   8
  -5  -5   9 251.825 140.020  16
  -5  -5   9 385.189 181.930  15
  -5  -5   9 151.377 124.348  36
   5   5  -8 174.498 141.633   3
  -5  -5   8-71.9029 168.192  34
  -5  -5   8 129.013 134.721  36
   5   5  -7 29876.3 1629.58   3
  -5  -5   7 24911.3 2137.40  34
  -5  -5   7 29659.4 1569.63  36
   5   5  -6 8689.97 653.218   3
  -5  -5   6 8197.73 1041.46  34
  -5  -5   6 8006.24 592.315  36
   5   5  -5 25078.8 2126.02   2
  -5  -5   5 21684.4 1308.68   5
   5   5  -5 23176.6 1342.96   3
  -5  -5   4 6744.21 545.491   5
  -5  -5   4 6538.65 944.186  34
  -5  -5   4 6179.56 505.403  36
   5   5  -3 1785.63 284.669   3
  -5  -5   3 1629.96 266.732   5
   5   5  -3 1139.74 464.683   2
  -5  -5   3 1837.06 254.400  36
   5   5  -2 293.067 173.874   3
   5   5  -2 391.912 186.083   7
   5   5  -2 379.251 212.564   9
  -5  -5   2 363.677 179.817   5
  -5  -5   2 455.177 320.245  34
  -5  -5   2 391.640 149.923  36
   5   5  -1 1784.23 279.688   3
   5   5  -1 1785.52 280.806   7
   5   5  -1 1683.77 332.652   9
  -5  -5   1 1806.20 277.265   5
  -5  -5   1 1335.39 440.854  34
  -5  -5   1 1780.45 246.490  36
   5   5   0 11081.0 773.656   7
   5   5   0 11688.3 875.624   9
   5   5   0 11134.2 770.819   3
  -5  -5   0 12386.6 760.651  36
   5   5   1 21018.1 1330.02   9
   5   5   2 24885.5 1424.41   9
   5   5   2 20948.5 1389.11  22
   5   5   3 1592.39 328.884   9
   5   5   3 1907.95 329.907  28
   5   5   3 2236.20 363.156  22
   5   5   3 1492.95 256.498  20
   5   5   4 172.157 173.184  28
   5   5   4 225.310 194.585  22
   5   5   4-57.4061 155.644  20
   5   5   5 196.134 144.618  22
   5   5   5 169.051 113.614  20
   5   5   6 1206.25 158.550   9
  -5  -6  14 7520.07 492.361  21
   5   6 -13 2634.15 265.346   6
  -5  -6  13 2386.71 287.642  21
   5   6 -12 14805.9 928.781   6
  -5  -6  11 34413.7 1890.13  15
  -5  -6  11 36392.3 1813.69   8
  -5  -6  10 32260.4 1788.80  15
   5   6 -10 30622.8 1776.74   7
  -5  -6  10 36066.5 1765.62   8
  -5  -6   9 1687.94 263.629  15
   5   6  -9 1501.06 288.782   7
   5   6  -9 1889.16 266.494   3
  -5  -6   9 1541.44 232.159  36
   5   6  -8 491.846 188.816   3
  -5  -6   8-78.4782 242.878  34
   5   6  -8 822.367 340.026  29
  -5  -6   8 87.0470 120.651  36
   5   6  -7 2001.51 313.693   3
  -5  -6   7 2292.73 559.353  34
  -5  -6   7 2465.28 301.069  36
   5   6  -6 516.357 185.498   3
  -5  -6   6 751.058 378.746  34
   5   6  -5 12744.2 896.504   7
   5   6  -5 11586.6 837.605   3
  -5  -6   5 12159.5 1365.59  34
  -5  -6   5 11769.4 797.143  36
   5   6  -4 1010.15 265.793   7
  -5  -6   4 676.374 385.157  34
  -5  -6   4 950.471 211.537  36
   5   6  -3 15625.0 1092.94   9
   5   6  -3 18701.9 1174.99   7
  -5  -6   3 17964.1 1105.22   5
   5   6  -3 19570.0 1153.79   3
  -5  -6   3 20880.0 1817.97  34
  -5  -6   3 18391.3 1085.67  36
   5   6  -2 17814.7 1095.02   7
  -5  -6   2 15762.5 1028.40   5
   5   6  -2 18090.8 1087.94   3
   5   6  -2 16691.7 1088.67   9
  -5  -6   2 15654.0 1600.34  34
  -5  -6   2 17894.6 1038.51  36
   5   6  -2 15468.2 1799.32  29
   5   6  -1 21637.0 1333.13   9
   5   6  -1 22748.2 1285.57   3
   5   6  -1 22780.2 1291.36   7
  -5  -6   1 19807.6 1823.87  34
   5   6  -1 17599.4 1988.29  29
  -5  -6   1 24080.1 1258.62  36
   5   6  -1 18967.9 1274.27  22
   5   6   0 4604.52 492.730   9
   5   6   0 3543.57 365.304   3
   5   6   0 4040.61 389.283   7
   5   6   0 4163.71 461.304  22
   5   6   1 190.577 229.904   9
   5   6   1 250.728 208.391  22
   5   6   2 22689.7 1333.44   9
   5   6   2 21325.3 1340.92  28
   5   6   2 22450.7 1332.68  22
   5   6   3 18.5846 181.842   9
   5   6   3 196.886 177.617  28
   5   6   3 55.2522 174.985  22
   5   6   4 2637.94 298.622   9
   5   6   4 2805.95 278.598  28
   5   6   4 2451.39 294.353  22
   5   6   5 5295.61 359.369  22
  -5  -7  14 4247.34 308.294  21
   5   7 -13 10258.5 632.702   6
   5   7 -12 9495.29 655.392   6
  -5  -7  11 378.020 135.922  15
   5   7 -11 405.456 171.711   6
  -5  -7  11 318.097 137.843   8
  -5  -7  10 12592.8 805.244  15
  -5  -7  10 12492.3 781.542  36
   5   7 -10 12969.3 842.822   7
   5   7 -10 12616.5 787.545   3
  -5  -7  10 14294.2 841.300   8
  -5  -7   9 35792.8 1817.04  36
   5   7  -9 33466.4 1875.86   7
   5   7  -9 33808.0 1830.24   3
  -5  -7   8 9996.95 1236.23  34
   5   7  -8 9358.50 1250.73  29
  -5  -7   8 10639.9 728.482  36
   5   7  -8 10798.3 804.221   7
   5   7  -8 11125.6 765.395   3
   5   7  -7 2774.72 741.964  29
  -5  -7   7 4310.67 779.515  34
  -5  -7   7 3780.58 387.709  36
   5   7  -7 3548.79 440.592   7
   5   7  -7 3917.11 416.049   3
   5   7  -6 21890.1 2201.08  29
   5   7  -6 23320.6 1423.43   7
   5   7  -6 23438.2 1386.92   3
  -5  -7   5 4562.50 842.348  34
   5   7  -5 4608.46 932.555  29
  -5  -7   5 5562.87 477.781  36
   5   7  -5 4814.00 501.111   3
   5   7  -4 909.198 481.924  29
  -5  -7   4 799.814 378.235  34
  -5  -7   4 1446.17 251.668  36
   5   7  -4 910.095 244.501   7
   5   7  -4 1362.84 278.339   3
  -5  -7   3 172.470 286.473  34
  -5  -7   3 650.492 198.166  36
   5   7  -3 535.886 226.281   7
   5   7  -3 806.277 219.308   9
   5   7  -3 478.315 188.771   3
   5   7  -2 9196.65 741.008   9
   5   7  -2 11918.5 778.838   3
   5   7  -2 10380.5 762.741   7
  -5  -7   2 12037.9 1270.02  34
   5   7  -2 9807.17 1299.99  29
  -5  -7   2 11673.2 741.418  36
   5   7  -1 14513.0 922.257   9
   5   7  -1 13920.5 860.814   3
   5   7  -1 13529.1 865.572   7
  -5  -7   1 14632.3 850.068  36
   5   7   0 4227.64 438.816   9
   5   7   0 2936.09 371.857  22
   5   7   1 6431.05 542.010   9
   5   7   1 7040.14 584.978  28
   5   7   1 5702.22 508.742  22
   5   7   2 3083.89 336.891   9
   5   7   2 2573.05 309.794  22
   5   7   3 5009.83 403.529   9
   5   7   3 5590.12 407.459  28
   5   7   3 4872.16 383.831  22
   5   8 -13 921.055 139.601   6
   5   8 -12 7313.41 515.854   6
  -5  -8  11 10021.4 631.651   8
  -5  -8  10 10508.5 667.909  36
   5   8 -10 11254.9 753.251   6
  -5  -8  10 10757.0 709.818   8
   5   8 -10 10734.5 702.524   7
  -5  -8   9 16118.3 931.736  36
   5   8  -9 14358.3 955.886   7
   5   8  -9 15912.0 944.596   3
   5   8  -9 15276.1 981.133   6
  -5  -8   8 610.245 179.759  36
   5   8  -8 303.348 188.715   7
   5   8  -8 339.317 157.550   6
   5   8  -8 327.281 167.871   3
  -5  -8   7 10697.8 720.704  36
   5   8  -7 10414.4 761.914   7
   5   8  -7 9863.54 726.509   3
   5   8  -7 9640.12 700.267   6
   5   8  -6 27557.5 1526.27   7
   5   8  -6 23580.5 1398.08   6
   5   8  -6 27300.0 1492.43   3
  -5  -8   5 8039.00 614.701  36
  -5  -8   4 11916.0 784.124  36
   5   8  -4 11632.3 803.602   3
   5   8  -4 11385.5 820.860   7
  -5  -8   3 658.465 173.211  36
   5   8  -3 611.174 208.354   7
   5   8  -3 658.777 179.830   3
   5   8  -2 3056.18 357.817   9
  -5  -8   2 4006.15 363.919  36
   5   8  -2 4035.68 378.778   3
   5   8  -1 3967.83 387.266   9
   5   8  -1 4147.46 361.101   7
   5   8  -1 4442.25 458.249  28
   5   8   0 858.919 211.348   9
   5   8   0 1121.62 253.682  28
   5   8   0 751.508 170.226  24
   5   8   1 1371.20 202.554   9
   5   8   1 1512.73 236.703  28
   5   8   1 1027.99 163.752  22
   5   8   2 66.8218 94.7330   9
   5   9 -13 346.059 73.4010   6
   5   9 -11 791.191 153.235   6
  -5  -9  11 751.049 144.684   8
   5   9 -10 6495.91 484.640   6
  -5  -9  10 7386.36 487.967   8
   5   9 -10 5521.71 438.084   7
  -5  -9  10 6708.03 442.158  36
   5   9  -9 4793.78 406.710   6
  -5  -9   9 5146.92 430.301   8
   5   9  -9 4534.06 409.292   7
  -5  -9   9 5179.15 397.530  36
   5   9  -8 39058.6 1977.09   3
   5   9  -8 33996.2 1927.87   6
   5   9  -8 40216.9 2008.59   7
  -5  -9   8 40114.0 1966.61  36
   5   9  -7 44450.2 2265.35   3
   5   9  -7 43650.1 2288.88   7
   5   9  -6 77.6438 172.981   7
   5   9  -6 233.247 171.851   3
  -5  -9   6 150.011 135.195  36
  -5  -9   5 701.257 174.532  36
   5   9  -4 3399.88 342.486   3
   5   9  -4 3484.56 359.816   7
  -5  -9   4 3430.52 337.156  36
   5   9  -4 3203.05 335.930  28
   5   9  -3 7735.64 561.141   7
  -5  -9   3 8838.70 558.117  36
   5   9  -3 7016.70 562.900  28
   5   9  -2 13932.8 797.562   7
   5   9  -2 13483.1 842.995  28
   5   9  -1 4267.37 372.662  28
   5   9  -1 3785.08 326.410  24
   5   9   0 7117.70 474.932  28
   5  10 -11 2890.22 236.410   6
  -5 -10  11 3320.83 238.283   8
   5  10 -10 338.416 90.7395   7
   5  10 -10 434.784 99.5880   6
  -5 -10  10 335.358 109.115   8
   5  10  -9 92.7721 98.0841   7
  -5 -10   9 159.576 93.4691  36
  -5 -10   8 31282.3 1601.54   8
   5  10  -8 30760.4 1603.71   7
  -5 -10   8 31376.9 1590.84  36
  -5 -10   7 15503.0 899.072   8
   5  10  -7 15699.3 910.435   7
   5  10  -6 3946.88 349.908   7
  -5 -10   6 3918.32 334.179  36
  -5 -10   5 6833.88 468.252  36
   5  10  -4 5357.01 388.177   7
  -5 -10   4 5087.22 366.823  36
   5  10  -3 660.815 124.864   7
  -5 -10   3 367.668 85.5875   8
   5  10  -3 314.354 108.606  28
   5  10  -3 542.381 138.012  24
   5  10  -2 14.7983 77.8622  24
  -5 -11   9 1738.48 157.470   8
   5  11  -8 110.866 67.1454   7
  -5 -11   8 141.568 76.1940   8
  -5 -11   7 1146.95 133.761   8
   5  11  -7 1321.75 151.060   7
   5  11  -6 65.6682 74.8844   7
  -5 -11   6 46.5868 53.8275   8
   5  11  -6 7.73305 85.3190  24
   5  11  -5 947.688 116.421   7
   5  11  -5 648.581 121.888  24
  -6  11   0 480.723 97.0210  26
  -6  11  -1 779.213 130.713  26
  -6  11  -3 3983.12 305.663  26
  -6  11  -4 16472.3 875.802  26
  -6  10   3 1047.89 174.724  12
  -6  10   3 1536.11 164.703  11
  -6  10   3 1112.22 148.836  13
  -6  10   2 5447.15 395.589  13
  -6  10   2 7752.19 472.997  26
  -6  10   1 2771.36 303.599  27
  -6  10   1 3242.52 304.654  26
  -6  10   0 7426.95 540.980  27
  -6  10  -1 9109.75 619.808  27
  -6  10  -1 9691.73 647.418  26
  -6  10  -2 1532.61 194.739  27
  -6  10  -2 1737.73 240.881  26
  -6  10  -3 368.970 142.234  26
  -6  10  -4 1401.82 212.189  26
  -6  10  -5 1078.80 178.159   4
  -6  10  -5 1113.47 172.786  26
  -6  10  -6 2957.59 252.211  10
  -6  10  -6 3295.64 271.715  26
  -6   9   5 3208.30 250.997  11
  -6   9   5 2233.39 262.772  13
  -6   9   4 6347.52 481.249  13
  -6   9   4 6652.83 503.843  12
  -6   9   3 1402.59 235.228  13
  -6   9   3 2139.62 268.947  26
  -6   9   2 1204.44 226.759  13
  -6   9   2 1641.29 263.054  27
  -6   9   1 652.641 187.146  13
  -6   9   1 1124.39 238.901  27
  -6   9   0 7653.35 596.482  23
  -6   9   0 8906.14 669.106  27
  -6   9  -1 4087.99 390.530  23
  -6   9  -1 3800.63 403.181  27
  -6   9  -1 4750.74 447.116  26
  -6   9  -2 8975.01 650.926   4
  -6   9  -2 8712.05 616.193  27
  -6   9  -2 8998.71 667.775  26
  -6   9  -3 11903.5 754.052  10
  -6   9  -4 10617.5 701.666   4
  -6   9  -4 8927.11 640.217  10
  -6   9  -5 582.674 182.662   4
  -6   9  -5 903.878 183.785  10
  -6   9  -6 82.1251 108.688   4
  -6   9  -6 180.882 124.697  10
  -6   9  -7 1404.94 198.418  10
  -6   8   7 1783.29 196.662  12
  -6   8   6 1009.86 181.121  11
  -6   8   6 805.817 184.218  13
  -6   8   5 387.917 183.749  12
  -6   8   5 226.541 182.332  13
  -6   8   4 12858.8 859.816  13
  -6   8   4 12625.0 813.109  23
  -6   8   4 15215.4 902.765  26
  -6   8   3 11488.4 814.382  13
  -6   8   3 13995.8 913.211  27
  -6   8   3 12010.5 802.518  23
  -6   8   2 25368.9 1487.62  13
  -6   8   2 29541.4 1606.70  27
  -6   8   2 28068.4 1523.91  23
  -6   8   2 26044.2 1451.65  25
  -6   8   1 24280.1 1478.25  13
  -6   8   1 28081.4 1554.86  23
  -6   8   1 30163.4 1612.97  27
  -6   8   1 28265.2 1588.70  26
  -6   8   0 561.761 150.806  10
  -6   8   0 586.630 204.529  27
  -6   8   0 775.296 231.497  26
  -6   8  -1 928.656 231.226   4
  -6   8  -1 575.139 176.292  10
  -6   8  -1 886.656 212.969  27
  -6   8  -2 372.784 165.399  10
  -6   8  -3 1058.52 246.699   4
  -6   8  -3 1002.58 218.872  10
  -6   8  -4 11271.9 790.104   4
  -6   8  -4 11031.4 774.413  10
  -6   8  -5 8617.10 642.894   4
  -6   8  -5 8334.64 631.554  10
  -6   8  -6 11925.7 779.626   4
  -6   8  -7 8320.70 565.565   4
  -6   8  -7 8476.46 584.484  10
  -6   8  -8 2484.85 255.803  10
  -6   7   8 3167.61 260.550  11
  -6   7   8 2911.97 275.614  12
  -6   7   7 6261.88 487.014  11
  -6   7   6 9907.74 738.967  11
  -6   7   6 10548.0 730.425  13
  -6   7   6 10636.0 691.800  23
  -6   7   5 11372.5 778.955  13
  -6   7   5 9604.44 725.592  23
  -6   7   5 11548.5 799.206  26
  -6   7   4 7041.10 597.637  13
  -6   7   4 7956.51 665.582  27
  -6   7   4 6463.74 575.042  23
  -6   7   3 4799.19 497.299  13
  -6   7   3 4909.54 533.890  27
  -6   7   3 5216.43 508.180  23
  -6   7   3 6267.29 559.207  26
  -6   7   3 4780.07 454.673  25
  -6   7   2 14818.2 986.404  13
  -6   7   2 16226.9 1046.37  23
  -6   7   2 15520.1 1058.76  27
  -6   7   2 18276.4 1087.63  26
  -6   7   1 5722.07 489.272  10
  -6   7   1 5239.73 491.028  13
  -6   7   1 6244.62 573.034  27
  -6   7   1 6072.58 560.208  26
  -6   7   0 4522.91 428.803  10
  -6   7   0 4139.28 448.639   4
  -6   7   0 4573.01 766.863  30
  -6   7   0 4174.28 452.500  27
  -6   7  -1 15946.7 1020.56  10
  -6   7  -1 14802.0 1809.90  37
  -6   7  -1 18157.6 1776.04  30
  -6   7  -1 16336.8 1030.50  27
  -6   7  -2 9667.08 701.977  10
  -6   7  -2 9211.79 1343.82  37
  -6   7  -2 7478.03 1221.58  30
  -6   7  -2 9046.87 712.859   4
  -6   7  -3 14603.9 938.971  10
  -6   7  -3 12372.0 1639.23  30
  -6   7  -3 13400.9 1677.82  37
   6  -7   3 11273.7 1421.27   1
  -6   7  -3 14307.4 945.470   4
  -6   7  -4 506.102 191.755   4
  -6   7  -4 1021.76 239.237  10
  -6   7  -5 3926.17 422.852   4
  -6   7  -6 6765.34 535.432   4
  -6   7  -6 6504.07 552.383  10
  -6   7  -7 5878.42 445.631   4
  -6   7  -7 6108.89 492.792  10
  -6   7  -8 10554.9 667.304  10
  -6   7  -9 3504.59 272.919  10
  -6   6   9 11434.7 680.332  11
  -6   6   8 3331.20 352.272  11
  -6   6   8 2765.68 339.892  12
  -6   6   8 3315.86 312.812  23
  -6   6   7 699.872 215.556  11
  -6   6   7 505.018 171.426  23
  -6   6   6 9039.69 703.252  13
  -6   6   6 9509.08 732.441  12
  -6   6   6 8717.06 685.117  23
  -6   6   5 7048.89 612.767  13
  -6   6   5 7413.83 612.177  23
  -6   6   5 6277.18 528.586  25
  -6   6   4 2956.66 391.569  13
  -6   6   4 2946.68 421.515  27
  -6   6   4 3526.29 422.037  23
  -6   6   4 3328.68 420.508  26
  -6   6   4 3018.12 365.778  25
  -6   6   3 3766.71 423.574  13
   6  -6  -3 3243.47 676.845   1
  -6   6   3 3440.74 441.239  27
  -6   6   3 3440.07 425.860  23
  -6   6   3 4142.25 448.289  26
  -6   6   2 13409.3 890.435  10
  -6   6   2 14214.9 927.158  13
   6  -6  -2 11810.0 1474.11   1
  -6   6   2 13725.8 1658.10  32
  -6   6   2 13606.3 968.860  27
  -6   6   2 15228.7 984.089  26
  -6   6   1 1072.70 220.108  10
  -6   6   1 986.769 224.594  13
  -6   6   1 1249.63 258.309   4
  -6   6   1 1603.02 431.831  30
  -6   6   1 770.681 466.335  32
  -6   6   1 741.117 214.594  27
  -6   6   1 921.573 227.314  26
  -6   6   0 1274.02 240.898  10
  -6   6   0 1528.33 272.413   4
  -6   6   0 2166.37 342.570  31
  -6   6   0 1035.36 472.848  37
  -6   6   0 1244.44 502.191  30
  -6   6   0 993.393 535.630  32
  -6   6   0 1113.71 233.405  27
  -6   6  -1 191.171 177.424  10
  -6   6  -1 209.937 274.472  37
  -6   6  -1-95.5087 273.573  30
  -6   6  -1 110.139 340.738  32
  -6   6  -2 2720.86 354.039  10
  -6   6  -2 2462.03 715.593  37
  -6   6  -2 2421.41 705.587  30
  -6   6  -2 2493.93 713.495  32
   6  -6   2 1593.39 546.851   1
  -6   6  -2 2086.82 317.568   4
  -6   6  -3 42426.6 3179.23  30
  -6   6  -3 44366.1 3284.69  37
   6  -6   3 34858.3 2907.50   1
  -6   6  -3 42112.9 2210.24   4
  -6   6  -4 6048.80 548.536  10
  -6   6  -4 5737.72 994.469  37
  -6   6  -4 5235.95 1035.64  30
   6  -6   4 5458.60 836.792   1
  -6   6  -4 6348.52 550.927   4
  -6   6  -5 19762.9 1189.47  10
  -6   6  -5 18514.1 1153.74   4
  -6   6  -6 3931.85 410.559  10
  -6   6  -6 3770.53 383.127   4
  -6   6  -7-17.5237 137.444  10
  -6   6  -8 998.656 192.550  10
   6  -6   8 1042.66 196.174  33
  -6   6  -9 448.801 101.910  10
  -6   5  10 1067.80 153.110  23
  -6   5   9 9234.71 644.130  11
  -6   5   9 7537.45 607.574  12
  -6   5   9 8245.03 587.891  23
  -6   5   8 18596.8 1162.66  11
  -6   5   8 17965.5 1108.17  13
  -6   5   8 17945.2 1111.73  23
  -6   5   7 12609.6 890.306  23
  -6   5   6 10162.1 742.375  13
  -6   5   6 8957.85 729.739  23
  -6   5   6 8165.83 656.791  25
  -6   5   5 6046.14 554.027  13
  -6   5   5 5601.24 585.809  27
  -6   5   5 5784.92 567.314  23
  -6   5   5 6177.42 576.262  26
  -6   5   5 5346.26 520.889  25
  -6   5   4 1058.27 265.756  13
   6  -5  -4 1232.68 409.503   1
  -6   5   4 519.721 201.553  31
  -6   5   4 1249.39 451.159  32
  -6   5   4 1034.95 257.867  23
  -6   5   4 996.732 253.017  27
  -6   5   4 1106.81 245.642  26
  -6   5   4 577.525 198.218  25
  -6   5   3 3855.89 393.427  10
  -6   5   3 3131.41 380.966  13
   6  -5  -3 2475.98 626.096   1
  -6   5   3 3978.41 428.181  31
  -6   5   3 2889.36 393.390  27
  -6   5   3 2756.08 734.738  32
  -6   5   3 3583.95 407.141  26
  -6   5   2 10856.9 749.235  10
  -6   5   2 10071.2 737.132  13
   6  -5  -2 10163.3 1277.84   1
  -6   5   2 13106.2 821.827  31
  -6   5   2 10489.0 1110.09  30
  -6   5   2 9838.64 1323.54  32
  -6   5   2 9438.68 765.780  27
  -6   5   2 10292.7 764.220  26
  -6   5   1 17774.2 1034.80  10
  -6   5   1 14879.3 966.672  13
   6  -5  -1 16911.6 1698.73   1
  -6   5   1 16816.1 1041.35   4
  -6   5   1 15748.3 1566.71  30
  -6   5   1 15461.8 1017.55  27
  -6   5   0 22898.6 1396.10  10
  -6   5   0 27900.1 1476.05  31
  -6   5   0 23933.0 2053.98  30
  -6   5   0 23447.6 2130.66  37
  -6   5   0 23988.8 2198.28  32
  -6   5  -1 28839.8 1612.34  10
  -6   5  -1 31803.5 1650.41  31
  -6   5  -1 23223.3 2214.05  30
  -6   5  -1 29276.7 2400.08  37
  -6   5  -1 26286.6 2375.69  32
   6  -5   1 25784.6 2253.32   1
  -6   5  -1 28718.5 1612.48   4
  -6   5  -2 9742.58 729.257  31
  -6   5  -2 8139.89 1202.16  30
  -6   5  -2 9459.08 1276.88  37
  -6   5  -2 9198.45 1309.71  32
   6  -5   2 8240.75 1143.67   1
  -6   5  -2 9940.33 721.733   4
  -6   5  -3 7183.28 589.911  10
  -6   5  -3 7232.89 603.630  31
  -6   5  -3 5945.03 1007.42  32
  -6   5  -3 7388.52 587.382   4
  -6   5  -4-22.4999 162.219  10
  -6   5  -4 103.072 318.869  30
  -6   5  -4 83.2529 133.352   4
   6  -5   4 239.465 161.702   1
  -6   5  -5 12904.9 849.589  10
  -6   5  -5 10397.8 1456.68  30
  -6   5  -5 11034.8 789.374   4
  -6   5  -6 14697.8 952.931  10
  -6   5  -7 20192.6 1213.64  10
   6  -5   7 22653.1 1301.37  33
  -6   5  -8 5333.68 416.649  10
   6  -5   8 5402.79 464.263  33
  -6   5  -9 1675.21 214.535   5
  -6   4  10 4607.29 431.029  11
  -6   4  10 4292.81 404.333  23
  -6   4   9 802.061 259.536  12
  -6   4   9 737.253 205.747  23
  -6   4   8 1281.77 230.103  16
  -6   4   8 1524.88 305.383  13
  -6   4   8 1779.33 304.783  23
  -6   4   7 229.821 200.366  12
  -6   4   7 94.9021 140.473  16
  -6   4   7 186.994 182.212  23
  -6   4   7 64.2548 158.487  25
  -6   4   6 3431.29 410.757  16
  -6   4   6 4969.84 496.722  13
  -6   4   6 4795.87 499.805  12
  -6   4   6 4366.60 480.492  26
  -6   4   6 4343.50 462.356  25
  -6   4   5 56112.9 2633.59  13
   6  -4  -5 39620.0 3121.75   1
  -6   4   5 46193.7 2534.81  31
  -6   4   5 47115.6 3333.07  32
  -6   4   5 53009.7 2657.02  26
  -6   4   5 50849.1 2610.71  25
  -6   4   4 28538.7 1523.22  13
   6  -4  -4 21157.2 2027.62   1
  -6   4   4 26605.3 1493.22  31
  -6   4   4 26220.5 2214.42  32
  -6   4   4 24511.0 1543.35  27
  -6   4   4 27917.4 1549.91  26
  -6   4   3 4996.33 475.638  10
  -6   4   3 4987.40 478.551  13
   6  -4  -3 5373.87 887.992   1
  -6   4   3 6352.50 516.288  31
  -6   4   3 4568.23 489.470  27
  -6   4   3 6995.02 1003.36  32
  -6   4   3 5695.62 508.834  26
  -6   4   2 3944.62 395.850  10
  -6   4   2 2531.39 335.881  13
   6  -4  -2 2897.12 664.988   1
  -6   4   2 4316.24 405.225  27
  -6   4   2 4051.98 670.988  30
  -6   4   2 3157.34 709.871  32
  -6   4   2 4230.07 407.487  26
  -6   4   1 1786.37 264.065  10
  -6   4   1 1919.83 295.763  31
  -6   4   1 2098.22 566.036  37
  -6   4   1 1683.72 471.150  30
  -6   4   1 1776.82 565.551  32
   6  -4  -1 1451.97 487.806   1
  -6   4   0 9922.91 719.000  10
  -6   4   0 8468.90 1126.52  30
  -6   4   0 9898.57 1170.95  37
  -6   4   0 9356.26 1208.30  32
  -6   4   0 11922.9 756.993  31
  -6   4   0 9802.54 718.378   4
  -6   4  -1 24904.1 1318.39  31
  -6   4  -1 20586.9 1899.01  30
  -6   4  -1 25858.0 2028.91  37
  -6   4  -1 20228.8 1923.58  32
   6  -4   1 18178.9 1813.47   1
  -6   4  -1 20927.5 1279.22   4
  -6   4  -2 13130.9 855.623  10
  -6   4  -2 13051.5 852.485  31
  -6   4  -2 12674.8 1410.47  32
   6  -4   2 10983.2 1316.90   1
  -6   4  -2 11857.9 835.283   4
  -6   4  -3 2233.91 316.257  10
  -6   4  -3 2337.05 312.426  31
  -6   4  -3 2244.90 608.053  30
  -6   4  -3 2226.00 575.815  32
   6  -4   3 1997.77 577.844   1
  -6   4  -3 2456.47 314.482   4
  -6   4  -4 671.595 207.709  10
  -6   4  -4 882.329 473.449  30
  -6   4  -4 555.591 172.913   4
  -6   4  -5 765.205 210.002  10
  -6   4  -5 297.135 367.383  30
  -6   4  -6 5520.65 496.335  10
  -6   4  -7 47.6703 135.343  10
   6  -4   7 192.071 159.846  33
   6  -4   8 3640.05 368.946  33
  -6   4  -9 5210.34 376.199   5
  -6   3  11 6901.75 523.878  23
  -6   3  10 7201.37 538.505  16
  -6   3   9 8241.42 632.008  16
  -6   3   8 2083.91 322.647  16
  -6   3   8 1904.63 348.134  11
  -6   3   8 1693.36 314.399  13
  -6   3   7 22761.9 1400.55  16
  -6   3   7 24791.6 1444.79  12
  -6   3   7 24346.9 1453.37  23
  -6   3   7 21932.6 1380.95  25
  -6   3   6 7392.00 636.372  13
  -6   3   6 8560.96 674.310  12
  -6   3   6 6732.09 553.923  31
  -6   3   6 7496.56 962.607  32
  -6   3   6 7502.37 662.624  23
  -6   3   6 7859.46 656.892  26
  -6   3   6 8562.81 664.417  25
  -6   3   5 105.009 188.617  13
   6  -3  -5 76.1351 235.521   1
  -6   3   5-35.6335 142.819  31
  -6   3   5 77.2024 238.822  32
  -6   3   5-24.4834 154.162  23
  -6   3   5 115.394 150.245  26
  -6   3   5-22.5771 151.646  25
  -6   3   4 61.4983 124.555  10
  -6   3   4 38.6064 151.411  13
   6  -3  -4 76.0028 307.833   1
  -6   3   4 17.7513 134.519  31
  -6   3   4 76.6014 297.050  32
  -6   3   4 113.131 154.266  23
  -6   3   4-20.7283 137.110  26
  -6   3   3 20692.7 1236.04  10
  -6   3   3 20334.8 1214.65  13
   6  -3  -3 24099.8 1899.46   1
  -6   3   3 18524.5 1542.01  30
  -6   3   3 18942.8 1231.65  27
  -6   3   3 22532.4 1863.22  32
  -6   3   3 26141.1 1262.87  31
  -6   3   3 20354.1 1220.60  26
   6  -3  -2 26105.3 2062.52   1
  -6   3   2 26971.2 1449.45  10
  -6   3   2 25744.9 1407.15  13
  -6   3   2 24411.5 1407.18  26
   6  -3  -1 10939.0 1223.23   1
  -6   3   1 13000.8 1318.76  32
  -6   3   1 11141.8 1135.16  37
  -6   3   1 12058.0 747.116  31
  -6   3   1 9433.65 681.169  26
  -6   3   0 15656.8 986.994  10
  -6   3   0 16283.2 1472.19  37
  -6   3   0 18877.4 1640.70  32
  -6   3   0 17773.6 999.818  31
   6  -3   0 14083.3 1474.55   1
  -6   3   0 15091.1 984.896   4
  -6   3  -1 2281.03 288.170  10
  -6   3  -1 1930.88 280.303  31
  -6   3  -1 2244.02 520.001  37
  -6   3  -1 1818.70 501.577  32
  -6   3  -1 1834.66 265.227   4
   6  -3   1 1913.82 514.378   1
  -6   3  -2 214.435 153.650  10
  -6   3  -2 424.798 182.230  31
  -6   3  -2 229.329 283.043  32
  -6   3  -2 348.658 149.422   4
   6  -3   2 847.716 403.245   1
  -6   3  -3 10892.8 742.792  10
  -6   3  -3 10671.5 708.908  31
  -6   3  -3 9698.53 1268.55  30
  -6   3  -3 9336.75 1147.66  32
   6  -3   3 8248.52 1092.18   1
  -6   3  -3 9461.22 690.753   4
  -6   3  -4 877.242 211.144  10
  -6   3  -4 559.097 394.525  30
  -6   3  -5 25027.1 1401.11  10
  -6   3  -5 20734.5 2064.22  30
  -6   3  -6 20178.6 1203.36  10
   6  -3   6 22317.9 1305.02  33
   6  -3   7 6157.31 529.386  33
   6  -3   8 4543.47 395.722  33
  -6   3  -8 3952.75 376.234   5
  -6   3  -9 406.615 100.731   5
  -6   2  12 7498.31 488.844  16
  -6   2  11 1479.97 238.182  16
  -6   2  11 1820.51 282.452  23
  -6   2  10 7390.70 623.182  16
  -6   2  10 8557.06 680.710  23
  -6   2   9 840.937 242.909  16
  -6   2   9 838.689 189.822  15
  -6   2   9 1316.26 303.717  11
  -6   2   9 1604.03 311.376  23
  -6   2   8 1283.12 278.204  16
  -6   2   8 1268.03 226.486  15
  -6   2   8 1974.26 359.388  11
  -6   2   8 1720.90 338.264  12
  -6   2   8 1538.91 310.457  23
  -6   2   8 1739.87 297.395  25
  -6   2   7 36822.0 1989.59  11
  -6   2   7 35079.4 1942.94  12
  -6   2   7 34475.4 1941.06  23
  -6   2   7 32339.8 1900.45  25
  -6   2   6 47661.7 2274.46  13
  -6   2   6 47327.7 2288.51  12
   6  -2  -6 37378.7 2783.01   1
  -6   2   6 35108.3 2695.04  32
  -6   2   6 39167.5 2137.86  31
  -6   2   6 42901.5 2274.03  23
  -6   2   6 40439.3 2244.13  25
  -6   2   5 79616.3 3617.89  13
  -6   2   5 75910.0 3608.13  12
   6  -2  -5 63701.4 4218.23   1
  -6   2   5 64559.3 4161.06  32
  -6   2   5 72280.3 3536.75  31
  -6   2   5 71626.0 3626.27  23
  -6   2   5 68650.5 3589.96  26
  -6   2   4 7958.02 617.880  10
  -6   2   4 8350.92 612.146  13
  -6   2   4 7911.31 598.566  12
   6  -2  -4 9303.53 1082.85   1
  -6   2   4 6922.94 962.054  32
  -6   2   4 7514.58 587.458  26
  -6   2   3 1268.79 230.796  10
  -6   2   3 971.972 203.570  13
  -6   2   3 675.356 373.434  32
   6  -2  -3 1161.90 443.762   1
  -6   2   2 871.917 368.716  32
   6  -2  -2 360.248 304.821   1
  -6   2   1 8152.97 597.028  10
  -6   2   1 7863.87 849.045  37
  -6   2   1 8344.34 1017.20  32
  -6   2   1 7801.86 556.601   5
  -6   2   0 29567.7 1595.31  10
  -6   2   0 26253.6 1941.75  37
  -6   2   0 32338.1 2240.92  32
   6  -2   0 30607.5 2272.65   1
  -6   2  -1 9244.10 693.272  10
  -6   2  -1 10761.2 1186.22  32
  -6   2  -1 11469.4 709.999  31
   6  -2   1 11154.4 1231.20   1
  -6   2  -2 33438.3 1814.82  10
  -6   2  -2 33106.3 2404.08  32
  -6   2  -2 35167.8 1791.85  31
   6  -2   2 31503.6 2415.81   1
  -6   2  -3 47869.4 2413.51  10
   6  -2   3 42845.4 3014.94   1
  -6   2  -4 37.4773 136.833  10
  -6   2  -5 2590.77 326.911  10
   6  -2   5 3820.52 400.669  33
  -6   2  -5 3480.14 665.855  30
   6  -2   5 2233.31 700.726  35
   6  -2   6 5781.94 509.315  33
  -6   2  -7 1818.49 278.731   5
   6  -2   7 2424.55 290.869  33
  -6   2  -8 5254.61 394.786   5
   6  -2   9 1280.35 191.258  20
  -6   1  13 206.139 95.7278  16
  -6   1  12 5469.59 447.081  16
  -6   1  12 5539.19 468.099  23
  -6   1  11 25940.5 1465.54  16
  -6   1  11 24943.2 1480.38  23
  -6   1  10 21349.2 1356.33  11
  -6   1  10 20660.3 1211.79  15
  -6   1  10 20420.2 1293.55  16
  -6   1  10 20962.5 1302.74  23
  -6   1   9 11026.6 830.006  16
  -6   1   9 10088.3 841.300  11
  -6   1   9 10158.5 749.515  15
  -6   1   9 11200.5 828.602  23
  -6   1   8 46585.8 2516.07  11
  -6   1   8 47171.2 2506.11  12
  -6   1   8 44735.5 2464.27  23
  -6   1   8 46390.3 2472.58  25
  -6   1   7 7540.13 641.675  11
  -6   1   7 7959.09 643.350  12
  -6   1   7 6111.34 829.203  32
  -6   1   7 6522.97 504.534  31
  -6   1   7 6701.75 599.112  23
  -6   1   7 7479.65 627.197  25
  -6   1   6 34170.1 1842.48  12
   6  -1  -6 29895.7 2395.92   1
  -6   1   6 33600.8 2346.61  32
  -6   1   6 33237.6 1830.20  23
  -6   1   5 13069.1 843.697  12
   6  -1  -5 12774.7 1341.10   1
  -6   1   5 11451.4 1217.39  32
  -6   1   5 12478.1 796.575  36
  -6   1   5 12206.7 831.320  23
  -6   1   5 12125.9 821.446  26
  -6   1   5 12854.3 853.362  25
   6  -1  -4 7791.79 989.719   1
  -6   1   4 7727.06 933.668  32
  -6   1   4 6814.54 522.067  36
  -6   1   4 6044.16 523.150  23
  -6   1   3 55698.1 2825.64  10
   6  -1  -3 57569.1 3536.59   1
  -6   1   2 13191.3 873.783  10
  -6   1   2 15505.9 1390.27  32
  -6   1   2 14919.3 875.883  36
   6  -1  -2 13497.1 1401.94   1
  -6   1   1 16308.6 1000.33  10
  -6   1   1 18171.5 1527.61  32
  -6   1   1 17430.2 996.638  36
  -6   1   1 16252.3 978.372   5
  -6   1   0 236.740 132.773  10
  -6   1   0 128.979 261.269  32
  -6   1   0 64.8002 124.359  36
   6  -1   0 73.8803 244.399   1
  -6   1  -1 5874.73 476.580  10
  -6   1  -1 5400.61 808.333  32
   6  -1   1 5836.30 883.530   1
  -6   1  -2 7373.72 568.169  10
  -6   1  -2 8071.14 957.669  32
   6  -1   2 6977.28 974.443   1
  -6   1  -3 518.954 167.216  10
   6  -1   4 9051.29 688.033   9
   6  -1   4 8754.99 655.883  33
   6  -1   4 8927.18 1301.86  35
   6  -1   5 13833.9 857.038   9
   6  -1   5 12698.6 855.706  33
  -6   1  -5 10780.2 1278.79  30
   6  -1   5 13529.0 1648.79  35
  -6   1  -6 5982.82 508.485   5
   6  -1   6 5868.10 498.139  33
  -6   1  -7 3657.63 348.300   5
   6  -1   8 539.386 185.678  20
   6  -1   9 1064.54 143.911  20
  -6   0  13 7244.24 508.807  16
  -6   0  12 275.530 163.189  23
  -6   0  11 114.379 137.635  15
  -6   0  11 311.840 196.492  23
  -6   0  10 5784.72 591.893  11
  -6   0  10 5058.41 494.332  15
  -6   0  10 6033.33 563.257  23
  -6   0   9 4769.25 538.747  11
  -6   0   9 4371.96 462.535  15
  -6   0   9 4804.64 493.397  23
  -6   0   8 21578.7 1340.32  11
  -6   0   8 20683.5 1331.05  12
  -6   0   8 20928.7 1289.91  23
  -6   0   7 26816.5 1584.02  11
  -6   0   7 30822.5 1632.35  12
   6   0  -7 25969.4 2080.58   2
  -6   0   7 25148.6 1973.98  32
  -6   0   7 26721.9 1555.26  23
  -6   0   6 36898.3 1980.33  11
  -6   0   6 39666.1 2016.11  12
  -6   0   6 38141.7 2525.91  32
  -6   0   6 36002.2 1911.19  36
  -6   0   6 35369.2 1963.90  23
  -6   0   6 36465.6 1991.22  25
  -6   0   5 4213.98 421.041  12
  -6   0   5 4449.07 393.142  36
  -6   0   5 3302.63 637.821  32
  -6   0   5 4264.76 408.186  23
  -6   0   5 4132.52 414.239  25
   6   0  -4 8318.49 1078.51   1
  -6   0   4 8405.43 584.562  36
  -6   0   4 7976.47 602.100  25
  -6   0   3 1238.44 225.926  10
   6   0  -3 994.619 432.386   1
  -6   0   2 19466.3 1161.96  10
  -6   0   2 21392.7 1154.99  36
  -6   0   2 19433.9 1142.47   5
  -6   0   1 42703.5 2283.38  10
  -6   0   1 46390.0 2275.89  36
   6   0  -1 47175.7 3082.94   1
  -6   0   0 37817.3 2016.52  10
  -6   0   0 38799.1 2617.42  32
  -6   0   0 40707.5 2019.57  36
   6   0   0 39488.2 2754.07   1
  -6   0   0 38464.6 2030.99   5
  -6   0  -1 32193.4 1780.01  10
  -6   0  -1 36807.9 1834.62   5
   6   0   1 33716.7 2448.77   2
  -6   0  -1 32468.6 2344.74  32
  -6   0  -1 33788.6 1780.79  36
  -6   0  -2 5905.55 502.928   5
   6   0   2 6102.20 860.171   2
  -6   0  -2 4308.63 734.854  32
   6   0   3 1110.26 281.272   9
  -6   0  -3 626.353 219.508   5
   6   0   3 711.004 445.817  35
   6   0   4 67.7314 214.885   9
  -6   0  -4 485.575 208.025   5
   6   0   4 433.262 400.710  35
   6   0   5 78.1349 186.984   9
  -6   0  -5 93.6150 154.842   5
  -6   0  -6 2193.01 283.839   5
   6   0   7 9823.77 702.879  20
   6   0   8 9636.45 618.123  20
  -6  -1  13 5194.28 435.853  16
  -6  -1  12 8953.73 668.374  16
  -6  -1  12 8427.81 648.122  23
  -6  -1  11 13429.3 927.578  15
  -6  -1  11 15223.9 999.418  16
  -6  -1  11 14105.8 961.125  23
  -6  -1  10 19983.9 1265.28  16
  -6  -1  10 19405.4 1283.82  11
  -6  -1  10 19389.0 1212.84  15
  -6  -1  10 18894.7 1215.11  23
  -6  -1   9 10543.9 835.179  11
  -6  -1   9 10550.2 784.978  23
  -6  -1   8 9154.92 717.169  11
  -6  -1   8 8484.94 958.839  32
  -6  -1   8 7822.12 584.403  36
  -6  -1   8 8993.21 671.987  23
  -6  -1   7 699.729 196.743  11
   6   1  -7 695.811 363.088   2
  -6  -1   7 511.202 309.821  32
  -6  -1   7 779.347 188.889  36
  -6  -1   7 650.291 184.417  23
  -6  -1   7 997.336 246.302  25
  -6  -1   6 14081.1 920.554  11
  -6  -1   6 15197.2 898.810   5
   6   1  -6 13147.7 1425.90   2
  -6  -1   6 14705.8 887.005  36
  -6  -1   6 13954.6 895.390  23
  -6  -1   6 14608.6 947.556  25
  -6  -1   5 65556.1 3338.40   5
   6   1  -5 70647.3 4197.75   2
  -6  -1   5 72505.4 3348.71  36
  -6  -1   5 65974.2 3378.19  25
  -6  -1   4 104779. 4966.28   5
   6   1  -4 106087. 5838.91   2
  -6  -1   4 101979. 4968.49  25
  -6  -1   3 31488.5 1622.43  36
  -6  -1   3 29326.1 1625.16   5
  -6  -1   2 8962.69 664.463  10
  -6  -1   2 9735.43 647.632  36
  -6  -1   1 2630.84 308.888  10
   6   1  -1 2821.57 619.731   2
  -6  -1   1 2567.86 314.033   5
  -6  -1   1 2750.43 309.703  36
  -6  -1   0 12306.0 818.695   5
  -6  -1   0 13170.0 799.645  36
   6   1   1 7216.65 975.871   2
  -6  -1  -1 6480.33 538.699   5
  -6  -1  -1 5914.39 844.121  32
  -6  -1  -1 5937.74 486.730  36
  -6  -1  -2 67106.0 3126.49   5
   6   1   2 59340.7 3938.34  35
   6   1   3 34207.2 1966.66   9
  -6  -1  -3 35476.3 1884.23   5
   6   1   3 31044.6 2656.53  35
   6   1   4 1111.76 285.612   9
  -6  -1  -4 614.444 200.174   5
   6   1   4 810.741 337.014  35
   6   1   5 519.997 200.430   9
  -6  -1  -5 241.041 164.571   5
   6   1   6 1443.98 272.337  20
   6   1   7 373.387 161.124  20
   6   1   7 240.085 159.842  22
   6   1   8 685.886 121.859  20
  -6  -2  14 835.764 141.201  16
  -6  -2  13 214.792 147.444  16
  -6  -2  12 623.155 219.831  16
  -6  -2  12 1160.42 224.203  15
  -6  -2  11 5151.89 507.749  16
  -6  -2  11 4680.08 464.510  23
  -6  -2  11 4147.85 388.588  21
  -6  -2  10 5898.53 554.130  16
  -6  -2  10 5271.40 488.125  23
  -6  -2   9 12522.7 858.688  23
  -6  -2   8 23329.2 1409.99  11
   6   2  -8 25535.3 2025.03   2
  -6  -2   8 22550.6 1294.81  36
  -6  -2   8 24144.6 1350.39  23
  -6  -2   7 9411.69 697.860  11
   6   2  -7 9224.71 1147.08   2
   6   2  -7 9049.95 686.278   3
  -6  -2   7 9092.27 644.669  36
   6   2  -6 507.359 344.194   2
  -6  -2   6 558.674 196.534   5
  -6  -2   6 776.718 187.476  36
  -6  -2   6 1087.07 225.015  25
  -6  -2   5 7937.40 581.292   5
   6   2  -5 7648.40 1066.90   2
  -6  -2   5 7252.47 544.411  36
  -6  -2   5 6906.91 563.439  25
  -6  -2   4 33588.3 1830.74   5
   6   2  -4 38861.8 2696.58   2
  -6  -2   3 41514.7 2125.27  36
  -6  -2   2 27077.3 1502.70   5
   6   2  -2 28154.1 2233.27   2
  -6  -2   2 26503.8 1456.45  36
   6   2  -1 51608.3 3531.79   2
  -6  -2   1 55335.6 2778.33   5
  -6  -2   1 54408.9 2724.59  36
   6   2   0 14876.6 1588.61   2
  -6  -2   0 19015.1 1096.37   5
  -6  -2   0 17113.9 1026.54  36
   6   2   0 15093.9 1444.94  35
   6   2   1 847.325 201.598   3
  -6  -2  -1 707.616 224.788   5
   6   2   1 1526.59 442.191   2
  -6  -2  -1 702.084 184.663  36
   6   2   1 962.640 314.369  35
   6   2   2 1368.30 341.334   9
  -6  -2  -2 1688.02 290.002   5
   6   2   2 1830.10 461.986  35
   6   2   3 1122.62 303.206   9
  -6  -2  -3 1084.09 246.756   5
   6   2   4 26946.4 1427.02   9
   6   2   4 25187.3 1386.21  20
   6   2   5 16209.8 957.807   9
   6   2   5 13423.3 931.539  20
   6   2   6 2528.32 273.664   9
   6   2   6 2545.43 295.705  20
   6   2   6 2094.65 314.328  22
   6   2   7 268.512 112.119  20
   6   2   7 280.979 128.592  22
  -6  -3  14 2651.98 252.815  16
  -6  -3  13 3660.03 360.699  16
  -6  -3  12 2284.68 314.819  15
  -6  -3  12 2575.79 329.874  16
  -6  -3  11 7886.12 635.068  16
  -6  -3  11 8016.67 638.801  15
  -6  -3  11 6234.32 518.833  21
  -6  -3  10 3425.42 419.599  16
  -6  -3  10 3909.56 443.267  15
  -6  -3  10 3077.88 362.461  23
  -6  -3   9 562.227 147.643  36
   6   3  -8 8117.40 1130.54   2
   6   3  -8 8843.87 671.663   3
  -6  -3   8 10018.1 673.223  36
   6   3  -7 12667.3 1459.86   2
   6   3  -7 12610.3 885.218   3
  -6  -3   7 14001.1 853.524  36
   6   3  -6 35518.2 2664.73   2
  -6  -3   6 33790.5 1841.26   5
   6   3  -6 33670.4 1862.65   3
  -6  -3   6 33922.8 1790.84  36
   6   3  -5 18367.1 1741.82   2
   6   3  -5 15091.9 1023.81   3
   6   3  -4 13175.0 1452.50   2
   6   3  -4 9880.87 791.903   3
  -6  -3   4 11606.6 737.932  36
  -6  -3   3 25779.2 1459.08   5
  -6  -3   3 25209.7 1403.28  36
   6   3  -2 634.208 207.050   3
  -6  -3   2 941.739 230.464   5
   6   3  -2 370.272 326.268   2
  -6  -3   2 720.713 199.173  36
   6   3  -1 21288.7 1948.07   2
  -6  -3   1 22366.3 1262.03   5
   6   3  -1 18840.5 1243.68   3
  -6  -3   1 20883.3 1192.26  36
   6   3   0 7920.85 1114.69   2
  -6  -3   0 8512.90 652.454   5
   6   3   0 7831.57 623.563   3
  -6  -3   0 7418.69 583.210  36
   6   3   1 30276.8 1722.60   3
  -6  -3  -1 34640.3 1800.17   5
  -6  -3  -2 20582.7 1233.90   5
   6   3   3 4295.85 491.277   9
   6   3   3 3273.18 397.548  20
   6   3   4 5354.93 500.380   9
   6   3   4 4469.59 439.887  28
   6   3   4 4958.87 452.923  20
   6   3   5 667.527 208.154   9
   6   3   5 438.655 165.179  20
   6   3   6 3230.56 261.037   9
   6   3   6 1803.27 217.962  20
  -6  -4  14 253.338 94.1321  16
   6   4 -13 194.834 95.3847   6
  -6  -4  13 333.147 131.639  16
  -6  -4  12 6961.57 537.585  15
  -6  -4  12 6297.20 507.371  16
  -6  -4  11 8546.35 670.700  15
  -6  -4  11 8355.00 653.430  16
  -6  -4  10 8899.47 694.266  16
  -6  -4  10 8789.43 709.991  15
  -6  -4   9 7526.61 570.223  36
   6   4  -8 1061.40 228.388   3
  -6  -4   8 969.238 205.744  36
   6   4  -7 783.250 230.301   3
   6   4  -7 492.424 383.221   2
  -6  -4   7 694.668 180.747  36
   6   4  -6 438.983 185.603   3
   6   4  -6 604.449 390.847   2
  -6  -4   6 125.737 142.969  36
   6   4  -5 7842.31 1154.31   2
  -6  -4   5 7765.07 647.193   5
   6   4  -5 9058.98 696.348   3
  -6  -4   4 27367.6 1599.31   5
  -6  -4   4 29503.0 1567.61  36
   6   4  -3 26559.6 2363.15   2
   6   4  -3 25931.6 1574.93   3
  -6  -4   3 26454.9 1537.58   5
  -6  -4   3 28284.3 1497.08  36
  -6  -4   2 30630.8 1733.88   5
   6   4  -2 31695.5 2609.10   2
   6   4  -2 30223.4 1760.64   3
  -6  -4   2 32494.4 1695.15  36
   6   4  -1 7606.08 652.223   7
   6   4  -1 8353.47 1212.63   2
  -6  -4   1 7738.33 646.271   5
   6   4  -1 8822.49 674.118   3
  -6  -4   1 9075.22 636.866  36
  -6  -4   0 4480.14 442.375   5
   6   4   0 4091.56 415.513   3
   6   4   0 4396.44 520.329   9
  -6  -4   0 3165.88 367.021  36
   6   4   1 4320.41 510.668   9
  -6  -4  -1 3217.03 390.430   5
   6   4   3 16210.6 1104.64  22
   6   4   4 10615.9 690.450   9
   6   4   4 10173.9 632.536  28
   6   4   4 9366.04 699.007  22
   6   4   5 10197.2 630.378   9
   6   4   5 9200.38 648.323  22
   6   5 -13 1735.73 211.170   6
  -6  -5  13 1497.11 195.189  16
  -6  -5  12 901.904 194.265  16
  -6  -5  12 1158.23 218.508  15
  -6  -5  12 1317.11 215.017  21
  -6  -5  11 1414.31 232.777  16
  -6  -5  11 1199.09 240.761  15
   6   5 -11 992.078 216.586   7
  -6  -5  10 211.480 145.794  16
  -6  -5  10 45.4723 145.719  15
  -6  -5   9 98.6246 130.470  16
   6   5  -9 37.8527 125.189   3
  -6  -5   9-16.9860 117.505  36
   6   5  -8 5462.65 509.056   3
  -6  -5   8 6236.09 504.222  36
   6   5  -7 44039.3 2403.73   3
  -6  -5   7 46716.1 2349.84  36
   6   5  -6 28719.1 2443.08   2
   6   5  -6 27470.6 1574.49   3
  -6  -5   6 22752.0 2100.66  34
   6   5  -5 857.204 237.860   3
  -6  -5   5 505.968 223.577   5
   6   5  -5 877.234 445.043   2
  -6  -5   5 686.133 348.549  34
  -6  -5   5 519.770 186.443  36
  -6  -5   4 1183.64 262.365   5
  -6  -5   4 1546.12 494.286  34
  -6  -5   4 867.739 213.221  36
   6   5  -3 10401.6 782.458   3
   6   5  -3 9421.57 771.241   7
  -6  -5   3 9803.78 746.681   5
  -6  -5   3 10763.9 722.764  36
   6   5  -2 4688.79 497.570   7
  -6  -5   2 5663.68 517.020   5
   6   5  -2 4365.48 523.168   9
   6   5  -2 5195.98 508.285   3
  -6  -5   2 5515.28 475.382  36
   6   5  -1 2268.08 305.770   7
   6   5  -1 2487.33 383.292   9
   6   5  -1 2331.34 314.629   3
  -6  -5   1 1438.14 280.382   5
  -6  -5   1 1846.07 268.798  36
   6   5   0 15454.8 982.817   3
  -6  -5   0 15448.7 999.519   5
   6   5   1 22718.3 1336.51   9
   6   5   1 19624.7 1292.99  22
   6   5   2 5791.39 541.233   9
   6   5   2 5064.16 525.250  22
   6   5   3 1294.67 276.139   9
   6   5   3 1348.83 249.207  28
   6   5   3 1548.98 284.859  22
   6   5   4 9.37826 115.547  28
   6   5   4 120.592 139.264  22
   6   5   5 2557.30 211.896   9
   6   5   5 1913.76 201.714  22
   6   6 -13 4572.14 364.181   6
  -6  -6  12 761.409 173.607  15
  -6  -6  11 13017.4 807.068  15
   6   6 -11 11194.7 763.948   7
  -6  -6  10 18612.6 1080.27  15
  -6  -6  10 16273.2 1003.33  36
   6   6 -10 17192.5 1087.13   7
   6   6 -10 17259.9 1006.67   3
  -6  -6  10 18580.4 1033.40   8
  -6  -6   9 182.193 141.039  15
   6   6  -9 505.608 207.548   7
   6   6  -9 684.123 198.204   3
  -6  -6   9 339.876 150.954  36
   6   6  -8 389.683 177.672   3
  -6  -6   8 221.973 147.274  36
   6   6  -7 92.9500 163.106   3
  -6  -6   7 86.6364 202.663  34
  -6  -6   7 173.629 140.969  36
   6   6  -6 2321.52 348.463   3
   6   6  -6 2151.17 354.898   7
   6   6  -5 10028.0 760.534   3
  -6  -6   5 7633.60 1140.18  34
  -6  -6   5 9647.45 698.210  36
   6   6  -4 14311.5 1005.28   7
   6   6  -4 15703.0 988.977   3
   6   6  -4 11274.2 910.832   9
  -6  -6   4 12650.3 1473.82  34
  -6  -6   4 15879.5 940.429  36
   6   6  -3 11318.7 850.937   7
   6   6  -3 12346.6 845.790   3
   6   6  -3 10390.0 837.227   9
  -6  -6   3 12214.4 796.969  36
   6   6  -2 4233.02 449.414   7
   6   6  -2 4654.51 492.209   9
  -6  -6   2 4558.66 447.485   5
   6   6  -2 4726.81 460.636   3
   6   6  -2 4238.54 820.476  29
  -6  -6   2 5018.96 445.406  36
   6   6  -1 33.6295 124.539   7
   6   6  -1 234.982 207.544   9
   6   6  -1 391.081 154.300   3
  -6  -6   1 98.8789 118.986  36
   6   6  -1 173.755 170.566  22
   6   6   0 765.060 269.056   9
   6   6   0 706.063 229.414  22
   6   6   1 2815.07 359.508   9
   6   6   1 1856.62 304.308  22
   6   6   2 11891.8 736.382   9
   6   6   2 11241.7 723.811  28
   6   6   3 9299.80 585.119   9
   6   6   3 9772.60 564.426  28
   6   7 -13 329.227 100.312   6
   6   7 -12 193.091 115.527   6
  -6  -7  11 5194.14 385.733  15
   6   7 -11 4152.91 377.859   7
  -6  -7  10 769.610 166.592  15
  -6  -7  10 1044.53 187.086  36
   6   7 -10 1169.16 223.851   7
  -6  -7  10 1158.70 201.820   8
   6   7 -10 1183.09 191.404   3
  -6  -7   9 5749.65 460.756  36
   6   7  -9 5320.00 510.182   7
   6   7  -9 5562.83 479.499   3
  -6  -7   8 7908.95 576.799  36
   6   7  -8 8339.29 620.436   3
  -6  -7   7 6498.67 514.708  36
   6   7  -7 5192.19 550.845   7
   6   7  -7 5944.92 538.528   3
   6   7  -6 6656.27 617.071   7
   6   7  -6 6612.91 580.531   3
  -6  -7   5 1054.95 224.254  36
  -6  -7   4 1689.21 257.474  36
   6   7  -4 1292.92 276.804   7
   6   7  -4 1153.71 239.970   9
   6   7  -4 1294.44 259.959   3
  -6  -7   3 953.155 210.725  36
   6   7  -3 805.659 212.771   7
   6   7  -3 660.806 213.013   9
   6   7  -3 1047.36 231.622   3
   6   7  -2 6009.49 528.059   9
  -6  -7   2 6525.50 500.188  36
   6   7  -2 6128.55 503.217   3
   6   7  -2 6023.87 501.871   7
   6   7  -1 22321.8 1297.87   9
   6   7   0 10883.2 662.137   9
   6   7   0 6981.93 569.245  22
   6   7   1 554.073 170.942   9
   6   7   1 343.141 135.814  22
   6   7   2-89.5932 119.307   9
   6   7   2 59.6732 109.746  28
   6   7   2-119.786 86.4627  22
   6   8 -13 5638.79 364.709   6
   6   8 -12 13967.1 802.352   6
  -6  -8  11 3366.72 269.928   8
   6   8 -11 2263.90 242.375   7
  -6  -8  10 1028.52 167.420  36
   6   8 -10 1247.49 206.765   7
   6   8 -10 1375.46 219.282   6
  -6  -8  10 1541.51 211.015   8
   6   8 -10 1061.64 174.878   3
  -6  -8   9 302.873 130.359  36
   6   8  -9 326.061 171.387   7
   6   8  -9 171.642 132.418   6
   6   8  -9 570.011 156.684   3
  -6  -8   8 242.899 139.248  36
   6   8  -8 81.3075 174.739   7
   6   8  -8 66.5837 116.916   6
   6   8  -8 124.858 165.630   3
   6   8  -7 11986.0 802.401   7
   6   8  -7 12673.6 784.524   3
  -6  -8   6 6277.95 513.486  36
   6   8  -6 6928.16 557.439   3
  -6  -8   5 8926.34 646.480  36
   6   8  -5 9572.12 701.665   7
  -6  -8   4 5324.02 454.036  36
   6   8  -4 6181.83 493.031   3
   6   8  -4 5408.39 495.179   7
  -6  -8   3 5098.97 419.071  36
   6   8  -3 4965.92 412.437   3
   6   8  -3 4609.28 418.647   7
   6   8  -2 448.594 129.264   7
   6   8  -2 655.994 163.677   9
   6   8  -2 581.451 144.156   3
   6   8  -1-15.2643 157.621  28
   6   8  -1-11.2486 136.045   9
   6   8   0 7218.60 502.672   9
   6   8   0 9267.60 571.327  28
   6   8   1 1611.31 182.985  28
   6   9 -12 3008.51 232.784   6
   6   9 -11 5091.34 367.947   6
  -6  -9  11 5558.80 346.698   8
   6   9 -10 3832.22 315.017   6
  -6  -9  10 4358.36 323.350   8
   6   9 -10 3404.66 306.379   7
   6   9  -9 4798.69 389.369   6
  -6  -9   9 6293.95 435.075   8
   6   9  -9 5532.00 432.336   7
  -6  -9   9 5954.81 419.054  36
   6   9  -8 21447.9 1172.97   3
   6   9  -8 21480.3 1193.99   7
  -6  -9   8 20807.2 1157.69  36
   6   9  -7 913.136 192.365   7
   6   9  -7 1201.01 200.350   3
  -6  -9   6 124.719 105.155  36
   6   9  -5 2136.71 257.144   3
   6   9  -5 1893.14 257.717   7
  -6  -9   5 2129.29 240.767  36
   6   9  -4 8129.04 508.034   7
  -6  -9   4 7534.76 489.109  36
   6   9  -3 17562.3 890.409   7
   6   9  -3 14848.5 920.831  28
   6   9  -2 3137.69 280.554  28
   6   9  -2 2616.98 241.090  24
   6   9  -1 1566.28 175.175  28
  -6 -10  10 47.5233 59.7863   8
   6  10  -9 461.157 110.944   7
  -6 -10   8 9358.13 558.518   8
   6  10  -8 9087.07 561.888   7
  -6 -10   7 7175.92 456.046   8
   6  10  -7 6891.17 463.190   7
  -6 -10   6 7421.04 469.082   8
  -6 -10   5 1631.58 178.973   8
   6  10  -5 2093.13 194.363   7
   6  10  -4 317.748 105.090  24
  -7  10   0 1868.51 216.620  26
  -7  10  -1 1651.62 199.074  26
  -7  10  -2 1857.63 213.652  26
  -7  10  -3 186.072 85.3759  26
  -7  10  -4 3543.83 271.374  26
  -7   9   4 5121.92 357.675  11
  -7   9   4 3622.85 337.693  12
  -7   9   3 67.0223 130.639  12
  -7   9   2 424.651 149.515  26
  -7   9   1 2513.79 272.121  23
  -7   9   1 3134.95 320.721  26
  -7   9   0 9280.61 622.795  23
  -7   9   0 9708.28 660.768  26
  -7   9  -1 5189.60 429.093  23
  -7   9  -1 5606.75 460.134  26
  -7   9  -2 13375.1 828.015  26
  -7   9  -3 13269.8 792.980  10
  -7   9  -3 14095.8 825.949  26
  -7   9  -4 1077.33 178.291  10
  -7   9  -4 1245.93 177.107  26
  -7   9  -5 151.963 102.042  10
  -7   9  -5 102.883 79.2489  26
  -7   9  -6 1896.59 200.170  10
  -7   8   6 864.865 152.447  11
  -7   8   6 693.078 157.194  12
  -7   8   5 5274.04 442.025  12
  -7   8   4 15206.0 948.664  13
  -7   8   4 17455.6 992.859  12
  -7   8   4 16579.1 948.143  23
  -7   8   3 15305.4 884.482  23
  -7   8   3 16214.2 928.448  26
  -7   8   2 10008.6 685.175  23
  -7   8   2 11664.6 729.883  26
  -7   8   2 10461.5 646.952  25
  -7   8   1 5525.20 498.123  27
  -7   8   1 5663.34 506.625  23
  -7   8   1 6301.19 519.848  26
  -7   8   0 14.8381 112.436  10
  -7   8   0 50.0797 123.444  27
  -7   8   0-20.1085 154.173  26
  -7   8  -1 1011.50 201.106  10
  -7   8  -1 1287.16 236.975  26
  -7   8  -2 10376.1 710.736  10
  -7   8  -2 10762.6 732.073  26
  -7   8  -3 5391.69 464.072  10
  -7   8  -3 5919.37 478.633  26
  -7   8  -4 4764.18 422.614  10
  -7   8  -4 4665.74 392.735  26
  -7   8  -5 2564.48 248.238  26
  -7   8  -6 4837.91 362.255   5
  -7   8  -6 6092.44 427.859  10
  -7   8  -7 5946.42 396.500   5
  -7   8  -7 7793.34 453.809  10
  -7   7   7 2337.01 254.791  11
  -7   7   7 1657.64 244.941  12
  -7   7   7 1821.36 199.693  23
  -7   7   6 1851.56 285.449  12
  -7   7   6 1430.07 257.422  13
  -7   7   6 2045.58 249.719  23
  -7   7   5 4082.06 430.875  13
  -7   7   5 4703.21 461.480  12
  -7   7   5 4797.08 423.209  23
  -7   7   4 788.758 230.815  13
  -7   7   4 666.736 217.153  23
  -7   7   4 623.956 206.412  26
  -7   7   4 546.869 175.715  25
  -7   7   3 258.814 183.989  13
  -7   7   3 197.580 182.087  23
  -7   7   3 269.824 178.905  26
  -7   7   3 588.783 191.767  25
  -7   7   2 16251.9 1044.76  27
  -7   7   2 17234.9 1063.32  23
  -7   7   2 17806.2 1064.98  26
  -7   7   1 21617.7 1286.46  10
  -7   7   1 22716.9 1338.00  27
  -7   7   1 23748.1 1360.99  26
  -7   7   0 16541.8 1029.35  10
  -7   7   0 16559.6 1060.38  26
  -7   7  -1 3883.14 423.695  10
  -7   7  -1 4509.50 438.874  26
  -7   7  -2 510.330 196.085   4
  -7   7  -2 720.317 210.206  10
  -7   7  -3 2927.65 361.563   4
  -7   7  -3 3080.99 373.220  10
  -7   7  -4 362.777 169.345   4
  -7   7  -5 3547.68 371.399  10
  -7   7  -6 9447.79 640.025  10
  -7   7  -7 3544.75 321.105   5
  -7   7  -7 4421.58 344.738  10
  -7   6   9 209.604 97.8714  11
  -7   6   8 770.676 158.608  23
  -7   6   7 249.101 196.963  12
  -7   6   7 455.255 171.538  23
  -7   6   6 13670.6 936.538  13
  -7   6   6 15051.9 963.980  12
  -7   6   6 15084.9 954.586  23
  -7   6   5 11618.2 850.686  13
  -7   6   5 13161.1 890.049  12
  -7   6   5 13726.5 900.247  23
  -7   6   5 12893.2 890.590  26
  -7   6   5 11975.8 826.055  25
  -7   6   4 7069.56 648.237  13
  -7   6   4 9121.65 712.076  23
  -7   6   4 9371.14 711.856  26
  -7   6   4 8827.85 664.243  25
  -7   6   3 39987.2 2043.72  23
  -7   6   3 38869.6 2012.57  26
  -7   6   2 3212.45 370.315  10
  -7   6   2 2353.86 334.656  13
   7  -6  -2 2871.09 637.978   1
  -7   6   2 3344.86 398.766  27
  -7   6   2 3738.34 783.466  32
  -7   6   2 3396.80 393.743  26
   7  -6  -1 490.318 345.132   1
  -7   6   1 666.310 219.475  10
  -7   6   1 522.462 186.641  27
  -7   6   1 776.337 213.787  26
  -7   6   0 1915.76 305.402  10
  -7   6   0 2105.59 341.831  31
  -7   6   0 2253.74 534.326  30
  -7   6   0 2015.64 562.419  32
  -7   6   0 1752.91 285.079  26
  -7   6  -1 9606.53 702.344  10
  -7   6  -1 7519.66 583.932   5
   7  -6   1 7047.10 1195.72   1
  -7   6  -1 10224.8 732.804   4
  -7   6  -1 10599.4 1267.44  30
  -7   6  -1 9260.33 1195.94  37
  -7   6  -1 8836.39 1370.14  32
  -7   6  -1 9063.58 676.026  26
  -7   6  -2 37945.6 3227.69  30
  -7   6  -2 47785.0 2429.41   4
  -7   6  -3 9994.95 745.393   4
  -7   6  -4 2278.38 336.543  10
  -7   6  -4 2719.07 333.796   4
  -7   6  -5 4752.20 448.692  10
  -7   6  -6 654.775 191.815  10
  -7   6  -7 302.386 123.391  10
   7  -6   7 401.675 137.362  33
  -7   6  -8 1451.70 179.111   5
  -7   5  10 5633.39 371.999  23
  -7   5   9 13390.2 809.909  23
  -7   5   8 7512.18 611.276  12
  -7   5   8 8097.00 606.865  23
  -7   5   7 1657.40 321.222  12
  -7   5   7 2087.47 329.395  11
  -7   5   7 1954.12 317.278  13
  -7   5   7 1695.69 297.702  23
  -7   5   6 1660.44 332.422  12
  -7   5   6 1735.36 327.657  13
  -7   5   6 1911.71 293.687  25
  -7   5   5 1083.46 278.158  12
  -7   5   5 930.828 259.560  13
  -7   5   5 1384.20 280.611  26
  -7   5   5 1090.18 255.551  25
  -7   5   4 23348.3 1422.36  13
   7  -5  -4 20496.2 2066.77   1
  -7   5   4 25149.5 1437.72  31
  -7   5   4 18787.3 2080.83  32
  -7   5   4 26743.1 1479.19  26
  -7   5   4 24846.3 1448.88  25
  -7   5   3 13583.2 927.576  10
  -7   5   3 12746.0 919.710  13
   7  -5  -3 11296.5 1468.17   1
  -7   5   3 15819.2 990.524  31
  -7   5   3 12732.1 1571.14  32
  -7   5   3 15179.4 974.453  26
  -7   5   2 2977.63 352.731  10
  -7   5   2 1759.06 290.229  13
   7  -5  -2 2410.57 665.436   1
  -7   5   2 2638.76 726.973  32
  -7   5   2 2276.88 323.211  26
  -7   5   1 11817.4 868.729  10
   7  -5  -1 10045.6 1393.23   1
  -7   5   1 12494.7 1342.54  30
  -7   5   1 11108.6 1506.52  32
  -7   5   1 12709.3 872.171  26
  -7   5   0 16176.0 967.145  10
  -7   5   0 11868.9 813.462   5
  -7   5   0 15216.0 963.712  31
  -7   5   0 11807.5 1450.49  30
  -7   5   0 12617.8 1398.68  37
  -7   5   0 13416.5 1640.23  32
  -7   5   0 13056.2 881.289  26
  -7   5  -1 23112.8 1310.22  31
  -7   5  -1 18747.2 1949.28  30
  -7   5  -1 20689.9 1866.86  37
  -7   5  -1 20396.5 2068.39  32
   7  -5   1 16369.1 1878.11   1
  -7   5  -1 20923.2 1280.20   4
  -7   5  -2 992.568 255.633  10
  -7   5  -2 1454.96 284.871  31
  -7   5  -2 1440.40 425.089  37
  -7   5  -2 1198.02 512.167  30
  -7   5  -2 1728.85 507.860  32
  -7   5  -2 1368.95 267.864   4
   7  -5   2 1127.12 506.655   1
  -7   5  -3 18507.1 1159.39  10
  -7   5  -3 17079.0 1730.21  32
  -7   5  -3 18909.6 1153.89   4
  -7   5  -4 35059.6 1912.01  10
  -7   5  -5 14308.3 927.278  10
  -7   5  -6 9194.39 641.337  10
   7  -5   6 9088.38 666.246  33
  -7   5  -7 1498.93 200.607  10
  -7   5  -7 1427.63 227.833   5
   7  -5   7 1768.17 228.152  33
  -7   5  -8 190.793 97.1131   5
  -7   4  10 156.785 127.114  23
  -7   4   9 418.930 193.773  11
  -7   4   8 7521.53 628.035  11
  -7   4   8 5771.33 579.117  12
  -7   4   7 6624.70 570.384  16
  -7   4   7 7944.80 674.487  11
  -7   4   7 8161.86 678.173  12
  -7   4   7 8031.29 630.824  25
  -7   4   6 11372.6 824.363  13
  -7   4   6 11510.8 830.991  12
  -7   4   6 9435.78 716.871  31
  -7   4   6 10857.9 829.239  23
  -7   4   6 10839.7 803.765  25
  -7   4   5 923.551 252.267  12
  -7   4   5 626.690 230.772  13
   7  -4  -5 611.763 272.129   1
  -7   4   5 684.475 217.779  31
  -7   4   5 1018.79 360.493  32
  -7   4   5 613.534 229.176  23
  -7   4   5 672.978 218.350  26
  -7   4   5 562.382 218.066  25
  -7   4   4 2677.15 378.925  13
  -7   4   4 3229.12 390.966  12
   7  -4  -4 3015.90 697.547   1
  -7   4   4 2537.52 356.533  31
  -7   4   4 3446.45 754.796  32
  -7   4   4 3351.56 408.668  23
  -7   4   4 3217.49 388.779  26
  -7   4   3 1374.81 273.281  10
  -7   4   3 1342.60 276.075  13
   7  -4  -3 746.423 468.265   1
  -7   4   3 2496.11 337.327  31
  -7   4   3 1449.62 546.544  32
  -7   4   3 1714.60 292.663  26
  -7   4   2 635.070 204.610  10
   7  -4  -2 94.1431 311.930   1
  -7   4   2 885.734 376.669  30
  -7   4   2 388.353 163.235  26
  -7   4   1 2046.94 301.077  10
   7  -4  -1 1610.07 535.640   1
  -7   4   1 1325.50 227.715   5
  -7   4   1 2068.85 326.121  31
  -7   4   1 1292.14 504.499  30
  -7   4   1 968.322 498.416  32
  -7   4   1 1372.94 239.936  26
  -7   4   0 7079.70 571.250  31
  -7   4   0 5730.24 959.355  30
  -7   4   0 5919.70 1034.05  32
   7  -4   0 5690.72 968.597   1
  -7   4   0 4792.16 453.460   5
  -7   4  -1 41450.7 2171.71  10
  -7   4  -1 42830.5 2173.71  31
  -7   4  -1 35680.5 2888.78  30
  -7   4  -1 39350.7 3009.39  32
   7  -4   1 32887.0 2814.70   1
  -7   4  -2 12119.0 828.557  10
  -7   4  -2 11069.7 803.771  31
  -7   4  -2 10842.6 1364.84  32
   7  -4   2 9155.21 1291.55   1
  -7   4  -3 7567.77 621.929  10
  -7   4  -3 7455.59 588.060  31
  -7   4  -3 7391.02 1125.81  30
   7  -4   3 5886.90 891.562   1
  -7   4  -4 5377.25 503.388  10
  -7   4  -5 2264.52 302.264  10
  -7   4  -6 5570.98 458.453  10
   7  -4   6 5913.26 491.288  33
  -7   4  -7 5723.84 444.161   5
   7  -4   7 5323.76 429.784  33
  -7   4  -8 1935.59 207.069   5
  -7   3  10 12822.7 844.877  11
  -7   3  10 10905.3 730.165  16
  -7   3  10 13506.2 834.671  23
  -7   3   9 5949.04 582.818  11
  -7   3   9 6721.90 614.475  12
  -7   3   9 6462.52 534.820  16
  -7   3   9 7512.92 610.280  23
  -7   3   8 529.932 200.794  16
  -7   3   8 640.890 254.422  11
  -7   3   8 450.292 229.300  12
  -7   3   8 206.123 200.806  23
  -7   3   7 3396.30 428.407  11
  -7   3   7 2697.63 399.430  12
  -7   3   7 3162.03 414.490  23
  -7   3   7 3160.01 410.617  25
  -7   3   6 2582.53 374.304  12
  -7   3   6 2079.02 303.279  31
  -7   3   6 2932.92 589.803  32
  -7   3   6 2457.83 382.800  23
  -7   3   6 2486.17 361.477  25
  -7   3   5 891.397 230.847  12
   7  -3  -5 536.084 392.168   1
  -7   3   5 662.806 207.190  31
  -7   3   5 611.901 383.741  32
  -7   3   5 671.055 228.061  23
  -7   3   5 634.859 220.525  26
  -7   3   5 765.616 238.500  25
  -7   3   4 12478.0 889.300  10
  -7   3   4 11342.1 845.736  12
   7  -3  -4 11267.4 1412.52   1
  -7   3   4 11149.6 1381.85  32
  -7   3   4 14147.0 888.438  31
  -7   3   4 13687.3 923.785  23
  -7   3   4 13539.7 885.619  26
  -7   3   3 23777.9 1387.79  10
   7  -3  -3 21103.0 2040.12   1
  -7   3   3 23731.5 2073.53  32
  -7   3   3 26628.2 1391.69  31
  -7   3   3 23141.3 1342.76  26
  -7   3   2 34362.3 1830.81   5
   7  -3  -2 37357.2 2777.43   1
  -7   3   2 30081.6 2419.18  30
  -7   3   2 37006.7 1874.20  26
  -7   3   1 11376.5 799.270  10
  -7   3   1 10025.5 1299.56  32
  -7   3   1 12377.0 807.413  31
  -7   3   1 10454.7 735.755   5
  -7   3   0 6981.18 569.642  10
  -7   3   0 4093.18 873.406  32
  -7   3   0 7956.30 581.278  31
   7  -3   0 5531.50 963.901   1
  -7   3   0 5366.42 502.187   5
  -7   3  -1 15828.8 1020.45  10
  -7   3  -1 13001.6 1554.32  32
  -7   3  -1 16576.8 1011.85  31
   7  -3   1 13944.2 1574.97   1
  -7   3  -2 373.048 187.854  10
  -7   3  -2 334.903 170.439  31
  -7   3  -2 752.308 411.879  30
  -7   3  -2 778.329 303.999  32
   7  -3   2 445.698 233.905   1
  -7   3  -3 4843.38 460.103  10
  -7   3  -3 4195.97 410.659  31
  -7   3  -4 14229.3 933.311  10
  -7   3  -5 26627.9 1454.41  10
   7  -3   5 25710.1 1478.62  33
  -7   3  -6 10173.4 683.512   5
   7  -3   6 8681.84 638.511  33
  -7   3  -7 2802.62 300.371   5
  -7   3  -8 1086.01 138.633   5
  -7   2  12 1473.57 170.812  16
  -7   2  12 1856.56 213.656  23
  -7   2  11 593.991 159.145  16
  -7   2  11 942.029 207.572  23
  -7   2  10 3386.45 419.047  11
  -7   2  10 3182.50 360.658  16
  -7   2  10 3199.43 389.746  23
  -7   2   9 3673.43 417.577  16
  -7   2   9 4640.83 482.927  11
  -7   2   9 3230.89 336.830  15
  -7   2   9 3945.77 471.118  12
  -7   2   9 3301.55 422.069  23
  -7   2   8 9357.35 787.314  11
  -7   2   8 8801.63 675.733  15
  -7   2   8 11071.7 817.651  12
  -7   2   8 11672.8 820.754  23
  -7   2   8 9517.00 764.680  25
  -7   2   7 29167.0 1636.06  11
  -7   2   7 29906.8 1632.03  12
  -7   2   7 28832.9 1626.44  23
  -7   2   7 29202.4 1630.60  25
  -7   2   6 11492.2 846.454  12
  -7   2   6 11354.0 1300.30  32
  -7   2   6 11259.5 777.967  31
  -7   2   6 13196.5 892.820  23
  -7   2   5 3400.49 394.310  12
   7  -2  -5 2977.98 705.050   1
  -7   2   5 2384.34 600.263  32
  -7   2   5 3181.27 363.488  31
  -7   2   5 3351.76 402.828  23
  -7   2   5 2502.55 343.009  26
  -7   2   5 2932.89 391.574  25
  -7   2   4 873.833 246.523  10
  -7   2   4 866.542 208.577  12
   7  -2  -4 1175.72 437.475   1
  -7   2   4 723.258 203.501  31
  -7   2   4 412.401 349.567  32
  -7   2   4 970.129 231.272  23
  -7   2   4 692.298 176.429  26
   7  -2  -3 1083.54 463.191   1
  -7   2   3 1177.96 217.759   5
  -7   2   2 2906.75 357.202  10
  -7   2   2 2639.19 663.140  32
   7  -2  -2 2261.68 626.429   1
  -7   2   2 2113.88 288.133   5
  -7   2   1 33836.8 1815.40  10
  -7   2   1 33950.8 2550.19  32
   7  -2  -1 33445.1 2586.71   1
  -7   2   1 31726.4 1754.91   5
  -7   2   0 57454.9 2910.63  10
  -7   2   0 49835.6 3587.33  32
  -7   2   0 62105.8 2905.74  31
   7  -2   0 53816.5 3765.71   1
  -7   2   0 54876.3 2875.40   5
  -7   2  -1 1431.86 271.256  10
  -7   2  -1 1668.26 270.883  31
  -7   2  -1 1729.77 532.295  32
  -7   2  -1 1506.89 277.179   5
   7  -2   1 1893.36 572.140   1
  -7   2  -2 6377.31 547.421  10
  -7   2  -2 5881.25 904.607  32
  -7   2  -2 6450.90 530.018  31
   7  -2   2 6904.56 969.387   1
  -7   2  -3 537.319 194.015  10
   7  -2   3 1313.12 259.865   9
  -7   2  -4 714.116 190.346  10
  -7   2  -4 336.300 206.832   5
   7  -2   4 426.182 169.310  33
  -7   2  -5 2783.30 350.511   5
   7  -2   5 2654.14 301.704  33
  -7   2  -6 3618.28 374.984   5
  -7   2  -7 11562.1 694.550   5
   7  -2   8 1413.36 182.265  20
  -7   1  12 10230.9 652.222  16
  -7   1  12 10378.8 672.143  23
  -7   1  11 16611.0 1018.17  16
  -7   1  11 16511.8 1032.03  23
  -7   1  10 1726.16 296.027  16
  -7   1  10 1681.94 337.361  11
  -7   1  10 1530.51 235.834  15
  -7   1  10 1904.65 311.832  23
  -7   1   9 4938.63 529.945  16
  -7   1   9 5678.83 565.596  11
  -7   1   9 4574.43 459.208  15
  -7   1   9 6043.79 558.475  23
  -7   1   8 10912.7 836.074  11
  -7   1   8 10200.8 837.103  12
  -7   1   8 10913.7 821.278  23
  -7   1   8 10908.3 836.891  25
  -7   1   7 27740.9 1617.92  11
  -7   1   7 29659.5 1645.04  12
  -7   1   7 24967.3 2098.00  32
  -7   1   7 25344.5 1495.47  31
  -7   1   7 30566.7 1648.04  23
  -7   1   6 26403.3 1568.30  11
  -7   1   6 27813.9 1595.66  12
  -7   1   6 24836.2 2118.05  32
  -7   1   6 27407.5 1581.21  23
  -7   1   6 28817.1 1621.52  25
  -7   1   5 3971.93 442.316  12
   7  -1  -5 5690.28 937.616   1
  -7   1   5 4168.23 777.844  32
  -7   1   5 4210.02 446.393  23
  -7   1   5 4648.78 475.988  25
  -7   1   4 3156.94 352.443   5
   7  -1  -4 4034.75 818.779   1
  -7   1   4 3662.61 399.461  36
  -7   1   4 3783.93 738.173  32
  -7   1   4 3657.25 395.256  23
  -7   1   4 4022.76 423.004  25
  -7   1   3 1030.12 240.394  10
  -7   1   3 1071.99 215.251   5
   7  -1  -3 1003.03 442.136   1
  -7   1   2 86.0538 135.492  10
  -7   1   2-79.1783 333.799  32
  -7   1   2 59.4620 151.997  36
  -7   1   2 129.611 141.995   5
  -7   1   1 19086.9 1140.44  10
  -7   1   1 19466.9 1766.89  32
   7  -1  -1 15081.6 1706.56   1
  -7   1   1 18354.2 1110.63   5
  -7   1   0 7775.17 615.432  10
  -7   1   0 7144.05 1034.33  32
   7  -1   0 8120.47 1137.78   1
  -7   1  -1 1285.03 245.613  10
  -7   1  -1 1013.16 390.470  32
  -7   1  -2 6441.55 542.957  10
  -7   1  -2 6474.85 519.489  31
  -7   1  -2 7215.73 586.834   5
   7  -1   2 5537.16 839.275   2
  -7   1  -3 15210.6 984.342  10
   7  -1   3 17736.7 1086.07   9
  -7   1  -3 17372.3 1065.04   5
   7  -1   3 13941.7 1696.58  35
  -7   1  -4 29589.2 1673.24   5
   7  -1   4 30745.4 1659.02   9
  -7   1  -5 2270.30 311.612   5
  -7   1  -6 202.204 145.599   5
   7  -1   7 214.814 139.610  20
  -7   0  13 452.769 120.861  16
  -7   0  12 196.194 155.552  23
  -7   0  11 543.734 156.896  15
  -7   0  11 463.693 195.428  23
  -7   0  10 6639.90 630.900  11
  -7   0  10 7168.89 580.562  15
  -7   0  10 7002.52 602.728  23
  -7   0   9 34221.3 1950.41  11
  -7   0   9 35194.2 1907.94  15
  -7   0   9 33200.9 1900.85  23
  -7   0   8 19037.9 1171.68  11
  -7   0   8 15046.3 990.872  31
  -7   0   8 19074.6 1144.45  23
  -7   0   8 18329.6 1175.23  25
  -7   0   7 19486.8 1199.91  11
   7   0  -7 14882.4 1668.54   2
  -7   0   7 17411.2 1681.88  32
  -7   0   7 19648.1 1185.74  23
  -7   0   7 19489.6 1225.49  25
  -7   0   6 26576.0 1499.53  11
  -7   0   6 24861.7 1432.92   5
   7   0  -6 24158.4 2177.99   2
  -7   0   6 23778.9 2072.28  32
  -7   0   6 26105.7 1475.96  36
  -7   0   6 27380.6 1511.19  23
  -7   0   6 28342.2 1566.03  25
  -7   0   5 4335.84 428.042   5
  -7   0   5 4743.89 445.947  36
  -7   0   5 4661.39 787.315  32
  -7   0   5 4231.38 432.593  23
  -7   0   5 4904.00 474.243  25
  -7   0   4 5607.63 486.034   5
  -7   0   4 5412.73 473.596  23
  -7   0   4 5372.31 508.331  25
  -7   0   3 6873.59 592.161  10
  -7   0   3 7177.20 567.934   5
   7   0  -3 6435.77 1044.51   1
  -7   0   3 6043.96 930.375  32
  -7   0   3 7547.85 583.554  36
  -7   0   3 6616.35 552.910  25
  -7   0   2 20734.6 1278.70  10
  -7   0   2 20212.4 1845.04  32
  -7   0   2 23602.4 1281.87  36
  -7   0   2 20686.9 1255.94   5
  -7   0   1 1824.95 292.443  10
  -7   0   1 1728.57 550.208  32
  -7   0   1 1998.17 289.737  36
  -7   0   0 19.7876 136.975  10
  -7   0   0 77.6846 240.368  32
  -7   0   0 154.944 148.588  36
   7   0   0 355.584 344.760   2
  -7   0   0 209.843 190.120   5
  -7   0  -1 86427.2 4256.34  10
   7   0   1 71417.6 4993.49   2
  -7   0  -1 76858.2 4944.51  32
  -7   0  -2 32631.0 1760.84   5
   7   0   2 26572.9 2470.50  35
   7   0   3 4313.01 485.785   9
  -7   0  -3 4800.31 476.001   5
   7   0   3 4809.09 846.041  35
   7   0   4 16728.2 1017.70   9
  -7   0  -4 14878.1 986.312   5
  -7   0  -5 13261.8 838.967   5
  -7   0  -6 14584.5 829.655   5
   7   0   6 15858.7 914.526  20
   7   0   7 1497.15 176.619  20
   7   0   7 926.484 166.800  22
  -7  -1  13 11609.7 712.854  16
  -7  -1  12 27590.3 1460.97  15
  -7  -1  12 28111.4 1516.44  16
  -7  -1  12 25787.1 1469.47  23
  -7  -1  11 3259.74 403.610  16
  -7  -1  11 3277.35 369.890  15
  -7  -1  11 3746.42 398.804  23
  -7  -1  10 14953.0 998.403  16
  -7  -1  10 13733.1 926.361  15
  -7  -1  10 12012.8 880.394  23
  -7  -1   9 1365.65 303.715  11
  -7  -1   9 1598.14 289.221  23
  -7  -1   8 36128.8 1881.00  11
   7   1  -8 31536.4 1784.30   3
  -7  -1   8 29949.0 2360.90  32
  -7  -1   8 30391.5 1742.92  36
  -7  -1   8 35912.9 1839.03  23
  -7  -1   7 36875.9 1916.36  11
   7   1  -7 30998.4 2622.24   2
  -7  -1   7 33007.9 2506.76  32
  -7  -1   7 33267.5 1847.16  36
  -7  -1   7 35461.0 1880.58  23
  -7  -1   7 34949.1 1946.31  25
  -7  -1   6 7776.87 595.439   5
   7   1  -6 8139.28 1140.81   2
  -7  -1   6 6442.81 992.711  32
  -7  -1   6 6858.45 571.832  36
  -7  -1   6 7143.90 617.629  25
  -7  -1   5 35501.2 1899.32   5
   7   1  -5 33896.3 2750.23   2
  -7  -1   5 35611.4 1887.26  36
  -7  -1   5 34601.6 1919.43  25
  -7  -1   4 31209.2 1727.72   5
   7   1  -4 31752.7 2584.04   2
  -7  -1   4 31707.1 1734.84  25
  -7  -1   3 1229.61 263.919   5
  -7  -1   3 1040.17 240.652  36
  -7  -1   3 1444.80 246.666  25
  -7  -1   2 1083.61 235.241  36
   7   1  -2 1622.14 537.659   2
  -7  -1   1 19128.5 1188.37  10
  -7  -1   1 20460.7 1219.24   5
   7   1  -1 16358.2 1781.07   2
  -7  -1   1 20783.7 1857.78  32
  -7  -1   1 20867.0 1197.20  36
   7   1   0 23740.4 2208.15   2
  -7  -1   0 29970.6 1569.34   5
  -7  -1   0 25754.7 2142.85  32
  -7  -1   0 25452.0 1495.22  36
   7   1   1 1546.90 429.617   2
   7   1   1 1103.63 234.802   3
  -7  -1  -1 1549.79 288.532   5
  -7  -1  -1 782.714 220.673  36
   7   1   1 1858.89 466.428  35
   7   1   2 337.884 256.854   9
  -7  -1  -2 520.681 216.180   5
   7   1   3 11165.2 819.592   9
  -7  -1  -3 10244.3 749.647   5
  -7  -1  -4 6706.43 539.419   5
   7   1   4 7837.56 603.203   9
   7   1   4 6423.32 549.632  20
  -7  -1  -5 8995.12 603.748   5
   7   1   5 9190.82 653.106  20
   7   1   6 177.056 115.928  20
   7   1   6 13.2034 139.027  22
  -7  -2  14 83.7255 75.0823  16
  -7  -2  13 2860.77 295.349  16
  -7  -2  12 6447.18 527.078  15
  -7  -2  12 7549.36 573.856  16
  -7  -2  11 6044.53 551.099  16
  -7  -2  11 5692.87 496.708  23
  -7  -2  10 28338.6 1567.83  16
  -7  -2  10 23876.4 1440.31  23
  -7  -2   9 6343.23 505.843  36
   7   2  -8 4825.93 801.697   2
   7   2  -8 3991.30 423.849   3
  -7  -2   8 3363.41 386.391  36
  -7  -2   8 4586.39 739.337  32
   7   2  -7 559.543 193.454   3
  -7  -2   7 757.269 203.018  36
   7   2  -6 306.965 316.533   2
  -7  -2   6-21.6191 199.049   5
  -7  -2   6 219.676 173.185  36
  -7  -2   6-45.8347 158.543  25
   7   2  -5 4966.71 937.209   2
  -7  -2   5 5358.33 511.012   5
  -7  -2   5 5413.09 497.681  25
  -7  -2   4 15268.1 989.635   5
   7   2  -4 15315.2 1699.99   2
  -7  -2   4 14485.4 954.320  36
  -7  -2   3 32684.8 1780.05  36
   7   2  -2 16881.3 1849.60   2
  -7  -2   2 21011.7 1214.98   5
  -7  -2   2 18368.9 1153.05  36
   7   2  -1 14488.9 1627.42   2
  -7  -2   1 15304.9 961.368   5
   7   2  -1 11881.1 921.788   3
  -7  -2   1 13995.7 902.941  36
   7   2   0 742.814 219.278   3
  -7  -2   0 521.786 208.251   5
   7   2   0 1128.48 411.947   2
  -7  -2   0 539.339 312.784  32
  -7  -2   0 169.808 160.487  36
   7   2   1 970.638 214.061   3
   7   2   1 1012.21 310.042   9
  -7  -2  -1 993.018 261.858   5
   7   2   2 1838.87 355.843   9
  -7  -2  -2 2355.14 328.425   5
   7   2   3 493.340 236.233   9
  -7  -2  -3 136.775 159.058   5
   7   2   4 1559.38 261.884   9
   7   2   4 920.687 197.775  20
   7   2   5 6729.18 435.118   9
   7   2   5 4548.02 374.850  20
   7   2   6 4968.03 379.807  22
  -7  -3  14 1362.12 157.720  16
  -7  -3  13 3608.83 330.293  16
  -7  -3  12 1952.43 284.494  16
  -7  -3  12 2247.76 294.505  15
  -7  -3  11 4917.67 470.434  16
  -7  -3  11 4273.74 450.586  15
  -7  -3  10 786.433 248.723  16
  -7  -3  10 469.189 221.618  15
   7   3  -9 5655.93 478.160   3
  -7  -3   9 4865.62 457.837  36
   7   3  -8 18441.8 1908.93   2
   7   3  -8 21080.8 1264.83   3
  -7  -3   8 20738.5 1210.99  36
   7   3  -7 29039.1 2628.09   2
   7   3  -7 34049.8 1865.25   3
  -7  -3   7 33035.3 1794.10  36
   7   3  -6 40435.0 3141.60   2
  -7  -3   6 41301.6 2209.48   5
   7   3  -6 39382.8 2249.51   3
  -7  -3   6 42100.3 2171.03  36
   7   3  -5 14693.1 1716.72   2
   7   3  -5 13649.8 992.103   3
  -7  -3   4 1073.80 252.150  36
   7   3  -3 788.027 259.060   3
  -7  -3   3 1445.74 295.741   5
   7   3  -3 326.807 339.559   2
  -7  -3   3 977.230 222.741  36
   7   3  -2 11812.3 1512.29   2
  -7  -3   2 14570.0 940.618   5
   7   3  -2 12000.9 921.253   3
  -7  -3   2 13094.8 884.037  36
   7   3  -1 7186.09 665.108   7
  -7  -3   1 12060.0 791.038   5
   7   3  -1 9299.83 740.386   3
   7   3  -1 8966.43 1313.36   2
  -7  -3   1 10074.0 714.607  36
   7   3   0 19644.3 1896.65   2
   7   3   0 23327.5 1462.79   9
  -7  -3   0 24256.9 1354.14   5
   7   3   0 21696.7 1300.64   3
  -7  -3   0 20406.0 1267.18  36
  -7  -3  -1 40038.0 2133.08   5
   7   3   2 3238.13 425.314   9
  -7  -3  -2 2317.84 313.651   5
   7   3   3 19.8672 190.137   9
   7   3   4-58.0619 151.817   9
   7   3   4-50.8086 153.403  22
   7   3   5 779.959 134.078   9
   7   3   5 517.928 154.372  22
  -7  -4  13 5593.72 413.050  16
  -7  -4  12 11958.3 757.720  15
  -7  -4  12 10502.0 720.960  16
  -7  -4  11 12738.2 869.557  16
  -7  -4  11 14111.6 904.405  15
  -7  -4  10 2095.89 309.684  16
  -7  -4  10 1677.47 302.038  15
   7   4  -9 3748.99 387.286   3
  -7  -4   9 3306.96 369.229  36
   7   4  -8 274.745 179.857   3
   7   4  -8 207.423 171.783   2
  -7  -4   8 195.233 160.105  36
   7   4  -7 24.9231 169.968   3
  -7  -4   7 20.4046 147.126  36
   7   4  -6 25097.7 2401.14   2
   7   4  -6 26577.9 1586.35   3
   7   4  -5 43788.8 3400.96   2
  -7  -4   5 43850.1 2359.37   5
   7   4  -5 41848.5 2392.81   3
  -7  -4   5 44955.0 2302.78  36
  -7  -4   4 24636.6 1496.28   5
  -7  -4   4 25673.2 1456.95  36
   7   4  -3 11624.8 1571.96   2
  -7  -4   3 14081.8 940.170   5
   7   4  -3 12574.5 934.512   3
  -7  -4   3 12718.5 871.260  36
   7   4  -2 1775.67 314.611   3
   7   4  -2 1616.89 284.733   7
  -7  -4   2 1845.11 330.044   5
   7   4  -2 2477.93 647.027   2
  -7  -4   2 1575.84 267.156  36
   7   4  -1 85.7252 158.752   3
   7   4  -1 173.169 143.472   7
   7   4  -1 381.761 238.769   9
  -7  -4   1 296.183 199.561   5
  -7  -4   1 247.839 144.759  36
   7   4   0 3118.40 350.000   3
  -7  -4   0 4060.97 422.605   5
   7   4   0 4205.26 511.139   9
   7   4   1 3730.17 448.897   9
  -7  -4  -1 3080.33 352.887   5
   7   4   3 10755.3 697.144   9
   7   4   3 10502.6 646.798  28
   7   4   4 5617.81 392.393   9
   7   4   4 4838.07 401.930  22
   7   5 -13 381.268 109.327   6
  -7  -5  12 664.525 147.469  16
  -7  -5  12 884.043 184.481  15
  -7  -5  11 332.328 157.499  16
  -7  -5  11 320.319 160.892  15
   7   5 -11 205.242 147.504   7
  -7  -5  10 9176.20 646.456  16
  -7  -5  10 7946.77 586.590  36
  -7  -5   9 7957.34 622.564  16
   7   5  -9 9043.74 653.011   3
  -7  -5   9 8445.67 635.516  36
   7   5  -8 7383.00 587.912   3
  -7  -5   8 5435.83 509.904  36
   7   5  -7 20266.0 1245.75   3
  -7  -5   7 19351.8 1180.73  36
   7   5  -6 1950.19 333.676   3
   7   5  -5 2041.00 368.661   3
  -7  -5   5 2502.82 379.675   5
   7   5  -5 2352.16 681.020   2
  -7  -5   5 2093.07 311.179  36
   7   5  -4 606.908 228.774   3
   7   5  -4 532.485 233.186   7
  -7  -5   4 701.298 252.818   5
  -7  -5   4 607.323 206.711  36
   7   5  -3 31256.4 1765.95   7
  -7  -5   3 33015.7 1764.93   5
   7   5  -3 28930.1 1775.66   9
   7   5  -3 29705.0 1756.21   3
  -7  -5   3 31251.9 1708.48  36
   7   5  -2 18290.0 1238.15   7
   7   5  -2 22244.7 1366.64   9
   7   5  -2 22073.2 1293.01   3
  -7  -5   2 22796.0 1302.31   5
  -7  -5   2 21995.5 1262.40  36
   7   5  -1 3584.80 374.559   3
  -7  -5   1 3458.36 390.637   5
   7   5  -1 4551.35 491.818   9
  -7  -5   1 3134.37 356.617  36
  -7  -5   0 4705.79 423.162   5
   7   5   0 4700.20 488.329  22
   7   5   1 3005.15 370.536   9
   7   5   1 2210.35 325.756  22
   7   5   2 171.504 169.270   9
   7   5   2 380.285 163.249  28
   7   5   2 43.2289 149.993  22
   7   5   3 125.413 97.0173  28
   7   5   3 149.412 106.281  22
   7   6 -13 4863.40 357.385   6
  -7  -6  12 3933.76 332.790  15
  -7  -6  11 5087.36 408.591  15
   7   6 -11 4107.99 392.422   7
  -7  -6  10 674.370 181.597  15
  -7  -6  10 1004.37 169.696  36
   7   6 -10 734.105 216.419   7
   7   6 -10 546.588 151.148   3
  -7  -6   9 280.291 145.396  15
   7   6  -9 185.944 176.509   7
   7   6  -9 366.837 173.295   3
  -7  -6   9 218.290 133.672  36
   7   6  -8 2252.26 367.749   7
   7   6  -8 2568.88 331.315   3
  -7  -6   8 2344.01 305.244  36
   7   6  -7 4265.35 501.292   7
   7   6  -7 4442.81 469.376   3
  -7  -6   7 4680.78 441.280  36
   7   6  -6 14857.0 1006.91   3
   7   6  -5 18474.5 1136.61   7
  -7  -6   5 19235.3 1068.86  36
   7   6  -4 8015.28 693.415   7
   7   6  -4 9727.62 717.766   3
  -7  -6   4 9402.20 662.282  36
   7   6  -3 2375.33 327.042   7
   7   6  -3 1828.60 335.591   9
   7   6  -3 2018.53 308.756   3
  -7  -6   3 2339.00 305.530  36
   7   6  -2 2569.97 372.580   9
   7   6  -2 2065.90 289.386   3
   7   6  -2 2156.11 279.762   7
  -7  -6   2 2542.23 306.352  36
   7   6  -1 6082.00 534.358   9
   7   6   0 12141.4 718.892   9
   7   6   0 7460.91 616.117  22
   7   6   1 8066.89 509.207   9
   7   6   1 6924.78 496.349  28
   7   6   2 5253.49 354.568   9
   7   6   2 5035.35 332.507  28
   7   7 -13-7.36884 57.7962   6
   7   7 -12 1431.14 194.161   6
  -7  -7  11 2047.17 213.795  15
   7   7 -11 2351.84 253.561   7
  -7  -7  10 902.430 158.825  15
  -7  -7  10 1024.85 176.646  36
   7   7 -10 1265.62 237.354   7
  -7  -7  10 1473.80 197.905   8
   7   7 -10 1373.23 188.926   3
  -7  -7   9 6913.87 531.570  36
   7   7  -9 7359.95 592.117   7
   7   7  -9 7404.04 543.590   3
  -7  -7   8 8318.34 604.084  36
   7   7  -8 8108.61 656.457   7
   7   7  -8 8332.87 623.021   3
   7   7  -7 1790.24 304.174   7
   7   7  -7 1538.32 267.712   3
  -7  -7   6 198.436 144.979  36
   7   7  -6 289.498 192.186   3
  -7  -7   5 3006.50 344.474  36
   7   7  -5 3131.58 383.322   7
  -7  -7   4 10194.5 699.374  36
   7   7  -4 10841.9 730.713   7
   7   7  -4 11542.4 734.015   3
  -7  -7   3 1711.31 254.396  36
   7   7  -3 2149.65 271.989   3
   7   7  -3 1659.43 270.314   9
   7   7  -3 2414.12 275.521   7
   7   7  -2 8518.57 611.293   9
   7   7  -1 8324.34 578.025   9
   7   7   0 3258.20 300.973   9
   7   7   1 2519.96 225.948   9
   7   7   1 3097.88 245.010  28
   7   8 -11 738.604 126.828   7
   7   8 -11 845.079 144.947   6
   7   8 -10 1061.27 180.086   7
   7   8 -10 1191.99 178.133   6
  -7  -8  10 913.754 153.208   8
   7   8 -10 1196.50 159.905   3
   7   8  -9 6424.14 476.593   7
   7   8  -9 5867.08 434.273   3
   7   8  -9 5041.44 413.724   6
  -7  -8   9 5630.05 429.698  36
   7   8  -8 8957.32 639.400   7
   7   8  -8 8633.27 596.387   3
  -7  -8   8 8248.90 583.215  36
   7   8  -7 1922.34 288.848   7
   7   8  -7 2231.14 278.079   3
  -7  -8   6 747.570 170.451  36
   7   8  -5 3031.41 308.267   3
   7   8  -5 3057.61 315.222   7
   7   8  -4 3428.32 308.626   3
   7   8  -4 3022.15 298.037   7
  -7  -8   4 3052.52 304.316  36
   7   8  -3 628.388 127.418   3
   7   8  -2 429.787 143.143  28
   7   8  -1 2895.03 260.096  28
  -7  -9  10 2072.61 173.239   8
   7   9 -10 1981.60 187.706   7
  -7  -9   9 3166.17 253.453   8
   7   9  -9 2924.33 261.559   7
   7   9  -8 3123.89 274.029   3
   7   9  -8 2938.73 280.078   7
   7   9  -7 909.163 153.951   3
   7   9  -6 4083.75 330.686   7
   7   9  -5 2496.49 226.520   7
  -8   9   2 770.942 143.599  26
  -8   9   1 2312.25 231.415  23
  -8   9   1 3215.23 272.461  26
  -8   9   0 7604.81 501.950  23
  -8   9   0 8860.09 530.006  26
  -8   9   0 7628.42 485.149  25
  -8   9  -1 9084.41 579.221  23
  -8   9  -1 10207.9 594.486  26
  -8   9  -2 12020.0 674.532  23
  -8   9  -2 11185.7 651.301  26
  -8   9  -3 40.6037 75.7153  10
  -8   9  -3 269.714 92.1127  23
  -8   9  -4 574.561 104.852  23
  -8   8   5 4944.77 359.166  11
  -8   8   5 4428.01 335.925  12
  -8   8   4 6560.83 460.486  12
  -8   8   4 7110.94 463.644  23
  -8   8   3 2884.54 277.923  12
  -8   8   3 3156.02 300.191  23
  -8   8   3 3357.37 321.903  26
  -8   8   2 4304.83 348.875  12
  -8   8   2 5037.18 413.549  23
  -8   8   2 5335.38 420.480  26
  -8   8   2 4578.55 377.160  25
  -8   8   1 739.145 180.828  23
  -8   8   1 869.688 185.609  26
  -8   8   1 744.506 170.470  25
  -8   8   0 695.339 180.385  23
  -8   8   0 783.655 174.630  26
  -8   8  -1 2435.42 269.626  10
  -8   8  -1 2719.01 283.899  26
  -8   8  -2 3961.75 359.143  10
  -8   8  -2 4238.31 336.845  26
  -8   8  -3 7545.54 524.614  10
  -8   8  -4 10309.6 636.089  10
  -8   7   6 3789.93 341.494  11
  -8   7   6 3368.91 322.920  12
  -8   7   6 3419.40 300.018  23
  -8   7   5 2023.28 274.695  12
  -8   7   5 3015.29 299.644  23
  -8   7   4 1785.33 260.193  12
  -8   7   4 1774.93 256.071  23
  -8   7   4 1661.48 253.645  26
  -8   7   4 1534.81 225.007  25
  -8   7   3 5631.27 472.809  12
  -8   7   3 6733.06 529.892  23
  -8   7   3 6137.08 508.290  26
  -8   7   3 6007.00 488.423  25
  -8   7   2 7639.85 621.491  23
  -8   7   2 8106.91 605.530  26
  -8   7   2 8266.11 607.918  25
  -8   7   1 3091.09 344.177  10
  -8   7   1 3737.31 368.948  26
  -8   7   0 15017.6 943.144  10
  -8   7   0 15510.9 942.671  26
  -8   7  -1 14901.0 919.802  10
  -8   7  -1 14185.4 883.477  26
  -8   7  -2 296.300 161.879  10
  -8   7  -2 77.5031 108.051  26
  -8   7  -4 2934.22 271.730   5
  -8   7  -4 3302.42 331.795  10
  -8   7  -5 8747.91 565.915   5
  -8   7  -5 11198.4 640.332  10
  -8   7  -6 573.231 106.153   5
  -8   7  -6 821.454 131.730  10
  -8   6   8 617.310 139.889  11
  -8   6   8 634.896 123.760  23
  -8   6   7 3432.81 337.988  11
  -8   6   7 2993.85 335.507  12
  -8   6   7 3726.06 331.204  23
  -8   6   6 30697.1 1622.99  11
  -8   6   6 27794.3 1582.84  12
  -8   6   6 30207.7 1600.04  23
  -8   6   5 24748.7 1397.30  12
  -8   6   5 25027.7 1381.51  25
  -8   6   4 13097.8 909.905  12
  -8   6   4 15774.9 965.430  26
  -8   6   4 15210.4 941.512  25
  -8   6   3 2916.70 350.061  12
  -8   6   3 3124.52 369.411  26
  -8   6   3 3859.15 415.097  25
  -8   6   2 6859.54 560.747  10
  -8   6   2 6782.79 567.184  26
  -8   6   1 12408.0 837.733  10
  -8   6   1 11448.8 800.232  26
  -8   6   0 6065.25 529.220  10
  -8   6   0 5652.59 488.607  26
  -8   6  -1 10966.8 764.877  10
  -8   6  -1 9921.29 682.345  26
  -8   6  -2 10740.5 699.370   5
  -8   6  -3 3078.67 326.485   5
  -8   6  -3 3658.98 382.440  10
  -8   6  -4 720.757 185.420   5
  -8   6  -4 678.058 192.099  10
  -8   6  -5 2575.47 284.594   5
  -8   6  -5 3018.12 301.952  10
  -8   6  -6 110.424 109.716   5
  -8   6  -6 376.340 115.087  10
  -8   5   9 2519.14 259.876  11
  -8   5   9 2324.02 242.896  23
  -8   5   8 1134.72 216.256  11
  -8   5   8 941.823 219.006  12
  -8   5   7 194.385 170.392  11
  -8   5   7 269.471 185.795  12
  -8   5   6-58.6221 195.237  12
  -8   5   6-94.2885 170.824  25
  -8   5   5 3250.66 391.102  12
  -8   5   5 3303.73 403.860  23
  -8   5   5 2579.12 354.338  26
  -8   5   5 3419.05 395.558  25
  -8   5   4 20813.3 1334.59  12
  -8   5   4 23107.5 1373.81  31
  -8   5   4 25626.8 1438.20  23
  -8   5   4 24585.3 1390.56  26
  -8   5   4 23779.0 1390.82  25
  -8   5   3 30087.4 1752.39  12
  -8   5   3 34804.4 1856.13  31
  -8   5   3 34972.5 1884.19  23
  -8   5   3 33671.6 1820.93  26
  -8   5   2 14648.2 962.239  10
  -8   5   2 13500.3 910.910  26
  -8   5   1 6779.32 588.988  10
  -8   5   1 7205.77 624.656  31
  -8   5   1 6369.53 535.526  26
  -8   5   0 5769.06 522.079  31
  -8   5   0 4120.93 391.738   5
  -8   5  -1 745.488 229.993  10
  -8   5  -1 852.041 238.622  31
  -8   5  -1 770.938 199.170   5
  -8   5  -2 346.373 189.788  10
  -8   5  -2 208.673 155.301   5
  -8   5  -3 1600.12 274.884  10
  -8   5  -3 1525.84 260.951   5
  -8   5  -4 17756.8 1030.70  10
  -8   5  -4 15892.2 991.463   5
  -8   5  -5 13151.2 772.273  10
   8  -5   5 11195.8 743.711  33
  -8   5  -6 11458.5 665.408  10
  -8   5  -7 506.653 104.727   5
  -8   4  10-69.7916 116.242  11
  -8   4   9 1057.33 211.005  11
  -8   4   9 1254.44 217.031  23
  -8   4   8 10465.0 749.202  11
  -8   4   8 9043.88 727.899  12
  -8   4   8 11326.0 746.844  23
  -8   4   7 20980.9 1285.88  16
  -8   4   7 25258.9 1404.67  11
  -8   4   7 23355.6 1371.26  12
  -8   4   7 24227.5 1388.27  23
  -8   4   7 23853.6 1356.60  25
  -8   4   6 4011.87 440.907  12
  -8   4   6 3155.99 368.617  31
  -8   4   6 4467.09 473.632  23
  -8   4   6 4449.75 457.068  25
  -8   4   5 5390.03 520.015  12
  -8   4   5 5473.63 510.253  31
  -8   4   5 5729.92 552.267  23
  -8   4   5 5749.64 528.895  26
  -8   4   5 5819.41 556.807  25
  -8   4   4 2060.91 308.594  12
   8  -4  -4 2242.71 555.278   1
  -8   4   4 2061.56 323.690  31
  -8   4   4 2276.17 563.313  32
  -8   4   4 2327.37 353.366  23
  -8   4   4 2061.06 318.434  26
  -8   4   3 1984.82 336.722  10
   8  -4  -3 2126.21 598.999   1
  -8   4   3 2021.29 331.892  31
  -8   4   3 1629.24 513.421  32
  -8   4   3 2048.03 337.938  23
  -8   4   3 2157.75 301.932  26
  -8   4   2 5413.99 530.645  10
   8  -4  -2 4835.54 962.595   1
  -8   4   2 4905.07 761.876  30
  -8   4   2 5495.71 472.602  26
  -8   4   1 8590.50 648.051  31
  -8   4   1 8050.91 1039.62  30
  -8   4   1 4424.13 970.477  32
  -8   4   1 5710.79 502.143   5
  -8   4   0 32996.3 1745.66  10
  -8   4   0 34303.5 1750.47  31
  -8   4   0 23912.0 2389.39  30
  -8   4   0 26396.3 2514.28  32
   8  -4   0 27853.9 2508.15   1
  -8   4   0 28259.1 1631.24   5
  -8   4  -1 39841.0 2078.94  10
  -8   4  -1 39331.1 2063.94  31
  -8   4  -1 35469.1 1996.81   5
  -8   4  -2 286.383 191.339  10
  -8   4  -2 139.491 168.376  31
  -8   4  -2 368.991 194.321   5
  -8   4  -3 362.788 178.934  10
  -8   4  -3 492.110 197.618   5
  -8   4  -4 1380.65 239.290  10
  -8   4  -5 1492.46 202.497  10
  -8   4  -5 1621.90 241.243   5
  -8   4  -6 3894.50 341.493   5
  -8   4  -7 2318.70 208.889   5
  -8   3  11 2546.03 241.814  23
  -8   3  10 9251.79 671.284  11
  -8   3  10 10898.8 678.542  23
  -8   3   9 13221.9 881.919  11
  -8   3   9 12014.8 807.119  16
  -8   3   8 408.575 163.205  16
  -8   3   8 338.362 213.180  11
  -8   3   8 174.608 201.513  12
  -8   3   8 379.712 194.274  23
  -8   3   7 1653.97 296.795  11
  -8   3   7 1342.81 298.419  12
  -8   3   7 970.828 201.481  31
  -8   3   7 1479.18 282.376  23
  -8   3   7 1349.88 285.613  25
  -8   3   6 16800.8 1051.85  11
  -8   3   6 14912.8 1031.73  12
  -8   3   6 14399.3 970.905  31
  -8   3   6 16939.4 1071.53  23
  -8   3   5 48027.5 2515.73  12
   8  -3  -5 38419.9 3292.79   1
  -8   3   5 48613.3 2515.11  31
  -8   3   5 40853.0 3281.18  32
  -8   3   5 54217.4 2607.37  23
   8  -3  -4 5356.03 1027.71   1
  -8   3   4 6259.80 1070.15  32
  -8   3   4 7602.33 610.749  31
  -8   3   4 6743.94 607.469  23
  -8   3   4 6047.68 553.424  26
  -8   3   4 7283.54 627.476  25
   8  -3  -3 2270.79 646.842   1
  -8   3   2 7240.27 1040.74  30
  -8   3   2 9559.97 1309.50  32
  -8   3   2 11408.4 770.127  31
   8  -3  -2 7486.74 1250.55   1
  -8   3   2 8737.56 650.131   5
  -8   3   1 8516.37 659.686  10
  -8   3   1 5425.56 947.874  30
  -8   3   1 7070.29 1131.75  32
  -8   3   1 8504.06 652.096  31
   8  -3  -1 5916.57 1080.79   1
  -8   3   1 6414.14 555.164   5
  -8   3   0 2490.42 353.000  10
  -8   3   0 2373.23 668.335  30
  -8   3   0 2894.37 668.207  32
  -8   3   0 2979.08 371.959  31
  -8   3   0 3057.33 353.870   5
  -8   3  -1 15124.6 955.413  10
  -8   3  -1 14523.0 930.453  31
  -8   3  -1 9281.91 1424.53  30
  -8   3  -1 11126.1 1453.80  32
   8  -3   1 14461.8 1543.41   1
  -8   3  -1 13464.8 910.892   5
  -8   3  -2 23440.5 1338.44  10
  -8   3  -2 21062.2 1279.75  31
  -8   3  -2 22751.8 1323.32   5
  -8   3  -3 20394.1 1211.20  10
  -8   3  -4 5059.43 468.109   5
  -8   3  -4 4531.41 417.737  10
  -8   3  -5 1918.47 277.173   5
  -8   3  -6 197.870 116.732   5
  -8   2  11 6302.76 447.017  16
  -8   2  11 7170.64 492.106  23
  -8   2  10 1538.60 241.956  16
  -8   2  10 1837.45 279.554  11
  -8   2  10 1821.26 267.242  23
  -8   2   9 777.347 216.648  16
  -8   2   9 902.759 246.667  11
  -8   2   9 1234.77 250.154  23
  -8   2   8 8631.68 682.765  11
  -8   2   8 7513.90 585.812  15
  -8   2   8 8736.07 676.494  23
  -8   2   8 8509.51 688.550  25
  -8   2   7 15758.6 976.043  11
  -8   2   7 13842.8 961.022  12
  -8   2   7 15348.2 973.240  23
  -8   2   6 2134.13 325.448  11
  -8   2   6 2250.49 351.522  12
  -8   2   6 1999.34 566.221  32
  -8   2   6 2512.13 327.094  31
  -8   2   6 2308.69 346.969  23
  -8   2   6 2299.42 357.090  25
  -8   2   5 2288.90 336.777  12
   8  -2  -5 2818.91 665.551   1
  -8   2   5 2645.06 675.988  32
  -8   2   5 2793.18 359.532  31
  -8   2   5 2952.07 373.403  23
  -8   2   5 2200.67 346.626  25
  -8   2   4 2495.18 303.624   5
   8  -2  -4 2684.00 732.374   1
  -8   2   4 2614.15 732.274  32
  -8   2   4 2802.81 357.355  31
  -8   2   4 1829.61 309.065  23
  -8   2   4 2599.72 370.156  25
   8  -2  -3 17867.0 1999.76   1
  -8   2   3 21083.7 1252.24   5
  -8   2   2 14302.5 978.570  10
  -8   2   2 14470.6 1609.66  32
  -8   2   2 15667.7 968.699  31
  -8   2   2 12972.0 898.990   5
  -8   2   1 30882.4 1697.02  10
  -8   2   1 25476.0 2392.99  32
  -8   2   1 32098.1 1676.13  31
   8  -2  -1 23492.0 2391.59   1
  -8   2   1 28118.3 1626.43   5
  -8   2   0 20077.2 1203.43  10
  -8   2   0 17727.1 1831.15  32
  -8   2   0 18937.2 1163.13  31
   8  -2   0 15595.6 1816.11   1
  -8   2   0 19445.3 1172.43   5
  -8   2  -1 595.434 198.889  10
  -8   2  -1 178.397 158.236  31
  -8   2  -1 324.107 210.638   5
  -8   2  -2 405.466 171.815  10
  -8   2  -2 363.957 170.432  31
  -8   2  -3 2484.70 347.044   5
  -8   2  -3 2123.50 285.970  10
  -8   2  -4 7831.16 608.664   5
  -8   2  -5 5648.10 458.414   5
  -8   2  -6 1185.71 185.980   5
  -8   1  12 4509.89 338.734  16
  -8   1  12 4783.30 350.896  23
  -8   1  11 5077.68 410.120  16
  -8   1  11 4216.27 392.207  23
  -8   1  10 3729.04 401.511  16
  -8   1  10 3770.73 411.288  11
  -8   1  10 3498.77 336.406  15
  -8   1  10 4084.65 402.070  23
  -8   1   9 1175.57 254.101  16
  -8   1   9 1413.49 273.999  11
  -8   1   9 1152.84 213.607  15
  -8   1   9 852.797 228.646  23
  -8   1   8 1024.12 250.914  11
  -8   1   8 400.869 142.292  31
  -8   1   8 813.160 232.115  23
  -8   1   7 6705.41 581.667  11
  -8   1   7 6198.87 875.692  32
  -8   1   7 5487.38 504.541  31
  -8   1   7 7058.17 593.495  23
  -8   1   7 7110.98 625.686  25
  -8   1   6 1298.28 247.594  11
   8  -1  -6 1726.58 493.343   2
  -8   1   6 1124.98 252.025  31
  -8   1   6 1296.56 409.667  32
  -8   1   6 1837.03 290.554  23
  -8   1   6 1887.73 333.712  25
  -8   1   5 17385.2 1066.63   5
  -8   1   5 15221.5 1708.86  32
  -8   1   5 18695.3 1139.33  23
  -8   1   5 19505.4 1192.18  25
   8  -1  -4 48974.9 3827.83   1
  -8   1   4 53211.9 2806.68   5
  -8   1   4 56493.7 2849.73  23
  -8   1   4 59632.1 2904.49  25
   8  -1  -3 22780.3 2217.90   1
  -8   1   3 24416.1 1378.64   5
  -8   1   3 22856.8 2092.98  32
  -8   1   3 23056.2 1359.87  23
  -8   1   3 23634.7 1397.74  25
  -8   1   2 193.578 183.542  10
  -8   1   2 458.691 371.654  32
   8  -1  -2 105.977 277.193   1
  -8   1   2 147.241 180.920   5
  -8   1   1 29203.1 1657.73  10
  -8   1   1 30045.9 1645.57   5
  -8   1   0 6782.12 575.863  10
  -8   1   0 4825.25 910.784  32
  -8   1   0 6592.46 558.492  31
   8  -1   0 5554.77 992.605   2
  -8   1  -1 2507.61 341.228  10
  -8   1  -1 2497.19 317.624  31
   8  -1   1 2225.48 561.962   2
   8  -1   2 13435.6 923.182   9
  -8   1  -2 14054.9 914.846   5
  -8   1  -2 12278.5 843.083  10
   8  -1   3 6173.45 519.255   9
  -8   1  -3 6072.96 541.306   5
  -8   1  -4 6506.85 529.194   5
  -8   1  -5 49.1971 131.816   5
  -8   0  13 1252.93 143.427  16
  -8   0  12 2742.06 260.176  23
  -8   0  11 4730.87 387.772  15
  -8   0  11 4660.27 411.609  23
  -8   0  10 4210.87 401.756  15
  -8   0  10 4072.18 407.365  23
  -8   0   9 26563.2 1575.13  11
  -8   0   9 28535.9 1567.24  23
  -8   0   8 5169.98 500.405  11
  -8   0   8 4501.52 438.088  31
  -8   0   8 6144.84 517.582  23
   8   0  -7 2589.90 597.403   2
  -8   0   7 3262.64 624.636  32
  -8   0   7 2674.78 350.808  23
  -8   0   7 3222.43 415.977  25
   8   0  -6 1011.86 375.409   2
  -8   0   6 438.438 201.638   5
  -8   0   6 518.542 351.413  32
  -8   0   6 779.117 208.548  23
  -8   0   6 887.323 255.160  25
   8   0  -5 619.047 418.103   2
  -8   0   5 259.529 185.773   5
  -8   0   5 178.067 360.865  32
  -8   0   5 310.415 202.935  36
  -8   0   5 212.619 147.098  23
  -8   0   5 552.374 238.657  25
   8   0  -4 207.485 297.547   2
  -8   0   4 420.501 206.300   5
  -8   0   4 358.718 174.622  25
  -8   0   3 6407.12 552.036   5
  -8   0   3 5761.51 548.500  36
  -8   0   3 4535.76 914.834  32
  -8   0   3 5983.51 526.913  25
  -8   0   2 89132.3 4272.08   5
   8   0  -2 79274.4 5242.34   2
  -8   0   2 78417.0 5133.47  32
  -8   0   2 89364.7 4275.18  36
  -8   0   2 85021.7 4210.68  25
  -8   0   1 13483.1 898.596  10
  -8   0   1 11297.9 1428.63  32
   8   0  -1 10769.0 1424.61   2
  -8   0   0 4127.91 438.555  10
  -8   0   0 4861.33 775.715  32
  -8   0   0 5298.45 507.738   5
   8   0   0 4868.32 824.625   2
  -8   0  -1 408.208 167.248  31
  -8   0  -1 311.243 227.240   5
   8   0   2 8350.21 704.620   9
  -8   0  -2 9221.17 698.755   5
   8   0   3 19463.3 1143.21   9
  -8   0  -3 18417.5 1127.92   5
  -8   0  -4 5920.60 477.340   5
  -8   0  -5 6546.55 430.772   5
  -8  -1  13 4843.79 349.066  16
  -8  -1  12 1752.06 211.028  15
  -8  -1  12 1953.09 247.901  16
  -8  -1  11 294.192 172.071  16
  -8  -1  11 334.825 144.397  15
  -8  -1  11 222.008 137.938  23
  -8  -1  10 3370.99 419.629  16
  -8  -1  10 3263.35 372.697  15
  -8  -1  10 2798.78 329.465  23
  -8  -1   9 15782.0 986.103  23
   8   1  -8 36448.0 1981.35   3
   8   1  -7 11507.6 1380.67   2
  -8  -1   7 10395.7 775.193  36
  -8  -1   7 13127.1 876.647  25
   8   1  -6 2018.96 635.436   2
  -8  -1   6 1017.19 240.474   5
  -8  -1   6 961.104 492.421  32
  -8  -1   6 1083.85 245.489  36
  -8  -1   6 1072.19 261.158  25
   8   1  -5 2376.93 719.886   2
  -8  -1   5 4228.54 431.619   5
  -8  -1   5 3595.51 758.826  32
  -8  -1   5 2952.63 382.438  25
   8   1  -4 758.750 421.713   2
  -8  -1   4 587.392 222.064   5
  -8  -1   4 1001.55 440.255  32
  -8  -1   4 743.501 229.171  36
  -8  -1   4 851.224 208.794  25
  -8  -1   3 454.671 383.541  32
  -8  -1   3 157.363 184.402  36
  -8  -1   3 367.419 211.770   5
  -8  -1   2 1520.99 587.537  32
  -8  -1   2 1595.12 291.796  36
   8   1  -2 2527.73 667.628   2
  -8  -1   1 172.060 266.139  32
  -8  -1   1-84.9297 173.794  36
   8   1  -1 202.103 264.202   2
  -8  -1   1 231.165 200.460   5
  -8  -1   0 26815.6 1417.62   5
   8   1   0 20256.2 1334.12   3
   8   1   1 10619.4 808.019   9
  -8  -1  -1 11831.5 771.091   5
   8   1   2 16486.2 1059.17   9
  -8  -1  -2 15245.5 1001.91   5
   8   1   3 2411.25 310.575   9
  -8  -1  -3 1835.35 275.836   5
  -8  -1  -4 1173.90 180.056   5
  -8  -2  13 4275.34 332.747  16
  -8  -2  12 4395.18 378.564  15
  -8  -2  12 4858.89 410.685  16
  -8  -2  11 8215.68 633.197  16
  -8  -2  11 7617.26 593.280  15
  -8  -2  10 18392.9 1177.19  16
   8   2  -9 342.675 151.392   3
   8   2  -8 3310.80 381.107   3
  -8  -2   8 2774.60 346.834  36
   8   2  -7 49.6168 171.892   3
   8   2  -7 430.522 251.881   2
  -8  -2   7 766.025 298.711  32
  -8  -2   7 125.691 166.419  36
   8   2  -6 781.341 545.994   2
   8   2  -6 2077.51 355.771   3
  -8  -2   6 2595.13 355.272   5
  -8  -2   6 1972.22 590.879  32
  -8  -2   6 2005.25 317.474  36
   8   2  -5 5879.97 1095.92   2
  -8  -2   5 6695.35 588.938   5
  -8  -2   5 6126.44 539.945  25
  -8  -2   4 11099.8 842.898  36
  -8  -2   4 12644.0 876.083   5
  -8  -2   3 16162.8 1789.17  32
  -8  -2   3 19860.7 1161.45  36
   8   2  -3 15609.9 1847.32   2
   8   2  -3 17136.5 1184.03   3
  -8  -2   2 1861.54 552.933  32
  -8  -2   2 1278.25 261.701  36
   8   2  -2 1388.27 504.377   2
   8   2  -2 1704.83 324.202   3
  -8  -2   2 1797.75 324.292   5
  -8  -2   1 11414.5 1216.73  32
  -8  -2   1 8650.18 705.346  36
   8   2  -1 9871.86 1239.12   2
  -8  -2   1 10426.3 765.431   5
   8   2  -1 9382.60 736.288   3
  -8  -2   0 14150.6 993.390  36
   8   2   0 16162.3 1026.60   3
   8   2   1 619.262 269.513   9
  -8  -2  -1 920.817 233.000   5
   8   2   2 17646.7 1060.28   9
  -8  -2  -2 15431.2 978.590   5
  -8  -2  -3 9136.20 617.185   5
   8   2   3 11521.6 698.894   9
   8   2   4 11300.1 638.516   9
   8   2   4 10082.1 693.547  22
  -8  -3  13 3718.92 299.840  16
  -8  -3  12 86.2533 131.332  16
  -8  -3  11 4171.06 420.846  16
  -8  -3  11 4339.43 414.336  15
  -8  -3  10 16871.8 1079.93  16
  -8  -3  10 17020.7 1085.56  15
   8   3  -9 11303.7 744.167   3
  -8  -3   9 9197.15 705.324  36
   8   3  -8 19278.5 1201.08   3
  -8  -3   8 18708.7 1151.68  36
   8   3  -7 8472.09 1185.02   2
   8   3  -7 7261.13 652.064   3
  -8  -3   7 7326.31 616.524  36
   8   3  -6 13351.9 1728.07   2
  -8  -3   6 16558.9 1058.72   5
   8   3  -6 15762.5 1087.25   3
   8   3  -5 1807.98 338.668   3
   8   3  -5 1524.54 619.026   2
  -8  -3   5 2010.70 317.278  36
  -8  -3   4 1270.42 273.174  36
   8   3  -3 9818.16 1347.55   2
  -8  -3   3 12611.9 843.613   5
   8   3  -3 9694.83 810.767   3
  -8  -3   3 10185.1 768.762  36
   8   3  -2 8447.27 704.442   7
  -8  -3   2 11442.5 798.948   5
   8   3  -2 10195.9 780.723   3
  -8  -3   2 10004.4 739.627  36
   8   3  -1 31910.2 1790.03   9
  -8  -3   1 34938.8 1723.01   5
   8   3  -1 30099.5 1663.22   3
  -8  -3   0 12439.6 801.018   5
   8   3   0 9430.34 689.304   3
  -8  -3  -1 1192.29 236.223   5
   8   3   2-50.4532 173.751   9
  -8  -3  -2 214.288 117.337   5
   8   3   3 371.472 145.935   9
   8   3   3 388.829 156.233  22
   8   3   4 351.609 106.526  22
  -8  -4  13 2793.12 220.035  16
   8   4 -13 2377.33 219.938   6
  -8  -4  12 15400.9 871.326  15
  -8  -4  12 13994.5 834.436  16
  -8  -4  11 10953.1 730.192  16
  -8  -4  11 11519.8 752.973  15
  -8  -4  10 167.934 136.667  16
  -8  -4  10 352.512 175.160  15
   8   4  -9 4782.11 442.583   3
  -8  -4   9 3999.72 399.978  36
   8   4  -8 2111.49 315.393   3
  -8  -4   8 1479.37 273.689  36
   8   4  -7 6232.29 580.540   3
  -8  -4   7 5760.93 525.968  36
   8   4  -6 16930.9 1142.06   3
   8   4  -5 7167.89 660.712   3
  -8  -4   5 6142.61 577.150  36
  -8  -4   4 10373.7 785.775   5
  -8  -4   4 9465.75 730.083  36
   8   4  -3 4773.51 471.153   7
   8   4  -3 4277.09 487.644   3
  -8  -4   3 4219.24 454.374  36
   8   4  -2 164.109 169.724   3
   8   4  -2 128.338 128.758   7
   8   4  -2 247.013 234.720   9
  -8  -4   2 21.3817 216.601   5
  -8  -4   2 205.782 153.250  36
   8   4  -1 814.733 184.904   3
   8   4  -1 1070.81 296.998   9
  -8  -4   1 699.824 215.123   5
  -8  -4   1 314.172 160.495  36
   8   4   0 309.661 219.569   9
  -8  -4   0 566.853 184.738   5
  -8  -4  -1 4274.36 330.320   5
   8   4   1 2939.40 371.106  22
   8   4   2 4828.35 348.583  28
   8   4   2 3760.00 375.715  22
   8   4   3 6973.91 375.142   9
   8   4   3 3645.64 345.335  22
   8   5 -13 198.231 74.1196   6
  -8  -5  12 973.794 160.731  15
  -8  -5  11 3848.66 356.849  15
   8   5 -11 3604.79 365.704   7
  -8  -5  10 8161.90 560.144  16
  -8  -5  10 9984.85 648.633  15
   8   5 -10 8783.57 560.069   3
  -8  -5   9 11274.4 760.308  16
  -8  -5   9 10747.1 782.017  36
   8   5  -8 15400.7 974.949   3
  -8  -5   8 14189.7 938.924  36
   8   5  -7 2643.11 370.587   3
  -8  -5   7 2555.84 329.884  36
   8   5  -6 1190.78 263.814   3
   8   5  -5 3029.77 394.420   7
  -8  -5   5 2794.35 357.244  36
   8   5  -4 4934.21 498.601   7
  -8  -5   4 5742.46 529.964   5
   8   5  -4 4607.14 510.058   9
   8   5  -4 5896.74 533.480   3
  -8  -5   4 5111.32 480.732  36
   8   5  -3 5462.87 511.881   7
  -8  -5   3 7057.88 571.487   5
   8   5  -3 7294.05 563.733   3
   8   5  -3 6450.04 592.410   9
  -8  -5   3 5881.98 531.890  36
   8   5  -2 5620.08 467.004   3
   8   5  -2 5355.09 524.047   9
  -8  -5   2 4797.35 448.264  36
  -8  -5   1 16389.1 998.270   5
   8   5  -1 18850.3 1091.37   9
   8   5   0 6349.34 448.468   9
   8   5   0 2520.47 315.094  22
   8   5   1 460.855 149.334   9
   8   5   1 201.766 129.641  28
   8   5   1 235.352 107.940  22
   8   6 -12 2593.92 248.164   6
  -8  -6  11 763.835 145.203  15
   8   6 -11 781.751 160.545   7
  -8  -6  10 225.686 123.900  15
  -8  -6  10 261.423 108.114  36
   8   6 -10 293.627 160.114   7
   8   6 -10 379.340 117.414   3
  -8  -6   9 3470.03 338.871  15
  -8  -6   9 2750.94 327.134  36
   8   6  -9 3733.03 359.122   3
  -8  -6   8 10935.3 748.872  36
   8   6  -8 11972.6 836.833   7
   8   6  -8 11293.3 766.654   3
   8   6  -7 25249.0 1443.06   3
  -8  -6   6 16793.9 949.056  36
   8   6  -6 16116.7 991.982   7
   8   6  -6 17698.7 988.670   3
  -8  -6   5 6561.88 525.935  36
   8   6  -5 6745.95 550.015   7
  -8  -6   4 149.256 138.500  36
   8   6  -4 95.7695 139.683   7
   8   6  -4 33.7234 175.249   9
   8   6  -4-17.5973 169.686   3
  -8  -6   3 385.298 141.940  36
   8   6  -3 570.507 199.930   9
   8   6  -3 407.353 141.621   3
   8   6  -2 2238.92 294.365   9
   8   6  -1 8703.18 590.615   9
   8   6   0 2494.85 254.810   9
   8   6   0 2686.29 265.836  28
   8   7 -11 1244.29 166.001   7
   8   7 -11 1664.67 186.900   6
   8   7 -10 3975.33 338.006   7
   8   7 -10 3122.77 278.434   3
   8   7 -10 3939.33 323.382   6
   8   7  -9 11751.0 731.341   7
   8   7  -9 11970.4 687.970   3
  -8  -7   8 95.2569 102.042  36
   8   7  -8 228.361 164.160   7
   8   7  -8 116.074 144.062   3
   8   7  -7 2851.38 326.065   3
  -8  -7   6 1323.84 212.770  36
   8   7  -6 1076.06 215.837   7
  -8  -7   5 9847.65 703.785  36
   8   7  -5 12079.2 722.497   3
   8   7  -5 10520.9 701.197   7
  -8  -7   4 10273.4 636.048  36
   8   7  -4 11179.7 642.579   3
   8   7  -4 9761.93 602.214   7
   8   7  -3 1923.46 228.910   9
   8   7  -2 679.786 132.818   9
   8   7  -1 713.260 131.559  28
   8   8 -10 176.107 85.3059   7
   8   8  -9 921.995 161.678   7
   8   8  -9 1200.45 150.596   3
  -8  -8   9 1115.60 133.477   8
   8   8  -8 4892.84 367.772   3
   8   8  -8 4972.24 390.833   7
   8   8  -7 10750.5 651.616   3
   8   8  -6 3952.62 324.461   7
   8   8  -5 56.6053 75.0051   7
   8   8  -5 97.2968 77.1041   3
   8   8  -5 98.4826 96.2865  28
   8   8  -4 249.346 100.937  28
  -9   8   3 676.571 126.375  11
  -9   8   3 876.137 127.815  23
  -9   8   2 401.073 115.184  23
  -9   8   2 388.355 98.8616  25
  -9   8   1 19.9721 85.0010  23
  -9   8   1-36.1867 83.9558  25
  -9   8   0 2902.90 270.101  23
  -9   8   0 3091.34 268.407  25
  -9   8  -2 4939.97 353.510  25
  -9   8  -3 702.964 116.264  25
  -9   7   5 1131.26 166.575  11
  -9   7   5 1041.02 161.954  23
  -9   7   4 3266.70 301.465  11
  -9   7   4 3384.48 306.189  23
  -9   7   4 3168.14 274.532  25
  -9   7   3 6850.38 479.672  25
  -9   7   2 5789.58 424.666  26
  -9   7   2 5980.09 454.722  25
  -9   7   1 754.123 135.707  26
  -9   7   0 10860.1 702.120  23
  -9   7  -1 2907.30 294.966  10
  -9   7  -2 2004.16 239.350  10
  -9   7  -4 5679.84 381.943  10
  -9   6   7 5356.71 380.762  11
  -9   6   6 5569.52 422.424  11
  -9   6   5 1549.62 223.689  11
  -9   6   5 1060.76 179.208  12
  -9   6   5 1442.27 207.713  25
  -9   6   4 2309.33 285.420  23
  -9   6   4 1681.13 256.899  25
  -9   6   3 2063.14 285.464  23
  -9   6   3 2183.93 288.031  25
  -9   6   2 1887.32 278.721  23
  -9   6   2 2013.34 238.937  26
  -9   6   1 15829.5 976.284  10
  -9   6   1 16161.4 988.604  23
  -9   6   0 14013.8 885.832  10
  -9   6  -2 6333.86 500.872  10
  -9   6  -3 2901.80 295.281  10
  -9   6  -4 484.330 113.713   5
  -9   6  -4 524.998 132.076  10
  -9   5   8 1378.84 187.021  11
  -9   5   8 1469.86 186.530  23
  -9   5   7 2426.34 274.164  11
  -9   5   7 2500.10 274.953  23
  -9   5   6 8202.40 590.442  11
  -9   5   6 8500.47 604.808  23
  -9   5   6 8120.78 582.662  25
  -9   5   5 5528.78 485.270  11
  -9   5   5 5391.38 456.168  12
  -9   5   5 6566.15 520.312  23
  -9   5   5 6916.30 521.947  25
  -9   5   4 19551.9 1175.14  23
  -9   5   3 3151.60 388.669  31
  -9   5   3 3246.06 379.434  23
  -9   5   2 2859.64 360.832  23
  -9   5   2 3052.71 367.967  25
  -9   5   1 6228.04 554.409  31
  -9   5   0 294.424 170.720  31
  -9   5  -1 4634.36 396.279   5
  -9   5  -1 5409.29 473.542  10
  -9   5  -2 2377.80 284.164   5
  -9   5  -2 3541.29 357.367  10
  -9   5  -3 11952.4 755.372   5
  -9   5  -3 13928.7 807.798  10
  -9   5  -4 4006.17 348.017   5
  -9   5  -4 5360.08 373.986  10
  -9   5  -5 1308.76 157.111   5
  -9   4   9 3097.80 288.810  11
  -9   4   9 3396.19 288.190  23
  -9   4   8 14437.3 886.049  11
  -9   4   8 15600.5 897.574  23
  -9   4   7 10372.1 706.273  11
  -9   4   7 10670.0 718.762  23
  -9   4   7 10539.5 713.458  25
  -9   4   6 7990.99 609.206  11
  -9   4   6 8742.50 642.516  23
  -9   4   6 8050.84 625.077  25
  -9   4   5 1053.79 215.055  11
  -9   4   5 921.203 226.091  31
  -9   4   5 1336.11 262.914  23
  -9   4   4 6359.01 532.100  23
  -9   4   4 5719.86 524.874  25
  -9   4   3 12205.0 844.431  23
  -9   4   3 12304.5 852.077  25
  -9   4   2 14355.8 945.427  31
  -9   4   2 12882.3 897.922  23
  -9   4   1 13140.5 858.954  10
  -9   4   1 12697.3 848.975  31
  -9   4   1 10281.3 721.559   5
  -9   4   0 9673.22 727.501  31
  -9   4   0 9061.40 661.385   5
  -9   4  -1 3817.11 404.274  10
  -9   4  -1 4220.63 397.616  31
  -9   4  -1 2925.37 341.214   5
  -9   4  -2-77.4115 159.872   5
  -9   4  -2 34.9662 141.622  10
  -9   4  -3 363.242 165.490   5
  -9   4  -3 242.784 130.001  10
  -9   4  -4 284.160 118.100  10
  -9   3  10 598.876 130.628  23
  -9   3   9 607.711 160.576  11
  -9   3   9 482.868 151.594  23
  -9   3   8 8400.45 605.625  16
  -9   3   8 9041.80 640.467  11
  -9   3   8 9685.25 651.611  23
  -9   3   7 11904.4 785.571  11
  -9   3   7 9636.20 698.617  31
  -9   3   6 15996.6 1023.95  11
  -9   3   6 16005.9 1021.62  31
  -9   3   5 24533.4 1427.57  11
  -9   3   5 25217.2 1469.93  31
  -9   3   5 26361.7 1495.03  23
  -9   3   5 28449.9 1541.63  25
  -9   3   4 2398.43 352.257  31
  -9   3   4 2327.21 331.084  23
  -9   3   4 2746.56 364.591  25
  -9   3   3 149.789 160.252  23
  -9   3   3 22.3996 171.786  25
  -9   3   2 475.734 197.099  10
  -9   3   2 230.066 157.825   5
  -9   3   2 153.505 181.780  31
  -9   3   2 365.104 194.953  25
  -9   3   1 2759.80 364.005  10
  -9   3   1 2368.05 340.696  31
  -9   3   1 1856.91 283.586   5
  -9   3   0 4708.72 481.523  10
  -9   3   0 4507.85 465.318  31
  -9   3   0 4834.55 451.149   5
  -9   3  -1 3593.99 392.025  10
  -9   3  -1 3088.68 348.388  31
  -9   3  -1 3204.37 368.606   5
  -9   3  -2 9547.45 681.709   5
  -9   3  -2 9645.49 675.470  10
  -9   3  -3 15529.6 905.366  10
  -9   3  -4 6542.96 479.531   5
  -9   3  -5 628.984 128.785   5
  -9   2  11 1942.11 190.405  23
  -9   2  10 11367.1 691.194  16
  -9   2  10 11658.6 702.146  23
  -9   2   9 15533.8 906.815  16
  -9   2   9 13904.0 880.229  11
  -9   2   9 14416.9 886.416  23
  -9   2   8 8219.87 619.519  11
  -9   2   8 8809.06 638.119  23
  -9   2   7 70.2450 143.822  11
  -9   2   7 177.666 134.961  31
  -9   2   7 119.210 169.197  23
  -9   2   7 66.5614 194.195  25
  -9   2   6 3255.97 361.953  31
  -9   2   6 3063.49 369.409  23
  -9   2   6 2838.53 386.735  25
  -9   2   5 5161.57 513.797  31
  -9   2   5 5889.26 520.402  23
  -9   2   5 5882.34 556.002  25
  -9   2   4 5379.94 458.741   5
  -9   2   4 5785.80 517.209  23
  -9   2   4 6820.42 569.404  25
  -9   2   3 12974.1 889.053   5
  -9   2   3 15757.5 980.848  31
  -9   2   3 14696.8 932.462  23
  -9   2   3 14166.8 955.367  25
  -9   2   2 1895.59 281.363   5
  -9   2   2 1967.80 309.294  31
  -9   2   2 1969.03 281.926  23
  -9   2   2 1776.09 297.479  25
  -9   2   1 16934.6 1094.41  10
  -9   2   1 17176.7 1060.08   5
  -9   2   1 16912.6 1072.27  31
  -9   2   1 16729.4 1046.37  25
  -9   2   0 3486.00 405.355  10
  -9   2   0 3830.08 409.957   5
  -9   2   0 3571.97 391.415  31
  -9   2   0 3351.00 359.279  25
  -9   2  -1 428.791 175.331  10
  -9   2  -1 791.371 190.996  31
  -9   2  -1 721.630 223.846   5
  -9   2  -2 4292.17 389.312  10
  -9   2  -3 6476.58 512.814   5
  -9   2  -4 12037.5 731.153   5
  -9   2  -5 2062.89 194.815   5
  -9   1  11 7151.99 455.081  16
  -9   1  11 6191.55 427.233  23
  -9   1  10 1370.25 220.750  16
  -9   1  10 1173.01 190.310  23
  -9   1   9 2922.76 325.826  11
  -9   1   9 3125.37 360.044  16
  -9   1   9 3066.07 312.290  15
  -9   1   9 3485.51 343.155  23
  -9   1   8 4993.45 427.785  11
   9  -1  -8 3869.91 392.085   3
  -9   1   8 4442.29 386.256  31
  -9   1   7 31165.9 1653.54  23
  -9   1   7 33897.5 1735.61  25
  -9   1   6 26203.2 1560.90  31
  -9   1   6 27823.9 1565.82  23
  -9   1   6 31447.1 1655.02  25
  -9   1   5 572.606 183.053   5
  -9   1   5 972.993 232.934  31
  -9   1   5 584.981 169.383  23
  -9   1   5 739.424 232.866  25
  -9   1   4 499.941 191.690   5
  -9   1   4 1016.51 211.697  23
  -9   1   4 753.532 214.738  25
  -9   1   3 1984.10 320.835   5
  -9   1   3 2274.21 335.130  31
  -9   1   3 2490.43 327.010  25
  -9   1   2 8565.60 672.408   5
  -9   1   2 9755.04 702.838  31
  -9   1   2 8051.36 640.230  25
  -9   1   1 43794.2 2180.67   5
  -9   1   1 40463.7 2150.30  31
  -9   1   1 38447.1 2085.40  25
  -9   1   0 2377.01 318.108  31
   9  -1   1 8351.77 666.180   9
  -9   1  -2 1103.90 245.899   5
  -9   1  -3 791.159 189.178   5
  -9   1  -4 347.824 133.160   5
  -9   0  12 5402.56 366.255  16
  -9   0  11 975.506 135.092  15
  -9   0  11 553.208 127.162  23
  -9   0  10 924.639 174.494  15
  -9   0  10 616.946 145.288  23
  -9   0   9 8855.56 642.181  15
  -9   0   9 9221.67 621.523  23
   9   0  -8 1610.07 254.730   3
  -9   0   8 1219.27 223.133  31
  -9   0   8 1955.83 250.268  23
  -9   0   7 125.763 155.839  31
  -9   0   7 45.9627 176.245  25
  -9   0   6 1457.83 253.205   5
  -9   0   6 1707.90 300.114  25
  -9   0   5 19387.2 1185.53   5
  -9   0   5 21013.8 1242.39  25
  -9   0   4 28184.4 1559.36   5
  -9   0   4 26849.3 1551.29  25
  -9   0   3 17674.1 1083.11   5
  -9   0   3 16545.1 1043.41  25
  -9   0   2 8721.84 688.370   5
  -9   0   1 681.656 211.131  31
  -9   0   0 3251.91 361.923  31
  -9   0   0 4129.77 431.624   5
   9   0   0 4175.88 407.825   3
   9   0   1 5066.11 503.581   9
  -9   0  -1 5517.45 491.869   5
   9   0   2 5065.83 431.453   9
  -9   0  -2 5006.14 452.592   5
  -9   0  -3 7127.12 509.219   5
  -9   0  -4 853.152 128.709   5
  -9  -1  12 96.7125 86.9659  16
  -9  -1  11 216.807 126.701  16
  -9  -1  11 143.545 99.2004  15
  -9  -1  10 870.962 216.163  16
  -9  -1  10 919.900 193.042  15
   9   1  -9 3098.02 319.889   3
   9   1  -8 1003.61 233.484   3
  -9  -1   8 1000.80 207.649  31
   9   1  -7 5153.49 512.037   3
  -9  -1   6 11691.2 796.450   5
  -9  -1   6 11468.8 815.476  25
  -9  -1   5 6775.88 570.838   5
  -9  -1   5 6339.29 549.473  25
  -9  -1   4 495.987 208.945   5
  -9  -1   4 403.853 192.097  36
  -9  -1   4 472.461 169.980  25
  -9  -1   3 10917.6 856.314  36
  -9  -1   3 14649.7 912.460   5
   9   1  -2 16020.9 1061.36   3
   9   1  -1 1453.51 253.661   3
  -9  -1   1 1181.61 267.886   5
  -9  -1   0 4554.84 413.212  31
   9   1   0 6201.88 539.263   9
  -9  -1   0 6011.78 516.102   5
   9   1   0 4695.31 427.673   3
   9   1   1 2131.20 314.920   9
  -9  -1  -1 1886.33 288.207   5
   9   1   2 1730.46 239.524   9
  -9  -1  -2 1777.08 243.839   5
  -9  -1  -3 40.3743 89.0860   5
  -9  -2  12 1180.41 169.180  16
  -9  -2  12 1193.97 151.872  15
  -9  -2  11 8426.84 592.441  16
  -9  -2  11 8540.33 573.337  15
  -9  -2  10 7670.93 593.588  16
   9   2  -9 7025.57 529.657   3
   9   2  -8 156.567 165.159   3
  -9  -2   7 8248.54 669.008  36
   9   2  -7 9453.20 720.569   3
  -9  -2   6 9755.36 762.472  36
  -9  -2   6 11776.8 792.606   5
   9   2  -6 10659.6 821.216   3
  -9  -2   5 6113.26 570.080  36
  -9  -2   5 7143.37 593.449   5
   9   2  -5 6627.56 617.196   3
  -9  -2   4 15858.6 1039.70  36
  -9  -2   3 1898.42 317.837  36
   9   2  -3 2284.00 353.866   3
  -9  -2   2 250.331 159.943  36
   9   2  -2 417.361 186.453   3
  -9  -2   2 394.724 208.104   5
  -9  -2   1 4440.59 438.283   5
   9   2  -1 3527.84 385.619   3
   9   2   0 4815.20 483.712   9
  -9  -2   0 5203.95 460.050   5
   9   2   1 13437.4 835.143   9
  -9  -2  -1 12533.6 797.816   5
  -9  -2  -2 8164.19 545.163   5
   9   2   2 10369.5 601.104   9
   9   2   3 1044.27 179.516  22
  -9  -3  12 864.290 136.470  16
  -9  -3  11 7255.72 529.184  16
  -9  -3  11 8378.71 548.450  15
  -9  -3  10 20546.2 1213.52  16
  -9  -3  10 22395.3 1235.85  15
   9   3  -9 11749.1 757.562   3
   9   3  -8 2881.24 340.842   3
  -9  -3   8 1655.17 274.004  36
   9   3  -7 5301.03 506.335   3
  -9  -3   7 4939.27 489.994  36
   9   3  -6 621.333 232.734   3
  -9  -3   6 1004.59 248.295   5
   9   3  -5 1162.39 292.991   3
  -9  -3   5 1280.47 269.227  36
  -9  -3   4 12505.2 861.980  36
   9   3  -3 4666.33 469.936   7
  -9  -3   3 7575.13 576.487   5
   9   3  -3 7034.74 564.940   3
  -9  -3   3 5236.87 510.789  36
  -9  -3   2 12240.4 772.241   5
   9   3  -2 11375.6 812.860   9
   9   3  -2 10446.8 722.260   3
  -9  -3   1 3420.01 358.466   5
   9   3  -1 3070.22 389.549   9
   9   3  -1 2512.21 287.318   3
  -9  -3   0 566.193 177.400   5
   9   3   1 198.597 142.230   9
  -9  -3  -1 60.6640 100.871   5
   9   3   1 10.9301 109.982  22
   9   3   2 830.751 133.479   9
   9   3   2 134.837 101.092  22
  -9  -4  12 6569.71 421.677  15
  -9  -4  11 449.466 122.577  16
  -9  -4  11 427.011 139.731  15
   9   4 -11 439.612 138.717   7
  -9  -4  10 1758.42 230.658  16
   9   4 -10 1516.22 187.978   3
  -9  -4   9-30.1214 131.774  16
   9   4  -9 159.108 130.999   3
  -9  -4   9-81.6305 114.708  36
   9   4  -8 518.741 183.831   3
  -9  -4   8 114.163 121.070  36
   9   4  -7 5506.53 496.346   3
  -9  -4   7 4238.12 439.153  36
   9   4  -6 8655.39 685.495   3
  -9  -4   5 12363.1 803.066   5
  -9  -4   5 9978.83 757.903  36
   9   4  -4 4262.20 435.631   7
  -9  -4   4 6301.77 507.126   5
   9   4  -4 4321.82 482.435   9
   9   4  -4 5700.42 493.499   3
  -9  -4   4 4513.18 459.551  36
   9   4  -3 1263.48 225.606   3
   9   4  -3 1175.39 268.657   9
  -9  -4   3 1082.21 232.485   5
  -9  -4   3 872.183 208.361  36
   9   4  -2 377.704 225.806   9
  -9  -4   2 441.798 174.902   5
   9   4  -2 248.369 133.740   3
  -9  -4   2 131.693 124.673  36
   9   4  -1 1004.49 228.124   9
  -9  -4   1 1144.54 201.774   5
   9   4   0 7743.69 460.212   9
   9   4   0 3468.62 326.575  22
  -9  -5  12 5841.60 365.512  15
  -9  -5  11 4248.95 296.441  15
   9   5 -11 2534.47 280.862   7
   9   5 -10 8037.97 580.103   7
   9   5 -10 6913.72 475.693   3
  -9  -5   9 3136.00 327.966  36
   9   5  -9 4307.57 401.407   7
   9   5  -9 4334.51 356.026   3
  -9  -5   8 2634.44 323.446  36
   9   5  -8 3217.50 334.524   3
   9   5  -7 597.514 208.225   7
   9   5  -7 504.579 174.068   9
   9   5  -7 788.701 201.411   3
  -9  -5   6 829.418 186.044  36
   9   5  -6 421.578 176.055   3
   9   5  -6 483.281 184.445   7
   9   5  -6 489.143 182.656   9
  -9  -5   5 6947.22 551.594  36
   9   5  -5 6970.38 551.738   7
   9   5  -5 6282.47 537.198   9
  -9  -5   4 6450.08 540.240  36
   9   5  -4 7621.64 550.200   3
   9   5  -4 7447.01 573.124   9
  -9  -5   3 10234.0 698.899  36
   9   5  -3 11149.4 696.374   3
   9   5  -2 20546.4 1151.68   9
   9   5  -1 2697.37 268.436   9
   9   5   0 828.611 133.848   9
   9   6 -11 673.716 117.554   7
   9   6 -11 681.775 113.021   6
  -9  -6  10 4645.04 313.998  15
   9   6 -10 4644.78 373.667   7
   9   6 -10 4116.19 291.268   3
  -9  -6   9 5020.73 358.464  15
   9   6  -9 5628.57 436.288   7
   9   6  -9 5270.97 388.967   3
  -9  -6   8 11167.9 659.321  15
  -9  -6   8 9519.66 707.541  36
   9   6  -7 4096.79 391.369   7
   9   6  -7 4874.79 396.233   3
  -9  -6   6 2081.64 262.646  36
   9   6  -6 1953.93 253.215   7
  -9  -6   5 157.344 125.723  36
   9   6  -5 458.579 124.002   7
   9   6  -5 216.257 127.987   9
   9   6  -5 375.764 133.647   3
   9   6  -4 159.301 115.668   9
   9   6  -4 166.334 95.3152   3
   9   6  -3 3277.82 286.485   9
   9   6  -2 2763.67 239.021   9
   9   7 -10 907.103 134.714   7
   9   7  -9 1563.50 195.543   7
   9   7  -9 1828.07 174.271   3
   9   7  -8 1145.86 157.833   3
   9   7  -7 1784.60 198.955   3
   9   7  -7 1579.93 192.252   7
   9   7  -6 3134.98 256.642   7
   9   7  -5 6532.68 410.521   3
 -10   7   3 4490.45 308.983  23
 -10   7   2 7432.40 461.052  23
 -10   7   2 7436.58 452.828  25
 -10   7   1 138.415 83.1285  23
 -10   7   0 480.469 102.402  23
 -10   7   0 529.297 107.162  25
 -10   6   5 3376.26 270.346  23
 -10   6   4 1541.94 190.583  23
 -10   6   4 1513.71 187.524  25
 -10   6   3 1310.89 187.671  23
 -10   6   2 2498.00 258.160  23
 -10   6   2 2794.64 272.063  25
 -10   6   1 10384.4 656.066  23
 -10   6   1 11162.2 664.339  25
 -10   6   0 10745.5 646.110  23
 -10   6   0 10837.4 648.120  25
 -10   6  -1 462.270 119.454  23
 -10   6  -1 580.361 122.051  25
 -10   5   7 4205.41 300.383  23
 -10   5   6 7165.83 473.250  23
 -10   5   5 5975.56 439.057  23
 -10   5   4 3147.32 312.513  23
 -10   5   3 1508.43 221.260  23
 -10   5   3 1442.06 226.498  25
 -10   5   2 1598.20 227.866  23
 -10   5   2 1842.06 246.786  25
 -10   5   1 1657.12 232.331  23
 -10   5   1 2518.68 266.946  25
 -10   5   0 3200.06 296.195  23
 -10   5   0 2887.37 288.807  25
 -10   5  -1 3931.72 319.870  23
 -10   5  -1 4272.20 322.171  25
 -10   5  -2 6178.71 394.039  23
 -10   4   8 4015.81 296.759  23
 -10   4   7 725.265 139.956  23
 -10   4   6 331.677 125.693  23
 -10   4   5 325.460 147.693  23
 -10   4   5 276.638 159.293  25
 -10   4   4 3245.63 344.430  31
 -10   4   4 3354.87 332.045  23
 -10   4   4 2951.69 339.274  25
 -10   4   3 5360.89 446.548  23
 -10   4   3 5689.67 469.280  25
 -10   4   2 17850.6 1082.96  31
 -10   4   2 17339.8 1034.92  23
 -10   4   2 19266.4 1075.04  25
 -10   4   1 8353.47 641.430  31
 -10   4   1 9009.74 602.012  23
 -10   4   1 9292.08 619.462  25
 -10   4   0 3103.97 294.397  23
 -10   4   0 3017.83 296.999  25
 -10   4  -1 1280.31 181.199   5
 -10   4  -1 966.800 153.935  23
 -10   4  -1 1072.10 159.181  25
 -10   4  -2 345.247 117.952   5
 -10   4  -3 423.992 97.7634   5
 -10   3   9 558.417 101.462  23
 -10   3   8 4858.96 364.652  23
 -10   3   7 3563.56 323.507  16
 -10   3   7 4000.66 338.631  23
 -10   3   6 11699.4 705.681  23
 -10   3   6 12296.9 739.996  25
 -10   3   5 13380.7 810.908  23
 -10   3   5 14896.6 861.422  25
 -10   3   4 1655.74 234.998  23
 -10   3   4 1459.69 261.708  25
 -10   3   3 550.898 194.207  31
 -10   3   3 505.107 156.281  23
 -10   3   3 564.332 188.068  25
 -10   3   2 2929.48 348.895  31
 -10   3   2 3288.06 321.736  23
 -10   3   2 3270.56 340.331  25
 -10   3   1 1816.86 234.902   5
 -10   3   1 2108.77 276.465  31
 -10   3   1 1522.12 217.400  23
 -10   3   1 1902.48 242.583  25
 -10   3   0 3815.89 349.336   5
 -10   3   0 3838.20 351.501  31
 -10   3   0 4083.17 327.544  25
 -10   3  -1 4771.19 391.370   5
 -10   3  -2 11979.2 707.553   5
 -10   2   9 2090.46 222.699  16
 -10   2   9 2371.80 216.798  23
 -10   2   8 550.426 146.782  16
 -10   2   8 260.510 106.673  23
 -10   2   7 49.5182 100.402  31
 -10   2   7 202.939 118.741  23
 -10   2   6 7070.04 595.343  31
 -10   2   6 8743.14 589.603  23
 -10   2   5 4125.22 416.140  31
 -10   2   5 4403.66 386.654  23
 -10   2   5 4812.08 442.703  25
 -10   2   4 5107.66 421.819  23
 -10   2   4 5549.60 474.534  25
 -10   2   3 12794.5 789.338   5
 -10   2   3 12219.2 856.921  31
 -10   2   3 12609.1 777.419  23
 -10   2   3 14336.1 850.197  25
 -10   2   2 9132.15 638.560   5
 -10   2   2 8909.59 685.912  31
 -10   2   2 10111.0 654.891  25
 -10   2   1 1577.74 241.845   5
 -10   2   1 1296.31 230.466  31
 -10   2   1 1387.06 199.174  25
 -10   2   0 198.796 118.108  31
 -10   2   0-14.1202 153.177   5
 -10   2  -1 3553.15 334.804   5
 -10   2  -3 889.616 130.943   5
 -10   1  10 9991.59 593.880  16
 -10   1   9 14603.6 860.556  16
 -10   1   8 10672.2 632.323  15
 -10   1   8 10826.3 601.523  23
  10  -1  -7 12381.8 776.084   3
 -10   1   7 11334.5 747.797  31
 -10   1   6 1225.56 246.409  31
 -10   1   6 2241.65 285.921  25
 -10   1   5 1407.21 253.252  25
 -10   1   4 862.545 193.442   5
 -10   1   4 1296.66 247.046  31
 -10   1   4 1413.61 232.575  25
 -10   1   3 1568.67 249.765   5
 -10   1   3 1392.26 252.694  31
 -10   1   3 1630.90 234.614  25
 -10   1   2 7390.52 592.656  31
 -10   1   2 8100.15 586.292   5
 -10   1   1 7062.76 537.560  31
 -10   1   1 7209.36 556.799   5
  10  -1   0 2756.38 340.120   9
  10  -1   0 3112.66 300.011   3
 -10   1  -2 3700.16 320.977   5
 -10   0  10 2006.71 192.383  15
 -10   0   9 596.483 140.067  15
  10   0  -8 3855.51 353.663   3
 -10   0   8 3973.84 338.345  31
  10   0  -7 5669.70 467.082   3
 -10   0   7 4527.09 430.785  31
  10   0  -6 2448.72 332.773   3
 -10   0   6 1825.21 280.868  31
 -10   0   5 9419.76 632.479   5
 -10   0   5 8854.30 638.291  25
 -10   0   4 4527.85 413.032   5
 -10   0   4 4249.70 435.537  31
 -10   0   4 4391.99 383.257  25
 -10   0   3 5650.07 463.314   5
  10   0  -3 5002.15 475.980   3
 -10   0   2 1533.48 246.406  31
  10   0  -2 1849.06 271.320   3
 -10   0   2 1309.36 245.171   5
 -10   0   1 624.108 162.740  31
  10   0  -1 853.817 188.236   3
  10   0   0 3484.02 361.323   9
 -10   0   0 4152.63 375.539   5
  10   0   1 6107.11 451.898   9
 -10   0  -1 7492.51 498.588   5
 -10   0  -2 6840.28 442.459   5
 -10  -1  11 1676.25 164.254  15
 -10  -1  11 2112.57 198.428  16
 -10  -1  10 2345.52 255.539  16
 -10  -1  10 2379.40 232.732  15
 -10  -1   8 6929.02 502.900  31
  10   1  -8 7175.93 520.496   3
 -10  -1   7 668.227 178.301  31
  10   1  -7 770.315 201.746   3
 -10  -1   6 474.028 175.025  31
  10   1  -6 720.336 206.003   3
  10   1  -5 79.0397 156.713   3
 -10  -1   5-143.481 168.808   5
 -10  -1   4 553.071 206.115   5
 -10  -1   3 25152.5 1480.01  31
 -10  -1   3 28989.4 1511.50   5
  10   1  -3 28034.2 1522.74   3
 -10  -1   2 7490.65 559.044  31
  10   1  -2 7818.40 586.473   3
 -10  -1   1 6796.51 489.872  31
  10   1  -1 8358.85 599.099   9
 -10  -1   1 8028.70 562.429   5
  10   1  -1 6952.87 499.847   3
  10   1   0 884.997 193.173   9
 -10  -1   0 785.247 178.175   5
  10   1   1 548.994 128.576   9
 -10  -1  -1 358.854 132.289   5
 -10  -2  11 919.451 132.448  15
 -10  -2  11 1257.30 155.130  16
 -10  -2  10 182.658 107.931  16
  10   2  -9 1347.68 178.909   3
 -10  -2   8 4734.05 393.894  31
  10   2  -8 4660.59 411.041   3
  10   2  -7 3880.36 391.239   3
  10   2  -6 7354.15 586.957   3
 -10  -2   5 9556.62 647.261   5
  10   2  -5 8269.37 663.099   3
 -10  -2   4 4943.48 443.223   5
  10   2  -3 4189.19 402.937   3
 -10  -2   2 117.677 106.060  31
  10   2  -2 240.739 116.047   3
 -10  -2   2 300.309 159.748   5
 -10  -2   1 1081.68 199.408   5
  10   2   0 3110.78 313.447   9
 -10  -2   0 3583.09 296.226   5
  10   3 -11 4008.08 394.599   7
 -10  -3  11 9934.94 449.173  15
 -10  -3  10 6647.29 455.858  16
 -10  -3  10 7393.24 474.250  15
  10   3  -9 863.184 148.668   3
 -10  -3   9 958.904 167.459  16
  10   3  -8 638.801 161.033   3
  10   3  -7 228.478 142.849   3
  10   3  -6 3707.80 392.554   3
  10   3  -5 3613.38 354.968   7
  10   3  -4 4924.34 457.434   9
  10   3  -4 4741.63 419.056   3
  10   3  -3 816.234 173.754   3
  10   3  -3 1127.12 233.240   9
 -10  -3   3 921.616 196.421   5
  10   3  -2 1405.42 226.659   9
 -10  -3   2 1164.48 200.039   5
 -10  -3   1 426.812 122.547   5
  10   3   0 600.102 118.335   9
  10   4 -10 73.3281 89.7552   7
 -10  -4  10 101.852 79.4935  15
  10   4  -9 3787.96 353.733   7
  10   4  -9 3601.24 294.148   3
 -10  -4   9 3184.86 264.182  16
  10   4  -8 7020.24 425.402   3
 -10  -4   8 5801.39 364.233  16
  10   4  -7 4648.50 382.795   7
  10   4  -7 4541.56 371.347   3
  10   4  -6 2046.42 267.285   7
  10   4  -6 2586.90 286.049   3
  10   4  -6 1842.38 266.144   9
  10   4  -5 942.129 195.926   9
  10   4  -4 815.189 202.779   9
  10   4  -4 1260.95 181.834   3
  10   4  -3 793.265 170.133   9
  10   4  -3 516.928 112.444   3
  10   4  -2 525.066 133.754   9
  10   5 -10 1306.73 178.288   7
  10   5  -9 77.6127 86.7519   7
  10   5  -9 42.4989 66.9892   3
 -10  -5   9 19.3332 54.8810  15
  10   5  -8 9.60363 96.5915   7
  10   5  -8-68.8284 93.8264   3
 -10  -5   8 44.8290 65.3717  15
  10   5  -7 1274.85 186.123   7
  10   5  -7 1210.09 179.813   3
  10   5  -6 4708.29 316.603   7
  10   5  -6 2968.52 273.847   9
  10   5  -5 3191.89 266.192   3
  10   5  -5 2209.80 234.688   9
  10   5  -4 1992.77 180.648   3
  10   5  -4 1583.01 196.624   9
  10   6  -7 1253.94 140.338   3
  11  -4  -5 644.283 130.911   3
 -11   4   4 7576.07 482.879  25
 -11   4   3 8535.69 518.894  25
 -11   4   2 8628.20 502.871  25
  11  -4  -1 1207.09 155.207   3
  11  -3  -6 705.141 120.345   3
 -11   3   5 615.164 138.173  25
 -11   3   4 1085.99 159.302  25
 -11   3   3 50.9697 87.7497  25
  11  -3  -1 4280.04 325.922   3
 -11   2   7 631.495 124.041  16
  11  -2  -6 2592.91 260.203   3
  11  -2  -5 3213.20 316.186   3
  11  -2  -4 5647.71 462.360   3
 -11   2   4 6472.00 422.392  25
  11  -2  -2 1348.07 187.906   3
  11  -2  -2 156.971 146.780   9
  11  -2  -1 185.613 89.2669   3
 -11   2   1 337.981 100.004   5
 -11   1   8 4720.77 343.577  16
  11  -1  -7 3526.64 293.789   3
  11  -1  -6-56.0783 109.743   3
  11  -1  -5 995.126 189.408   3
 -11   1   4 4393.70 393.077  31
 -11   1   3 3784.66 283.545   5
  11  -1  -3 2706.49 308.819   3
 -11   1   2 4145.37 296.951   5
  11  -1  -2 3584.11 302.544   3
 -11   1   1 2050.32 213.902   5
 -11   1   0 2519.07 222.420   5
 -11   0   8 7571.78 460.362  15
  11   0  -7 10542.7 642.749   3
  11   0  -6 4618.23 387.478   3
  11   0  -5 2006.77 254.442   3
 -11   0   4 46.6975 85.2428  31
 -11   0   4-35.5496 95.2370   5
  11   0  -3 885.616 157.358   3
 -11   0   3 811.233 151.227   5
  11   0  -2 90.3796 79.5218   3
  11   0  -2 183.344 115.268   9
 -11   0   2 247.361 109.533   5
 -11  -1   9 5205.82 357.851  16
  11   1  -8 1326.30 155.691   3
  11   1  -7 29.3141 92.1179   3
  11   1  -6 443.094 135.004   3
  11   1  -5 4183.34 371.419   3
  11   1  -4 19260.1 1056.99   3
 -11  -1   3 7870.55 487.022   5
  11   1  -3 6572.08 464.664   3
  11   1  -2 8.42161 108.312   9
 -11  -1   1 92.0672 68.7372   5
  11   2  -8 485.936 106.089   3
 -11  -2   8 715.468 124.093  16
  11   2  -7 1880.22 215.398   3
  11   2  -6 2325.70 236.690   7
  11   2  -6 3532.91 303.279   3
  11   2  -5 2438.07 280.673   9
  11   2  -4 682.393 133.538   3
  11   2  -4 720.955 159.375   9
  11   3  -8-25.2034 61.6567   7
 -11  -3   8 120.597 64.1392  15
  11   3  -7 209.819 85.9631   3
  11   3  -6 164.582 97.8452   9
  11   3  -6 646.894 118.176   3
  11   3  -5 4512.53 295.890   3
  11   3  -5 2148.69 266.558   9
  11   3  -4 1725.08 222.919   9
   0   0   0    0.00    0.00   0

TITL tf-34 in P-1
REM P-1 (#2 in standard setting)
CELL 1.54184   9.263421  10.160063  11.907609 110.4394 108.3469  93.3150
ZERR    2.00   0.000344   0.000268   0.000384   0.0027   0.0032   0.0026
LATT  1
SFAC C H N O Se
UNIT 46.00 44.00 6.00 4.00 2.00
TREF
HKLF 4
END
;
_shelx_hkl_checksum                78429
_olex2_submission_special_instructions  'No special instructions were received'
_oxdiff_exptl_absorpt_empirical_details
;
Empirical correction (ABSPACK) includes:
- Absorption correction using spherical harmonics
- Frame scaling
;
_oxdiff_exptl_absorpt_empirical_full_max  1.299
_oxdiff_exptl_absorpt_empirical_full_min  0.824
