data_tf-38
_audit_creation_date               2021-03-18
_audit_creation_method
;
Olex2 1.3
(compiled 2020.11.12 svn.r5f609507 for OlexSys, GUI svn.r6272)
;
_shelx_SHELXL_version_number       '2018/3'
_audit_contact_author_address      ?
_audit_contact_author_email        ?
_audit_contact_author_name         ''
_audit_contact_author_phone        ?
_publ_contact_author_id_orcid      ?
_publ_section_references
;
Dolomanov, O.V., Bourhis, L.J., Gildea, R.J, Howard, J.A.K. & Puschmann, H.
 (2009), J. Appl. Cryst. 42, 339-341.

Sheldrick, G.M. (2015). Acta Cryst. A71, 3-8.

Sheldrick, G.M. (2015). Acta Cryst. C71, 3-8.
;
_chemical_name_common              ?
_chemical_name_systematic          ?
_chemical_formula_moiety           'C14 H11 N O Se'
_chemical_formula_sum              'C14 H11 N O Se'
_chemical_formula_weight           288.20
_chemical_melting_point            ?
_chemical_oxdiff_formula           C14H11NOSe
loop_
  _atom_type_symbol
  _atom_type_description
  _atom_type_scat_dispersion_real
  _atom_type_scat_dispersion_imag
  _atom_type_scat_source
 'C' 'C' 0.0181 0.0091 'International Tables Vol C Tables 4.2.6.8 and 6.1.1.4'
 'H' 'H' 0.0000 0.0000 'International Tables Vol C Tables 4.2.6.8 and 6.1.1.4'
 'N' 'N' 0.0311 0.0180 'International Tables Vol C Tables 4.2.6.8 and 6.1.1.4'
 'O' 'O' 0.0492 0.0322 'International Tables Vol C Tables 4.2.6.8 and 6.1.1.4'
 'Se' 'Se' -0.7943 1.1372
 'International Tables Vol C Tables 4.2.6.8 and 6.1.1.4'

_shelx_space_group_comment
;
The symmetry employed for this shelxl refinement is uniquely defined
by the following loop, which should always be used as a source of
symmetry information in preference to the above space-group names.
They are only intended as comments.
;
_space_group_crystal_system        'monoclinic'
_space_group_IT_number             14
_space_group_name_H-M_alt          'P 1 21/c 1'
_space_group_name_Hall             '-P 2ybc'
loop_
  _space_group_symop_operation_xyz
 'x, y, z'
 '-x, y+1/2, -z+1/2'
 '-x, -y, -z'
 'x, -y-1/2, z-1/2'

_cell_length_a                     16.2262(3)
_cell_length_b                     6.03740(10)
_cell_length_c                     12.3400(2)
_cell_angle_alpha                  90
_cell_angle_beta                   106.925(2)
_cell_angle_gamma                  90
_cell_volume                       1156.52(4)
_cell_formula_units_Z              4
_cell_measurement_reflns_used      5499
_cell_measurement_temperature      100(1)
_cell_measurement_theta_max        76.7250
_cell_measurement_theta_min        2.8480
_shelx_estimated_absorpt_T_max     ?
_shelx_estimated_absorpt_T_min     ?
_exptl_absorpt_coefficient_mu      4.234
_exptl_absorpt_correction_T_max    1.000
_exptl_absorpt_correction_T_min    0.693
_exptl_absorpt_correction_type     gaussian
_exptl_absorpt_process_details
;
CrysAlisPro 1.171.40.67a (Rigaku Oxford Diffraction, 2019)
Numerical absorption correction based on gaussian integration over
			a multifaceted crystal model
Empirical absorption correction using spherical harmonics,
 implemented in SCALE3 ABSPACK scaling algorithm.
;
_exptl_absorpt_special_details     ?
_exptl_crystal_colour              colourless
_exptl_crystal_colour_primary      colourless
_exptl_crystal_density_diffrn      1.655
_exptl_crystal_density_meas        ?
_exptl_crystal_density_method      ?
_exptl_crystal_description         plate
_exptl_crystal_F_000               576
loop_
  _exptl_crystal_face_index_h
  _exptl_crystal_face_index_k
  _exptl_crystal_face_index_l
  _exptl_crystal_face_perp_dist
 1 0 0 0.0092
 -1 0 0 0.0074
 -4 0 8 0.0332
 4 0 -8 0.0332
 0 -4 0 0.0380
 0 4 0 0.0507

_exptl_crystal_size_max            0.098
_exptl_crystal_size_mid            0.066
_exptl_crystal_size_min            0.017
loop_
  _exptl_oxdiff_crystal_face_indexfrac_h
  _exptl_oxdiff_crystal_face_indexfrac_k
  _exptl_oxdiff_crystal_face_indexfrac_l
  _exptl_oxdiff_crystal_face_x
  _exptl_oxdiff_crystal_face_y
  _exptl_oxdiff_crystal_face_z
 0.9983 -0.0175 0.0045 -0.0225 0.0133 -0.0958
 -0.9983 0.0175 -0.0045 0.0225 -0.0133 0.0958
 -3.5633 0.4101 7.9546 0.7097 -0.6731 -0.2081
 3.5633 -0.4101 -7.9546 -0.7097 0.6731 0.2081
 -0.3591 -3.9154 -0.1407 -0.7574 -0.6473 0.0858
 0.4645 3.9130 0.1647 0.7566 0.6466 -0.0975

_exptl_transmission_factor_max     ?
_exptl_transmission_factor_min     ?
_diffrn_reflns_av_R_equivalents    0.0442
_diffrn_reflns_av_unetI/netI       0.0355
_diffrn_reflns_Laue_measured_fraction_full  0.998
_diffrn_reflns_Laue_measured_fraction_max  0.984
_diffrn_reflns_limit_h_max         16
_diffrn_reflns_limit_h_min         -20
_diffrn_reflns_limit_k_max         7
_diffrn_reflns_limit_k_min         -7
_diffrn_reflns_limit_l_max         15
_diffrn_reflns_limit_l_min         -15
_diffrn_reflns_number              11405
_diffrn_reflns_point_group_measured_fraction_full  0.998
_diffrn_reflns_point_group_measured_fraction_max  0.984
_diffrn_reflns_theta_full          67.684
_diffrn_reflns_theta_max           76.963
_diffrn_reflns_theta_min           2.847
_diffrn_ambient_environment        N~2~
_diffrn_ambient_temperature        100(1)
_diffrn_detector                   'Hybrid Pixel Array Detector'
_diffrn_detector_area_resol_mean   10.0000
_diffrn_detector_type              HyPix
_diffrn_measured_fraction_theta_full  0.998
_diffrn_measured_fraction_theta_max  0.984
_diffrn_measurement_details
;
List of Runs (angles in degrees, time in seconds):

  # Type    Start    End  Width  t~exp~   \w     \q     \k     \f   Frames
--------------------------------------------------------------------------
  1  \w    -57.00 -18.00   0.50    0.40    --  -48.20  57.00-120.00   78
  2  \w    -15.00  18.00   0.50    0.40    --  -48.20  57.00-120.00   66
  3  \w    -62.00  21.00   0.50    0.40    --  -48.20  57.00   0.00  166
  4  \w    -86.00 -13.00   0.50    0.40    --  -48.20 125.00 -30.00  146
  5  \w     38.00 110.00   0.50    0.40    --   48.20  19.00-120.00  144
  6  \w    103.00 131.00   0.50    1.59    --  107.75  30.00-180.00   56
  7  \w    145.00 173.00   0.50    1.59    --  107.75  15.00-150.00   56
  8  \w    143.00 178.00   0.50    1.59    --  107.75  30.00-180.00   70
  9  \w     96.00 140.00   0.50    1.59    --  107.75  15.00-150.00   88
 10  \w     92.00 174.00   0.50    1.59    --  107.75  61.00-120.00  164
 11  \w    109.00 150.00   0.50    1.59    --  107.75  77.00  30.00   82
 12  \w    109.00 154.00   0.50    1.59    --  107.75  77.00 120.00   90
 13  \w     95.00 153.00   0.50    1.59    --  107.75 125.00 120.00  116
 14  \w     91.00 166.00   0.50    1.59    --  107.75  61.00 -90.00  150
 15  \w     74.00 109.00   0.50    1.59    --  107.75 -77.00-150.00   70
 16  \w     77.00 104.00   0.50    1.59    --  107.75 -94.00-150.00   54
 17  \w     36.00  63.00   0.50    1.59    --  107.75 -77.00-150.00   54
 18  \w     43.00 106.00   0.50    1.59    --  107.75 -94.00-180.00  126
 19  \w     36.00  72.00   0.50    1.59    --  107.75 -94.00-150.00   72
 20  \w     58.00 112.00   0.50    1.59    --  107.75-125.00 -30.00  108
 21  \w     36.00 111.00   0.50    1.59    --  107.75-125.00   0.00  150
 22  \w     73.00 109.00   0.50    1.59    --  107.75-125.00 120.00   72
 23  \w     40.00 103.00   0.50    1.59    --  107.75 -94.00  60.00  126
 24  \w     35.00 106.00   0.50    1.59    --  107.75 -94.00 150.00  142
 25  \w     39.00  99.00   0.50    1.59    --  107.75 -94.00 120.00  120
 26  \w     36.00 104.00   0.50    1.59    --  107.75 -94.00   0.00  136
 27  \w     36.00  68.00   0.50    1.59    --  107.75-125.00 120.00   64
 28  \w     38.00  68.00   0.50    1.59    --  107.75 -61.00   0.00   60
 29  \w   -120.00 -83.00   0.50    0.40    --  -48.20 -57.00 -60.00   74
 30  \w   -119.00 -93.00   0.50    0.40    --  -48.20 -57.00 -90.00   52
 31  \w   -120.00 -95.00   0.50    0.40    --  -48.20-125.00   0.00   50
;
_diffrn_measurement_device         'four-circle diffractometer'
_diffrn_measurement_device_type    'XtaLAB Synergy, Dualflex, HyPix'
_diffrn_measurement_method         '\w scans'
_diffrn_orient_matrix_type        
 'CrysAlisPro convention (1999,Acta A55,543-557)'
_diffrn_orient_matrix_UB_11        -0.0194877000
_diffrn_orient_matrix_UB_12        0.1926973000
_diffrn_orient_matrix_UB_13        0.0705583000
_diffrn_orient_matrix_UB_21        0.0166359000
_diffrn_orient_matrix_UB_22        0.1668711000
_diffrn_orient_matrix_UB_23        -0.0857619000
_diffrn_orient_matrix_UB_31        -0.0958807000
_diffrn_orient_matrix_UB_32        -0.0106534000
_diffrn_orient_matrix_UB_33        -0.0685591000
_diffrn_radiation_monochromator    mirror
_diffrn_radiation_probe            x-ray
_diffrn_radiation_type             'Cu K\a'
_diffrn_radiation_wavelength       1.54184
_diffrn_source                     'micro-focus sealed X-ray tube'
_diffrn_source_type                'PhotonJet (Cu) X-ray Source'
_reflns_Friedel_coverage           0.000
_reflns_Friedel_fraction_full      .
_reflns_Friedel_fraction_max       .
_reflns_number_gt                  2186
_reflns_number_total               2412
_reflns_odcompleteness_completeness  98.86
_reflns_odcompleteness_iscentric   1
_reflns_odcompleteness_theta       75.12
_reflns_special_details
;
 Reflections were merged by SHELXL according to the crystal
 class for the calculation of statistics and refinement.
 
 _reflns_Friedel_fraction is defined as the number of unique
 Friedel pairs measured divided by the number that would be
 possible theoretically, ignoring centric projections and
 systematic absences.
;
_reflns_threshold_expression       'I > 2\s(I)'
_computing_cell_refinement         'CrysAlisPro 1.171.40.67a (Rigaku OD, 2019)'
_computing_data_collection         'CrysAlisPro 1.171.40.67a (Rigaku OD, 2019)'
_computing_data_reduction          'CrysAlisPro 1.171.40.67a (Rigaku OD, 2019)'
_computing_molecular_graphics      'Olex2 1.3 (Dolomanov et al., 2009)'
_computing_publication_material    'Olex2 1.3 (Dolomanov et al., 2009)'
_computing_structure_refinement    'SHELXL 2018/3 (Sheldrick, 2015)'
_computing_structure_solution      'SHELXT 2018/2 (Sheldrick, 2018)'
_refine_diff_density_max           2.130
_refine_diff_density_min           -0.729
_refine_diff_density_rms           0.138
_refine_ls_extinction_coef         .
_refine_ls_extinction_method       none
_refine_ls_goodness_of_fit_ref     1.065
_refine_ls_hydrogen_treatment      constr
_refine_ls_matrix_type             full
_refine_ls_number_parameters       155
_refine_ls_number_reflns           2412
_refine_ls_number_restraints       0
_refine_ls_R_factor_all            0.0465
_refine_ls_R_factor_gt             0.0433
_refine_ls_restrained_S_all        1.065
_refine_ls_shift/su_max            0.001
_refine_ls_shift/su_mean           0.000
_refine_ls_structure_factor_coef   Fsqd
_refine_ls_weighting_details      
 'w=1/[\s^2^(Fo^2^)+(0.0904P)^2^+0.4315P] where P=(Fo^2^+2Fc^2^)/3'
_refine_ls_weighting_scheme        calc
_refine_ls_wR_factor_gt            0.1175
_refine_ls_wR_factor_ref           0.1206
_refine_special_details            ?
_olex2_refinement_description
;
1.a Aromatic/amide H refined with riding coordinates:
 C3(H3), C4(H4), C5(H5), C6(H6), C9(H9), C10(H10), C12(H12), C13(H13)
1.b Idealised Me refined as rotating group:
 C14(H14A,H14B,H14C)
;
_atom_sites_solution_hydrogens     geom
_atom_sites_solution_primary       dual
_atom_sites_solution_secondary     ?
loop_
  _atom_site_label
  _atom_site_type_symbol
  _atom_site_fract_x
  _atom_site_fract_y
  _atom_site_fract_z
  _atom_site_U_iso_or_equiv
  _atom_site_adp_type
  _atom_site_occupancy
  _atom_site_site_symmetry_order
  _atom_site_calc_flag
  _atom_site_refinement_flags_posn
  _atom_site_refinement_flags_adp
  _atom_site_refinement_flags_occupancy
  _atom_site_disorder_assembly
  _atom_site_disorder_group
 Se1 Se 0.78070(2) 0.67181(4) 0.09240(2) 0.02086(16) Uani 1 1 d . . . . .
 O1 O 0.80589(14) 0.6153(4) 0.42045(17) 0.0268(4) Uani 1 1 d . . . . .
 N1 N 0.76582(15) 0.5531(4) 0.22842(19) 0.0209(5) Uani 1 1 d . . . . .
 C1 C 0.84710(17) 0.8948(5) 0.1854(2) 0.0211(5) Uani 1 1 d . . . . .
 C2 C 0.85352(18) 0.8603(5) 0.2987(3) 0.0227(6) Uani 1 1 d . . . . .
 C3 C 0.90029(18) 1.0071(5) 0.3813(2) 0.0237(5) Uani 1 1 d . . . . .
 H3 H 0.905156 0.983638 0.457407 0.028 Uiso 1 1 calc R U . . .
 C4 C 0.93918(19) 1.1877(4) 0.3480(3) 0.0248(6) Uani 1 1 d . . . . .
 H4 H 0.970563 1.286766 0.402127 0.030 Uiso 1 1 calc R U . . .
 C5 C 0.93172(18) 1.2227(5) 0.2335(3) 0.0251(6) Uani 1 1 d . . . . .
 H5 H 0.958323 1.345249 0.212541 0.030 Uiso 1 1 calc R U . . .
 C6 C 0.88542(17) 1.0783(4) 0.1505(2) 0.0226(5) Uani 1 1 d . . . . .
 H6 H 0.880046 1.102710 0.074321 0.027 Uiso 1 1 calc R U . . .
 C7 C 0.80739(19) 0.6663(4) 0.3245(3) 0.0220(6) Uani 1 1 d . . . . .
 C8 C 0.71390(18) 0.3587(4) 0.2209(3) 0.0212(5) Uani 1 1 d . . . . .
 C9 C 0.70367(19) 0.2520(5) 0.3165(3) 0.0260(6) Uani 1 1 d . . . . .
 H9 H 0.730771 0.306234 0.388655 0.031 Uiso 1 1 calc R U . . .
 C10 C 0.65228(19) 0.0634(5) 0.3023(3) 0.0281(6) Uani 1 1 d . . . . .
 H10 H 0.646032 -0.007534 0.366343 0.034 Uiso 1 1 calc R U . . .
 C11 C 0.61016(18) -0.0231(5) 0.1970(3) 0.0266(6) Uani 1 1 d . . . . .
 C12 C 0.6211(2) 0.0842(5) 0.1034(3) 0.0296(6) Uani 1 1 d . . . . .
 H12 H 0.593860 0.029088 0.031551 0.036 Uiso 1 1 calc R U . . .
 C13 C 0.6722(2) 0.2733(5) 0.1142(3) 0.0285(6) Uani 1 1 d . . . . .
 H13 H 0.678361 0.342762 0.049751 0.034 Uiso 1 1 calc R U . . .
 C14 C 0.5535(2) -0.2271(6) 0.1858(3) 0.0338(7) Uani 1 1 d . . . . .
 H14A H 0.580720 -0.332057 0.243591 0.051 Uiso 1 1 calc R U . . .
 H14B H 0.545473 -0.292737 0.112612 0.051 Uiso 1 1 calc R U . . .
 H14C H 0.498636 -0.185318 0.194209 0.051 Uiso 1 1 calc R U . . .

loop_
  _atom_site_aniso_label
  _atom_site_aniso_U_11
  _atom_site_aniso_U_22
  _atom_site_aniso_U_33
  _atom_site_aniso_U_23
  _atom_site_aniso_U_13
  _atom_site_aniso_U_12
 Se1 0.0305(2) 0.0178(2) 0.0160(2) 0.00004(9) 0.00930(14) 0.00022(9)
 O1 0.0423(12) 0.0224(9) 0.0180(10) -0.0017(8) 0.0123(8) -0.0033(9)
 N1 0.0306(11) 0.0175(10) 0.0170(10) 0.0005(8) 0.0103(9) 0.0001(8)
 C1 0.0272(13) 0.0191(12) 0.0184(13) -0.0004(10) 0.0087(10) 0.0027(10)
 C2 0.0253(13) 0.0185(12) 0.0252(14) 0.0008(10) 0.0088(11) 0.0044(10)
 C3 0.0280(13) 0.0256(13) 0.0189(12) -0.0013(10) 0.0091(10) 0.0020(10)
 C4 0.0282(14) 0.0194(13) 0.0271(15) -0.0025(10) 0.0087(11) 0.0002(10)
 C5 0.0274(13) 0.0206(12) 0.0295(15) 0.0019(11) 0.0116(11) 0.0003(11)
 C6 0.0277(13) 0.0195(13) 0.0222(13) 0.0018(10) 0.0099(10) 0.0015(10)
 C7 0.0284(14) 0.0205(14) 0.0191(13) -0.0006(9) 0.0102(10) 0.0034(9)
 C8 0.0265(13) 0.0163(11) 0.0233(14) 0.0005(10) 0.0110(10) 0.0017(10)
 C9 0.0287(14) 0.0267(15) 0.0230(13) 0.0000(11) 0.0083(10) -0.0029(11)
 C10 0.0327(14) 0.0264(14) 0.0263(15) 0.0065(11) 0.0103(11) 0.0008(11)
 C11 0.0264(13) 0.0218(13) 0.0337(15) 0.0000(11) 0.0119(11) 0.0017(10)
 C12 0.0377(15) 0.0242(15) 0.0264(15) -0.0053(11) 0.0085(12) -0.0050(12)
 C13 0.0399(16) 0.0251(14) 0.0234(14) -0.0007(12) 0.0137(12) -0.0037(12)
 C14 0.0327(16) 0.0232(14) 0.0462(19) 0.0001(13) 0.0124(13) -0.0033(12)

_geom_special_details
;
 All esds (except the esd in the dihedral angle between two l.s. planes)
 are estimated using the full covariance matrix.  The cell esds are taken
 into account individually in the estimation of esds in distances, angles
 and torsion angles; correlations between esds in cell parameters are only
 used when they are defined by crystal symmetry.  An approximate (isotropic)
 treatment of cell esds is used for estimating esds involving l.s. planes.
;
loop_
  _geom_bond_atom_site_label_1
  _geom_bond_atom_site_label_2
  _geom_bond_distance
  _geom_bond_site_symmetry_2
  _geom_bond_publ_flag
 Se1 N1 1.904(2) . ?
 Se1 C1 1.889(3) . ?
 O1 C7 1.230(4) . ?
 N1 C7 1.365(4) . ?
 N1 C8 1.432(4) . ?
 C1 C2 1.387(4) . ?
 C1 C6 1.399(4) . ?
 C2 C3 1.397(4) . ?
 C2 C7 1.474(4) . ?
 C3 H3 0.9300 . ?
 C3 C4 1.381(4) . ?
 C4 H4 0.9300 . ?
 C4 C5 1.399(4) . ?
 C5 H5 0.9300 . ?
 C5 C6 1.388(4) . ?
 C6 H6 0.9300 . ?
 C8 C9 1.396(4) . ?
 C8 C13 1.392(4) . ?
 C9 H9 0.9300 . ?
 C9 C10 1.392(4) . ?
 C10 H10 0.9300 . ?
 C10 C11 1.383(4) . ?
 C11 C12 1.379(4) . ?
 C11 C14 1.519(4) . ?
 C12 H12 0.9300 . ?
 C12 C13 1.393(4) . ?
 C13 H13 0.9300 . ?
 C14 H14A 0.9600 . ?
 C14 H14B 0.9600 . ?
 C14 H14C 0.9600 . ?

loop_
  _geom_angle_atom_site_label_1
  _geom_angle_atom_site_label_2
  _geom_angle_atom_site_label_3
  _geom_angle
  _geom_angle_site_symmetry_1
  _geom_angle_site_symmetry_3
  _geom_angle_publ_flag
 C1 Se1 N1 85.92(11) . . ?
 C7 N1 Se1 114.83(18) . . ?
 C7 N1 C8 126.8(2) . . ?
 C8 N1 Se1 118.33(18) . . ?
 C2 C1 Se1 111.6(2) . . ?
 C2 C1 C6 121.3(3) . . ?
 C6 C1 Se1 127.1(2) . . ?
 C1 C2 C3 120.4(3) . . ?
 C1 C2 C7 116.3(3) . . ?
 C3 C2 C7 123.3(3) . . ?
 C2 C3 H3 120.6 . . ?
 C4 C3 C2 118.8(3) . . ?
 C4 C3 H3 120.6 . . ?
 C3 C4 H4 119.8 . . ?
 C3 C4 C5 120.5(3) . . ?
 C5 C4 H4 119.8 . . ?
 C4 C5 H5 119.4 . . ?
 C6 C5 C4 121.3(3) . . ?
 C6 C5 H5 119.4 . . ?
 C1 C6 H6 121.2 . . ?
 C5 C6 C1 117.7(3) . . ?
 C5 C6 H6 121.2 . . ?
 O1 C7 N1 124.6(3) . . ?
 O1 C7 C2 124.1(3) . . ?
 N1 C7 C2 111.3(2) . . ?
 C9 C8 N1 122.4(3) . . ?
 C13 C8 N1 118.7(3) . . ?
 C13 C8 C9 118.9(3) . . ?
 C8 C9 H9 120.5 . . ?
 C10 C9 C8 119.0(3) . . ?
 C10 C9 H9 120.5 . . ?
 C9 C10 H10 118.6 . . ?
 C11 C10 C9 122.8(3) . . ?
 C11 C10 H10 118.6 . . ?
 C10 C11 C14 120.8(3) . . ?
 C12 C11 C10 117.4(3) . . ?
 C12 C11 C14 121.8(3) . . ?
 C11 C12 H12 119.2 . . ?
 C11 C12 C13 121.5(3) . . ?
 C13 C12 H12 119.2 . . ?
 C8 C13 C12 120.3(3) . . ?
 C8 C13 H13 119.8 . . ?
 C12 C13 H13 119.8 . . ?
 C11 C14 H14A 109.5 . . ?
 C11 C14 H14B 109.5 . . ?
 C11 C14 H14C 109.5 . . ?
 H14A C14 H14B 109.5 . . ?
 H14A C14 H14C 109.5 . . ?
 H14B C14 H14C 109.5 . . ?

loop_
  _geom_torsion_atom_site_label_1
  _geom_torsion_atom_site_label_2
  _geom_torsion_atom_site_label_3
  _geom_torsion_atom_site_label_4
  _geom_torsion
  _geom_torsion_site_symmetry_1
  _geom_torsion_site_symmetry_2
  _geom_torsion_site_symmetry_3
  _geom_torsion_site_symmetry_4
  _geom_torsion_publ_flag
 Se1 N1 C7 O1 -179.7(2) . . . . ?
 Se1 N1 C7 C2 1.1(3) . . . . ?
 Se1 N1 C8 C9 176.0(2) . . . . ?
 Se1 N1 C8 C13 -4.1(3) . . . . ?
 Se1 C1 C2 C3 179.8(2) . . . . ?
 Se1 C1 C2 C7 -1.4(3) . . . . ?
 Se1 C1 C6 C5 180.0(2) . . . . ?
 N1 Se1 C1 C2 1.5(2) . . . . ?
 N1 Se1 C1 C6 -177.2(3) . . . . ?
 N1 C8 C9 C10 -179.8(3) . . . . ?
 N1 C8 C13 C12 179.9(3) . . . . ?
 C1 C2 C3 C4 0.6(4) . . . . ?
 C1 C2 C7 O1 -179.0(3) . . . . ?
 C1 C2 C7 N1 0.2(4) . . . . ?
 C2 C1 C6 C5 1.3(4) . . . . ?
 C2 C3 C4 C5 0.0(4) . . . . ?
 C3 C2 C7 O1 -0.2(5) . . . . ?
 C3 C2 C7 N1 178.9(3) . . . . ?
 C3 C4 C5 C6 0.0(4) . . . . ?
 C4 C5 C6 C1 -0.7(4) . . . . ?
 C6 C1 C2 C3 -1.3(4) . . . . ?
 C6 C1 C2 C7 177.5(2) . . . . ?
 C7 N1 C8 C9 -3.8(4) . . . . ?
 C7 N1 C8 C13 176.2(3) . . . . ?
 C7 C2 C3 C4 -178.1(3) . . . . ?
 C8 N1 C7 O1 0.0(5) . . . . ?
 C8 N1 C7 C2 -179.1(2) . . . . ?
 C8 C9 C10 C11 -0.4(5) . . . . ?
 C9 C8 C13 C12 -0.1(5) . . . . ?
 C9 C10 C11 C12 0.5(5) . . . . ?
 C9 C10 C11 C14 -178.9(3) . . . . ?
 C10 C11 C12 C13 -0.4(5) . . . . ?
 C11 C12 C13 C8 0.2(5) . . . . ?
 C13 C8 C9 C10 0.2(4) . . . . ?
 C14 C11 C12 C13 179.0(3) . . . . ?

_shelx_res_file
;
TITL tf-38_a.res in P2(1)/c
    tf-38.res
    created by SHELXL-2018/3 at 12:54:24 on 15-Jun-2020
REM Old TITL tf-38 in P2/c
REM SHELXT solution in P2(1)/c: R1 0.094, Rweak 0.025, Alpha 0.032
REM <I/s> 0.548 for 230 systematic absences, Orientation as input
REM Formula found by SHELXT: C14 N O Se
CELL 1.54184 16.2262 6.0374 12.34 90 106.925 90
ZERR 4 0.0003 0.0001 0.0002 0 0.002 0
LATT 1
SYMM -X,0.5+Y,0.5-Z
SFAC C H N O Se
UNIT 56 44 4 4 4

L.S. 4 0 0
PLAN  5
CONF
BOND
list 4
fmap 2 53
MORE -1
BOND $H
ACTA
REM <olex2.extras>
REM <HklSrc "%.\\tf-38.hkl">
REM </olex2.extras>

WGHT    0.090400    0.431500
FVAR       0.46828
SE1   5    0.780703    0.671809    0.092399    11.00000    0.03045    0.01778 =
         0.01596    0.00004    0.00930    0.00022
O1    4    0.805892    0.615295    0.420446    11.00000    0.04234    0.02241 =
         0.01800   -0.00174    0.01229   -0.00327
N1    3    0.765818    0.553093    0.228418    11.00000    0.03057    0.01746 =
         0.01697    0.00054    0.01031    0.00006
C1    1    0.847103    0.894761    0.185410    11.00000    0.02720    0.01915 =
         0.01842   -0.00038    0.00873    0.00274
C2    1    0.853520    0.860259    0.298705    11.00000    0.02531    0.01846 =
         0.02520    0.00076    0.00876    0.00443
C3    1    0.900289    1.007085    0.381309    11.00000    0.02797    0.02557 =
         0.01894   -0.00126    0.00910    0.00201
AFIX  43
H3    2    0.905156    0.983638    0.457407    11.00000   -1.20000
AFIX   0
C4    1    0.939182    1.187699    0.348016    11.00000    0.02823    0.01942 =
         0.02714   -0.00252    0.00867    0.00023
AFIX  43
H4    2    0.970563    1.286766    0.402127    11.00000   -1.20000
AFIX   0
C5    1    0.931723    1.222747    0.233470    11.00000    0.02737    0.02065 =
         0.02951    0.00192    0.01160    0.00027
AFIX  43
H5    2    0.958323    1.345249    0.212541    11.00000   -1.20000
AFIX   0
C6    1    0.885417    1.078317    0.150483    11.00000    0.02774    0.01946 =
         0.02217    0.00177    0.00995    0.00149
AFIX  43
H6    2    0.880046    1.102710    0.074321    11.00000   -1.20000
AFIX   0
C7    1    0.807395    0.666285    0.324509    11.00000    0.02845    0.02046 =
         0.01910   -0.00056    0.01021    0.00339
C8    1    0.713898    0.358661    0.220878    11.00000    0.02652    0.01625 =
         0.02328    0.00047    0.01100    0.00172
C9    1    0.703668    0.252041    0.316519    11.00000    0.02867    0.02666 =
         0.02303   -0.00005    0.00828   -0.00294
AFIX  43
H9    2    0.730771    0.306234    0.388655    11.00000   -1.20000
AFIX   0
C10   1    0.652284    0.063361    0.302292    11.00000    0.03266    0.02644 =
         0.02631    0.00648    0.01030    0.00079
AFIX  43
H10   2    0.646032   -0.007534    0.366343    11.00000   -1.20000
AFIX   0
C11   1    0.610156   -0.023067    0.196953    11.00000    0.02640    0.02180 =
         0.03367   -0.00004    0.01191    0.00173
C12   1    0.621137    0.084208    0.103435    11.00000    0.03772    0.02423 =
         0.02636   -0.00525    0.00849   -0.00498
AFIX  43
H12   2    0.593860    0.029088    0.031551    11.00000   -1.20000
AFIX   0
C13   1    0.672157    0.273261    0.114180    11.00000    0.03986    0.02510 =
         0.02339   -0.00066    0.01373   -0.00368
AFIX  43
H13   2    0.678361    0.342762    0.049751    11.00000   -1.20000
AFIX   0
C14   1    0.553540   -0.227052    0.185817    11.00000    0.03266    0.02316 =
         0.04620    0.00008    0.01240   -0.00329
AFIX 137
H14A  2    0.580720   -0.332057    0.243591    11.00000   -1.50000
H14B  2    0.545473   -0.292737    0.112612    11.00000   -1.50000
H14C  2    0.498636   -0.185318    0.194209    11.00000   -1.50000
AFIX   0
HKLF 4




REM  tf-38_a.res in P2(1)/c
REM wR2 = 0.1206, GooF = S = 1.065, Restrained GooF = 1.065 for all data
REM R1 = 0.0433 for 2186 Fo > 4sig(Fo) and 0.0465 for all 2412 data
REM 155 parameters refined using 0 restraints

END

WGHT      0.0904      0.4315

REM Highest difference peak  2.130,  deepest hole -0.729,  1-sigma level  0.138
Q1    1   0.7140  0.6790  0.0692  11.00000  0.05    2.13
Q2    1   0.8446  0.6779  0.1142  11.00000  0.05    2.09
Q3    1   0.6250  0.2158  0.1000  11.00000  0.05    0.50
Q4    1   0.7284  0.4823  0.2144  11.00000  0.05    0.45
Q5    1   0.6622  0.1883  0.3013  11.00000  0.05    0.41
;
_shelx_res_checksum                82693
_shelx_hkl_file
;
  -1   0   0  594.69   27.23
  -2   0   0 6467.20  290.81
  -3   0   0 1125.53   48.62
  -3   0   0 1122.26   48.31
  -4   0   0   12.15    3.38
  -4   0   0   14.69    2.22
  -4   0   0   21.22    3.23
  -5   0   0 1125.36   51.65
  -5   0   0 1136.66   51.22
  -5   0   0 1037.82   49.89
  -6   0   0  348.90   17.93
  -6   0   0  385.26   19.68
  -6   0   0  372.69   20.02
  -7   0   0 2223.14  101.72
  -7   0   0 2359.77  102.52
  -7   0   0 2099.93   99.60
  -8   0   0   96.23    8.47
  -8   0   0   67.13    7.11
  -9   0   0  927.81   46.12
  -9   0   0  855.26   45.03
 -10   0   0  153.29   12.38
 -10   0   0  160.13   13.60
 -10   0   0  163.63    9.11
 -11   0   0  482.94   22.27
 -11   0   0  448.18   23.41
 -11   0   0  443.30   28.20
 -11   0   0  422.69   26.91
 -11   0   0  445.25   22.24
 -11   0   0  451.70   22.38
 -11   0   0  450.63   22.22
 -11   0   0  465.57   22.72
 -11   0   0  441.59   22.41
 -11   0   0  472.30   22.89
 -11   0   0  459.16   22.29
 -11   0   0  449.66   22.29
 -12   0   0  600.81   27.79
 -12   0   0  546.18   33.21
 -12   0   0  589.30   34.99
 -12   0   0  571.82   27.90
 -12   0   0  545.73   27.67
 -12   0   0  561.89   27.78
 -12   0   0  570.25   28.39
 -12   0   0  595.99   27.89
 -12   0   0  585.39   28.06
 -12   0   0  582.95   27.85
 -12   0   0  560.79   28.19
 -13   0   0  302.67   15.84
 -13   0   0  267.75   22.34
 -13   0   0  281.03   20.90
 -13   0   0  304.40   16.01
 -13   0   0  298.42   15.82
 -13   0   0  293.64   15.72
 -13   0   0  305.19   15.95
 -13   0   0  322.84   16.27
 -13   0   0  298.28   16.55
 -13   0   0  315.72   16.02
 -13   0   0  320.11   16.56
 -14   0   0  476.24   23.23
 -14   0   0  464.05   23.33
 -14   0   0  432.88   23.35
 -14   0   0  503.36   24.02
 -14   0   0  459.62   23.46
 -14   0   0  454.48   23.86
 -14   0   0  474.29   23.60
 -14   0   0  482.04   23.40
 -15   0   0    7.59    2.85
 -15   0   0    9.42    2.82
 -15   0   0    8.11    3.09
 -15   0   0    9.48    3.36
 -15   0   0   12.31    3.32
 -15   0   0   19.76    6.88
 -16   0   0  230.86   12.75
 -16   0   0  231.21   13.37
 -16   0   0  252.71   13.25
 -16   0   0  235.80   12.65
 -16   0   0  243.52   13.09
 -17   0   0    4.97    2.13
 -17   0   0   -2.23    2.85
 -17   0   0    3.77    2.54
 -18   0   0  304.13   15.31
   0   1   0    2.24    1.93
   1   1   0 1997.63   83.77
  -1   1   0 1813.96   83.67
   1   1   0 1751.12   82.98
  -2   1   0 1841.83   75.11
   2   1   0 1680.54   75.18
   3   1   0 2418.20  108.77
  -3  -1   0 2485.40  109.47
  -3   1   0 2260.57  109.06
  -3   1   0 2402.96  108.47
  -4  -1   0 9966.46  439.55
  -4   1   0 9560.96  437.71
  -4  -1   0 9633.11  439.09
  -4   1   0 9557.69  438.48
   4   1   0 9934.80  438.17
  -4   1   0 9999.00  439.02
  -5  -1   0  243.75   14.33
  -5   1   0  254.38   13.14
  -5  -1   0  221.53   13.57
  -5   1   0  249.28   13.89
  -5   1   0  222.86   11.56
   5   1   0  235.54   12.15
  -6   1   0 1323.20   63.22
  -6   1   0 1354.43   64.17
  -6  -1   0 1352.97   64.53
  -6  -1   0 1355.00   63.84
  -6  -1   0 1326.47   64.55
  -7  -1   0   12.35    4.27
  -7   1   0   13.62    3.62
  -7  -1   0    9.86    4.27
  -7   1   0   21.11    4.49
  -8   1   0  954.45   48.14
  -8  -1   0 1015.32   49.86
  -8  -1   0  941.77   47.55
  -8   1   0 1049.83   49.77
  -9  -1   0   -1.99    3.80
  -9   1   0   -1.33    3.76
  -9  -1   0   -2.05    2.61
  -9   1   0    2.07    3.30
 -10   1   0  781.76   38.56
 -10  -1   0  805.28   43.10
 -10   1   0  819.57   41.79
 -10   1   0  872.36   43.61
 -10  -1   0  728.14   39.68
 -10   1   0  797.02   37.77
 -10  -1   0  797.57   37.79
 -10  -1   0  813.56   37.80
 -10   1   0  829.81   37.88
 -10   1   0  792.02   37.66
 -10  -1   0  816.44   38.27
 -10  -1   0  785.95   37.79
 -10  -1   0  795.67   37.42
 -11   1   0  128.86    7.61
 -11   1   0  131.91    8.88
 -11   1   0  124.98   11.13
 -11   1   0  126.71   12.35
 -11   1   0  112.88    7.26
 -11  -1   0  122.98    7.85
 -11   1   0  133.74    8.00
 -11  -1   0  125.07    7.84
 -11   1   0  127.80    8.04
 -11  -1   0  127.84    7.81
 -11  -1   0  125.31    8.38
 -11   1   0  119.20    7.58
 -11   1   0  132.19    8.07
 -11   1   0  128.58    7.77
 -11   1   0  129.87    7.59
 -11  -1   0  123.51    7.96
 -11   1   0  131.55    7.83
 -12   1   0   81.16   11.16
 -12   1   0   87.93   10.45
 -12  -1   0  107.29    6.92
 -12   1   0  115.87    7.20
 -12  -1   0  120.04    7.58
 -12  -1   0  109.27    7.51
 -12   1   0  127.95    7.70
 -12  -1   0  126.68    7.84
 -12   1   0   99.51    7.61
 -12  -1   0  114.30    7.44
 -12   1   0  112.19    7.35
 -12   1   0  110.10    7.15
 -12   1   0  113.49    7.52
 -12   1   0  117.68    7.88
 -12  -1   0  124.83    8.30
 -12   1   0  119.78    7.82
 -13   1   0  199.73   17.55
 -13  -1   0  175.37   10.32
 -13   1   0  201.42   11.13
 -13  -1   0  198.19   11.15
 -13   1   0  170.18   10.42
 -13   1   0  173.48   10.51
 -13  -1   0  204.75   11.43
 -13   1   0  196.37   10.96
 -13   1   0  186.94   11.17
 -13   1   0  193.03   11.01
 -13   1   0  205.19   11.41
 -13  -1   0  188.92   10.93
 -14  -1   0  116.05    7.56
 -14   1   0  124.04   13.69
 -14  -1   0  105.53    7.99
 -14   1   0  126.69    8.04
 -14   1   0   96.95    7.09
 -14   1   0  114.98    8.03
 -14  -1   0  109.86    7.77
 -14  -1   0  136.98    8.41
 -14   1   0  126.01    7.54
 -14   1   0  113.79    7.75
 -14   1   0  122.98    8.13
 -15  -1   0  240.94   13.26
 -15   1   0  253.18   13.75
 -15  -1   0  240.10   15.54
 -15  -1   0  266.63   14.07
 -15   1   0  268.67   13.73
 -15  -1   0  249.48   13.81
 -15   1   0  232.84   13.02
 -15   1   0  236.95   13.73
 -15   1   0  243.93   13.92
 -16  -1   0   20.83    3.18
 -16   1   0   10.86    3.05
 -16  -1   0   23.52    3.74
 -16   1   0   18.04    3.52
 -16  -1   0    9.80    3.11
 -16  -1   0   14.68    6.43
 -16   1   0   19.81    3.24
 -17   1   0  159.79    9.25
 -17  -1   0  158.35    8.91
 -17  -1   0  153.82    9.17
 -17   1   0  170.05    9.26
 -17   1   0  157.78    9.52
 -17  -1   0  165.85    9.49
 -18   1   0   65.79    4.72
 -18  -1   0   74.77    5.16
 -18   1   0   80.10    5.23
   0   2   0 1102.81   54.10
   0   2   0 1163.27   53.98
   1   2   0   23.06    3.99
  -1   2   0   31.21    4.45
   1   2   0   25.06    4.00
  -2   2   0  324.98   18.38
   2   2   0  348.41   18.81
  -2  -2   0  353.48   19.10
  -3   2   0   55.66    5.29
   3   2   0   50.08    5.34
   3   2   0   39.54    4.01
  -4   2   0 1548.71   71.99
   4   2   0 1587.37   72.54
   4   2   0 1504.37   70.77
   5   2   0   29.58    4.36
  -5  -2   0   22.25    4.68
  -5   2   0   25.13    3.69
   5   2   0   21.82    2.99
  -6   2   0    4.70    3.11
   6   2   0    3.60    2.65
  -6  -2   0    1.14    3.60
  -6   2   0    0.28    1.99
   6   2   0    0.42    2.14
  -7   2   0  139.57    9.98
  -7  -2   0  133.85   11.35
   7   2   0  124.76    8.96
  -8   2   0  722.98   38.34
  -8   2   0  695.03   36.51
  -8  -2   0  703.41   38.09
  -9   2   0  102.99    7.50
  -9   2   0  108.97   10.92
  -9   2   0  105.35    9.47
  -9  -2   0  122.92   10.18
  -9   2   0  100.85    6.86
  -9  -2   0  117.12    7.02
  -9  -2   0  123.17    7.40
  -9  -2   0  105.56    6.74
  -9  -2   0  110.30    6.78
 -10   2   0    0.59    2.89
 -10  -2   0    3.24    3.71
 -10   2   0   -0.88    4.34
 -10   2   0    2.54    3.12
 -10  -2   0    2.63    2.23
 -10   2   0    2.13    2.38
 -10   2   0    4.68    2.43
 -10  -2   0   -1.52    2.47
 -10   2   0   -2.35    2.50
 -10  -2   0   -1.12    2.12
 -10  -2   0    0.97    2.19
 -10  -2   0    0.39    2.19
 -11   2   0  170.56   10.95
 -11  -2   0  177.94   13.15
 -11   2   0  167.89   13.33
 -11   2   0  177.25   15.61
 -11   2   0  169.69   10.01
 -11   2   0  163.43    9.84
 -11  -2   0  157.25    9.62
 -11  -2   0  165.60    9.60
 -11  -2   0  174.63    9.91
 -11   2   0  165.32    9.90
 -11   2   0  169.26    9.76
 -11  -2   0  169.69    9.85
 -11  -2   0  178.66    9.92
 -11   2   0  170.77    9.74
 -12   2   0   96.66    8.06
 -12   2   0  111.97   12.58
 -12   2   0  104.43    7.19
 -12   2   0  107.31    6.88
 -12  -2   0  104.89    7.02
 -12   2   0   94.25    6.93
 -12   2   0   98.60    7.04
 -12   2   0  107.49    7.01
 -12  -2   0  102.60    7.04
 -12   2   0  100.39    6.81
 -12  -2   0   92.20    6.71
 -12  -2   0   98.06    6.83
 -12  -2   0  107.10    7.17
 -13   2   0   73.03    6.96
 -13   2   0   57.99    9.77
 -13   2   0   68.75    5.35
 -13   2   0   59.49    5.67
 -13   2   0   61.17    5.29
 -13  -2   0   76.24    5.86
 -13   2   0   77.59    5.63
 -13   2   0   68.34    5.77
 -13  -2   0   67.25    5.62
 -13  -2   0   82.32    5.96
 -13   2   0   64.18    5.67
 -14   2   0  235.64   21.20
 -14   2   0  283.99   14.54
 -14  -2   0  267.78   15.73
 -14   2   0  265.46   14.55
 -14   2   0  258.15   14.80
 -14  -2   0  275.52   14.95
 -14  -2   0  283.52   14.84
 -14  -2   0  291.70   15.08
 -14  -2   0  295.00   15.20
 -14   2   0  285.37   14.82
 -14   2   0  286.09   15.13
 -15  -2   0    7.18    2.75
 -15  -2   0    7.25    2.71
 -15   2   0    6.29    3.02
 -15   2   0    7.26    2.73
 -15  -2   0   10.76    2.99
 -15   2   0    6.26    2.27
 -15   2   0    3.18    2.67
 -15  -2   0    6.13    3.28
 -15  -2   0    9.27    2.94
 -16  -2   0   15.96    2.89
 -16  -2   0   10.26    2.79
 -16   2   0   18.54    3.22
 -16  -2   0   15.67    2.98
 -16  -2   0   15.81    3.02
 -17  -2   0    0.94    2.00
 -17   2   0   -1.41    2.35
 -17  -2   0    3.63    2.18
 -17   2   0    3.92    2.21
 -17  -2   0    4.73    2.46
 -17  -2   0   -1.26    2.08
 -18   2   0   30.46    2.93
 -18  -2   0   29.11    2.75
 -18  -2   0   28.78    2.56
   0   3   0   -1.74    3.40
   0  -3   0   -1.08    3.21
   0   3   0   -0.52    3.63
   1  -3   0  159.96   11.73
  -1  -3   0  164.58   12.27
   1   3   0  153.50   12.14
   1   3   0  160.47   11.64
   2  -3   0  214.32   14.58
   2   3   0  253.43   15.92
  -2  -3   0  259.50   16.19
  -2   3   0  214.72   14.93
   2   3   0  226.66   14.97
   3  -3   0  142.78   10.25
   3   3   0  155.04   11.46
  -3  -3   0  130.95   11.16
  -3   3   0  125.29   10.38
   3   3   0  139.15   10.70
   4   3   0    7.14    3.80
  -4  -3   0    3.50    4.22
   4  -3   0    4.02    2.68
  -4   3   0    4.75    3.54
   4   3   0    8.03    3.38
  -5   3   0   -1.20    3.61
  -5   3   0    1.55    2.45
   5   3   0   -0.60    3.48
  -6   3   0   15.21    4.06
  -6   3   0   15.90    3.58
   6   3   0   12.55    3.94
  -6  -3   0   16.80    5.33
  -7  -3   0   83.28    5.63
  -7   3   0   86.00    8.29
  -7  -3   0   90.91   10.41
  -7   3   0   70.06    7.09
   7   3   0   92.18    8.47
  -7  -3   0   88.89    5.79
  -7  -3   0   82.58    5.47
  -8   3   0   65.39    5.56
  -8  -3   0   65.79    4.80
  -8  -3   0   54.64    8.97
  -8   3   0   62.97    4.79
  -8   3   0   56.93    4.91
  -8   3   0   58.49    4.68
  -8  -3   0   55.37    4.89
  -8  -3   0   58.42    4.71
  -8  -3   0   61.14    4.66
  -8  -3   0   58.36    4.56
  -9   3   0   34.90    4.36
  -9  -3   0   30.72    3.70
  -9   3   0   40.11    6.18
  -9   3   0   38.34    4.11
  -9   3   0   37.68    3.86
  -9  -3   0   36.80    4.06
  -9  -3   0   38.47    3.75
  -9  -3   0   39.12    3.99
  -9  -3   0   34.86    3.65
  -9  -3   0   38.58    3.79
 -10   3   0    5.40    3.53
 -10   3   0    5.02    3.72
 -10  -3   0    5.22    3.80
 -10  -3   0   12.04    3.19
 -10   3   0    6.19    2.63
 -10   3   0   10.23    2.86
 -10  -3   0    2.34    2.41
 -10  -3   0    7.91    2.60
 -10  -3   0    7.29    2.51
 -10  -3   0    4.14    2.46
 -11   3   0   44.80    5.29
 -11  -3   0   24.87    5.85
 -11  -3   0   38.88    4.43
 -11   3   0   34.26    4.15
 -11  -3   0   33.16    3.84
 -11  -3   0   33.64    3.98
 -11  -3   0   37.31    3.95
 -11  -3   0   32.79    3.91
 -12   3   0  131.80    9.38
 -12   3   0  134.46    8.46
 -12   3   0  131.38    8.28
 -12  -3   0  140.48    9.14
 -12   3   0  117.90    8.01
 -12   3   0  112.31    7.81
 -12  -3   0  128.28    8.16
 -12  -3   0  128.99    8.02
 -12  -3   0  116.81    7.85
 -13   3   0    7.37    3.59
 -13   3   0    9.02    2.80
 -13  -3   0    6.43    7.17
 -13   3   0    9.19    2.92
 -13   3   0    6.54    2.74
 -13   3   0    7.32    2.65
 -13  -3   0    7.62    2.98
 -13  -3   0    8.10    2.76
 -14   3   0    0.24    2.60
 -14   3   0   -1.63    2.30
 -14   3   0    2.28    2.34
 -14  -3   0    1.81    2.54
 -14  -3   0    2.37    2.48
 -14  -3   0   -1.38    2.54
 -15   3   0    2.29    2.12
 -15   3   0    1.73    2.51
 -15  -3   0    3.58    2.28
 -15  -3   0    0.80    3.44
 -15  -3   0   -1.57    2.48
 -16  -3   0    7.50    2.24
 -16   3   0    8.56    2.52
 -16  -3   0    5.16    2.35
 -16  -3   0    0.49    6.18
 -16  -3   0    5.60    2.00
 -17  -3   0   15.72    2.14
 -17   3   0   13.32    2.33
 -17  -3   0   12.86    2.34
 -17  -3   0   16.73    1.92
 -18   3   0    1.92    1.17
   0   4   0  215.80   12.18
   0  -4   0  233.57   16.95
   1   4   0   94.21    6.83
   1   4   0  108.90   11.30
   1  -4   0   95.71   10.41
   2   4   0  528.20   26.20
  -2   4   0  515.06   26.26
   2   4   0  605.21   31.45
   2   4   0  577.38   32.53
  -2   4   0  583.93   31.96
   2   4   0  500.99   26.06
   2  -4   0  574.22   31.27
  -2  -4   0  593.50   32.84
   3   4   0  417.03   22.39
  -3   4   0  451.41   22.54
   3   4   0  528.77   27.97
   3  -4   0  460.42   26.58
  -3   4   0  467.37   27.76
  -3  -4   0  484.91   29.23
   3   4   0  447.37   28.00
  -4   4   0   56.99    4.83
   4   4   0   62.52    5.01
  -4  -4   0   60.89    4.76
   4   4   0   64.63    8.69
  -4   4   0   72.00    8.49
  -4  -4   0   69.80    9.36
   4   4   0   65.01    8.06
   5   4   0  317.23   17.22
  -5   4   0  360.27   17.62
  -5  -4   0  370.69   17.39
  -5   4   0  335.31   21.91
   5   4   0  333.72   22.82
  -5   4   0  329.92   17.71
  -5   4   0  337.84   22.21
  -5  -4   0  359.31   24.91
   5   4   0  349.03   22.08
  -5  -4   0  318.82   16.67
  -6  -4   0   33.49    3.54
  -6   4   0   46.89    7.07
  -6   4   0   27.53    5.83
   6   4   0   31.57    6.47
  -6   4   0   34.56    3.73
  -6   4   0   18.87    5.40
  -6   4   0   36.65    4.16
   6   4   0   32.80    6.55
  -6   4   0   34.47    3.63
  -6  -4   0   36.24    3.39
  -7  -4   0   30.98    3.63
  -7   4   0   28.98    4.03
  -7   4   0   38.87    3.78
  -7   4   0   36.94    4.22
  -7   4   0   38.45    6.71
  -7  -4   0   42.67    8.91
  -7   4   0   29.48    6.05
   7   4   0   24.70    6.22
  -7  -4   0   37.66    5.14
  -7   4   0   34.25    3.72
  -7  -4   0   37.21    3.54
  -8  -4   0    8.58    2.50
  -8   4   0    9.12    3.13
  -8  -4   0    2.47    5.97
  -8   4   0    5.06    2.59
  -8   4   0    3.97    5.22
  -8   4   0    8.83    4.22
  -8   4   0    4.72    2.45
  -8  -4   0    7.40    5.14
  -8   4   0    5.17    2.74
  -8  -4   0    3.78    2.69
  -8  -4   0    1.28    2.29
  -8  -4   0    9.18    2.52
  -9  -4   0   12.79    2.82
  -9   4   0   13.46    3.57
  -9   4   0   13.71    2.86
  -9  -4   0    9.46    5.01
  -9   4   0   15.22    5.91
  -9  -4   0    9.47    6.29
  -9   4   0    6.98    2.72
  -9  -4   0   10.75    2.56
  -9  -4   0   14.53    3.05
  -9  -4   0    8.04    2.58
 -10   4   0    3.03    3.22
 -10   4   0   -1.10    4.92
 -10   4   0    3.13    2.32
 -10  -4   0   10.18    5.10
 -10   4   0    4.99    2.56
 -10  -4   0    7.24    2.78
 -10  -4   0    4.38    2.45
 -10  -4   0    6.96    2.57
 -11   4   0   43.53    5.08
 -11   4   0   43.98    4.25
 -11  -4   0   44.52    4.27
 -11  -4   0   40.67    4.18
 -11  -4   0   34.11    3.92
 -11  -4   0   43.58    3.66
 -12   4   0   59.55    5.85
 -12   4   0   57.17    5.13
 -12   4   0   54.08    4.92
 -12  -4   0   59.47    5.04
 -12  -4   0   66.07    5.03
 -12   4   0   65.59    5.28
 -13   4   0    2.46    2.44
 -13   4   0    0.21    2.28
 -13   4   0   -1.34    2.35
 -13  -4   0    5.97    2.78
 -14   4   0   86.34    5.75
 -14   4   0   90.98    5.99
 -14   4   0   92.42    5.95
 -14  -4   0   81.91    6.65
 -14  -4   0   92.78    5.78
 -15   4   0    1.00    1.90
 -15   4   0    1.66    1.72
 -15  -4   0    0.23    1.89
 -16   4   0   31.62    2.77
 -16  -4   0   34.57    2.72
   0   5   0   12.63    3.84
   0   5   0    6.96    3.85
   0  -5   0    5.75    6.68
   1  -5   0  851.88   47.35
  -1   5   0  860.50   47.91
   1   5   0  844.13   40.08
   1   5   0  746.49   47.39
  -1  -5   0  815.19   48.27
  -1   5   0  847.69   40.34
  -1   5   0  794.44   40.19
   1   5   0  843.62   40.27
  -2   5   0  174.77   11.08
   2  -5   0  153.74   15.16
   2   5   0  177.72   16.63
  -2  -5   0  177.26   17.58
  -2   5   0  168.41   15.96
   2   5   0  177.39   10.73
   2   5   0  182.51   10.97
  -2   5   0  175.76    9.78
  -3   5   0  213.28   17.48
  -3   5   0  203.50   12.12
   3   5   0  195.12   11.47
  -3  -5   0  184.05   18.34
   3   5   0  186.63   17.43
   3   5   0  197.73   11.79
  -3  -5   0  205.03   11.39
  -3   5   0  198.53   11.81
  -4   5   0  163.20   14.69
  -4   5   0  158.35   14.01
   4   5   0  151.21   14.82
   4   5   0  142.16    9.28
  -4  -5   0  143.34    8.91
  -4   5   0  144.31    9.45
   5   5   0    2.13    4.43
  -5   5   0    2.81    4.18
  -5   5   0   -0.82    2.61
  -5  -5   0    4.03    5.72
  -5   5   0    3.81    4.77
  -5   5   0   -1.21    2.79
  -5  -5   0   -0.24    2.10
  -6   5   0  302.42   21.77
  -6   5   0  332.82   16.55
  -6   5   0  312.82   20.85
   6   5   0  292.82   15.51
  -6  -5   0  340.10   25.44
  -6  -5   0  305.26   15.74
  -6   5   0  319.83   16.17
  -6  -5   0  259.68   14.98
  -7   5   0    7.00    4.65
  -7   5   0    2.58    2.86
  -7  -5   0    4.38    2.32
  -7  -5   0    0.88    2.51
  -7  -5   0    1.57    2.06
  -8  -5   0  331.24   17.45
  -8   5   0  321.02   17.14
  -8   5   0  360.84   17.97
  -8   5   0  358.87   17.83
  -8  -5   0  312.78   16.83
  -8  -5   0  363.93   17.53
  -9   5   0   24.46    3.54
  -9   5   0   27.92    3.75
  -9  -5   0   23.61    2.99
  -9  -5   0   27.63    3.40
 -10   5   0  162.05    9.59
 -10   5   0  178.84    9.99
 -10  -5   0  154.90    9.14
 -10  -5   0  177.41    9.57
 -11   5   0   61.61    4.94
 -11  -5   0   61.69    4.68
 -12   5   0   58.44    4.54
 -12   5   0   62.62    4.51
 -12  -5   0   49.20    3.85
  13   5   0   75.23    4.79
 -13  -5   0   73.80    4.59
 -13   5   0   84.57    5.02
 -14  -5   0    1.41    1.41
 -14   5   0   -0.10    1.49
 -14   5   0   -1.74    1.27
   0   6   0  320.65   17.48
   0   6   0  325.21   16.54
  -1   6   0   73.76    6.53
   1   6   0   60.93    5.80
  -1   6   0   68.43    5.01
   1   6   0   68.18    5.58
  -1  -6   0   66.52    5.39
  -2   6   0  341.42   18.80
   2   6   0  338.49   18.16
  -2  -6   0  368.27   18.07
  -3   6   0  192.41   11.69
   3   6   0  203.74   11.35
   3   6   0  177.22   10.81
  -3  -6   0  201.17   10.85
  -4   6   0  298.34   15.70
   4   6   0  270.62   14.87
  -4  -6   0  280.03   14.70
  -5  -6   0  314.39   16.35
   5   6   0  340.69   16.58
  -5   6   0  352.39   16.97
  -5   6   0  299.28   16.26
  -5  -6   0  311.47   16.13
  -6  -6   0   96.51    6.09
  -6   6   0   91.47    6.26
   6   6   0   80.42    5.83
  -6   6   0  101.82    6.98
  -6   6   0   90.37    6.14
  -6  -6   0   93.40    5.92
  -7  -6   0  324.72   17.09
  -7   6   0  337.07   17.18
  -7   6   0  387.30   18.03
  -7   6   0  344.44   17.31
  -7  -6   0  341.25   17.00
  -8   6   0    1.79    2.11
  -8   6   0    3.04    2.18
  -8  -6   0    2.31    1.83
  -9   6   0  163.99    8.90
  -9  -6   0  158.07    8.53
  10   6   0   69.67    4.82
 -10   6   0   77.30    4.75
 -10   6   0   69.91    4.79
 -10  -6   0   66.68    4.34
  11   6   0  109.58    6.35
 -11   6   0  121.30    6.40
 -11   6   0  110.11    6.33
 -12   6   0   56.78    3.48
   0   7   0   81.66    6.25
   0   7   0   89.15    6.48
   0  -7   0   96.00    5.76
  -1   7   0  357.33   18.58
  -1   7   0  377.30   18.69
   1   7   0  386.52   18.64
  -1  -7   0  364.04   18.00
   1  -7   0  385.40   18.16
  -2   7   0    0.19    2.56
   2   7   0   14.17    2.80
   2  -7   0    1.25    1.92
  -2  -7   0   11.80    1.96
  -3   7   0  276.30   14.13
  -3   7   0  281.33   13.93
   3   7   0  263.64   13.66
   3   7   0  258.65   13.40
   3  -7   0  285.29   13.65
  -4   7   0   82.19    5.46
  -4   7   0   84.58    5.23
   4   7   0   66.81    4.79
   4   7   0   80.16    5.02
   4  -7   0   83.34    5.02
  -5   7   0   94.78    5.39
   5  -7   0   89.40    5.36
   5   7   0   80.35    5.29
   6   7   0  211.97   10.18
   6  -7   0  185.67    9.97
   7  -7   0   35.74    2.72
   7   7   0   40.97    2.98
 -19   0   1   -0.69    1.70
 -18   0   1    2.48    2.30
 -18   0   1    1.52    2.38
 -17   0   1    1.01    2.39
 -17   0   1   -2.83    2.16
 -17   0   1   -2.35    2.80
 -17   0   1   -1.24    2.43
 -16   0   1    0.40    2.56
 -16   0   1    0.20    2.34
 -16   0   1    3.08    2.64
 -16   0   1   -0.22    3.51
 -16   0   1    3.19    3.03
 -15   0   1    1.30    2.79
 -15   0   1   -1.11    2.65
 -15   0   1   -2.29    3.12
 -15   0   1    3.51    2.90
 -15   0   1   -1.68    3.36
 -14   0   1    0.87    2.73
 -14   0   1    3.81    4.15
 -14   0   1    1.09    4.53
 -14   0   1   -1.80    2.46
 -14   0   1    1.94    3.00
 -14   0   1   -0.25    2.67
 -14   0   1   -0.47    5.41
 -14   0   1    4.99    3.09
 -14   0   1   -2.43    3.24
 -13   0   1    0.62    2.66
 -13   0   1   -6.14    5.46
 -13   0   1   -4.65    4.81
 -13   0   1   -3.04    2.43
 -13   0   1    1.05    4.36
 -13   0   1   -0.68    2.98
 -13   0   1    1.50    2.84
 -13   0   1    2.58    3.10
 -13   0   1    0.71    2.72
 -13   0   1   -0.26    2.97
 -12   0   1    0.38    2.40
 -12   0   1    3.04    3.00
 -12   0   1    7.74    4.66
 -12   0   1   -0.92    4.20
 -12   0   1    0.59    2.72
 -12   0   1   -0.40    2.21
 -12   0   1    4.28    2.54
 -12   0   1    0.24    2.89
 -12   0   1   -0.19    2.58
 -12   0   1    1.66    2.75
 -12   0   1    1.03    2.37
 -11   0   1   -1.07    2.69
 -11   0   1   -0.51    2.27
 -11   0   1    0.81    3.82
 -11   0   1   -1.54    3.57
 -11   0   1    1.44    2.12
 -11   0   1   -1.78    2.10
 -11   0   1    1.27    2.93
 -11   0   1    3.57    2.49
 -11   0   1   -1.21    2.40
 -11   0   1    2.20    2.18
 -11   0   1   -1.14    2.22
 -10   0   1    2.77    3.86
 -10   0   1   -0.67    4.22
  -9   0   1   -0.57    3.58
  -9   0   1   -4.68    3.80
  -8   0   1    0.33    1.28
  -8   0   1   -1.45    3.49
  -8   0   1    0.49    3.26
  -7   0   1   -1.61    3.26
  -7   0   1    0.40    3.15
  -7   0   1   -0.61    1.35
  -6   0   1   -1.00    3.05
  -6   0   1    0.11    1.37
  -6   0   1   -0.65    2.96
  -5   0   1   -0.70    1.61
  -5   0   1    1.83    2.76
  -4   0   1    0.17    1.38
  -4   0   1    1.20    2.53
  -3   0   1    0.57    2.11
  -2   0   1    1.42    1.71
  -2   0   1   -0.08    1.26
  -1   0   1   -0.81    1.07
   0   0  -1   -0.23    0.99
  -1   0  -1   -0.65    1.43
  -2   0  -1    0.55    1.93
  -2   0  -1   -0.75    1.41
  -3   0  -1   -0.41    2.05
  -3   0  -1   -1.32    2.28
   4   0   1    0.26    0.56
  -4   0  -1    0.19    2.43
  -4   0  -1    0.19    2.17
  -5   0  -1   -0.50    2.71
  -5   0  -1    1.38    2.97
  -5   0  -1   -0.66    2.23
  -6   0  -1   -0.42    3.43
  -6   0  -1   -1.73    2.54
  -6   0  -1    3.13    3.01
  -7   0  -1   -0.27    2.11
  -7   0  -1    1.14    3.02
  -7   0  -1   -3.03    3.96
  -8   0  -1   -1.81    3.58
  -8   0  -1    2.26    3.17
  -9   0  -1    1.06    3.06
  -9   0  -1    0.71    3.96
 -10   0  -1    2.40    2.95
 -10   0  -1   -3.31    4.74
 -10   0  -1    0.18    2.18
 -10   0  -1   -0.19    2.01
 -10   0  -1    0.44    2.79
 -10   0  -1   -0.64    1.95
 -11   0  -1    2.49    2.10
 -11   0  -1    1.98    2.89
 -11   0  -1   -0.95    4.40
 -11   0  -1   -0.77    2.08
 -11   0  -1    1.50    2.16
 -11   0  -1    1.47    2.77
 -11   0  -1    0.89    2.35
 -11   0  -1    1.70    2.46
 -11   0  -1   -0.93    2.32
 -12   0  -1   -0.73    2.42
 -12   0  -1    1.06    4.50
 -12   0  -1    1.43    2.14
 -12   0  -1   -0.22    2.30
 -12   0  -1   -0.21    2.23
 -12   0  -1   -4.15    3.41
 -12   0  -1   -2.60    2.76
 -12   0  -1   -1.88    2.65
 -12   0  -1    0.39    2.53
 -12   0  -1    1.62    3.19
 -12   0  -1    1.01    2.24
 -13   0  -1    0.76    2.42
 -13   0  -1   -0.85    2.33
 -13   0  -1    4.06    2.26
 -13   0  -1   -3.55    2.78
 -13   0  -1    2.87    2.51
 -13   0  -1   -0.21    2.79
 -13   0  -1   -0.28    3.14
 -13   0  -1    0.22    2.41
 -13   0  -1   -0.50    2.92
 -13   0  -1    8.35    3.55
 -14   0  -1   -1.14    2.58
 -14   0  -1    0.71    2.47
 -14   0  -1   -0.21    2.54
 -14   0  -1   -0.41    2.33
 -14   0  -1    1.17    3.52
 -14   0  -1    4.07    2.84
 -14   0  -1    1.18    2.37
 -14   0  -1    0.51    2.73
 -14   0  -1    2.87    2.91
 -14   0  -1   -1.71    3.32
 -15   0  -1    1.74    2.38
 -15   0  -1    0.67    2.47
 -15   0  -1    8.00    6.44
 -15   0  -1    1.24    2.80
 -15   0  -1   -1.65    3.04
 -15   0  -1   -2.25    2.83
 -15   0  -1    4.55    5.00
 -15   0  -1   -2.49    3.27
 -16   0  -1   -1.33    2.25
 -16   0  -1    1.62    2.97
 -16   0  -1    5.99    2.59
 -16   0  -1   -4.46    3.14
 -17   0  -1   -0.18    2.28
 -18   0  -1   -3.10    2.14
 -19   1   1    4.29    1.79
 -19  -1   1    1.01    1.63
 -18  -1   1    9.04    2.31
 -18   1   1   10.05    2.33
 -18   1   1   11.72    2.76
 -18   1   1   13.96    2.42
 -18  -1   1   11.50    2.48
 -18  -1   1   10.65    2.63
 -17  -1   1   -1.54    2.49
 -17   1   1    1.57    2.38
 -17   1   1    0.92    2.23
 -17   1   1    3.09    2.81
 -17  -1   1    0.65    2.58
 -17  -1   1    0.20    2.42
 -16  -1   1   60.98    5.12
 -16   1   1   63.28    5.27
 -16   1   1   63.07    5.19
 -16  -1   1   62.53    5.32
 -16  -1   1   66.74    5.66
 -16   1   1   61.68    5.52
 -15  -1   1   88.38    6.36
 -15   1   1   67.01   10.85
 -15   1   1   84.59    6.49
 -15  -1   1   82.70    6.53
 -15   1   1   84.70    6.25
 -15   1   1   87.98    6.81
 -15   1   1   95.28    6.54
 -15   1   1   92.68    6.67
 -15  -1   1   91.26    6.78
 -15  -1   1   91.70    7.79
 -14   1   1   70.22    7.06
 -14  -1   1   74.82    5.64
 -14   1   1   69.79   10.29
 -14  -1   1   68.98    8.85
 -14   1   1   67.07    5.63
 -14   1   1   66.81    5.79
 -14   1   1   70.96    5.98
 -14  -1   1   70.09    5.80
 -14  -1   1   66.45    5.85
 -14   1   1   68.63    5.66
 -14  -1   1   64.89    5.64
 -14  -1   1   68.13    5.92
 -14   1   1   69.15    5.52
 -13   1   1  132.32   13.76
 -13   1   1  114.91   12.48
 -13  -1   1  139.26    8.91
 -13   1   1  136.63    8.58
 -13  -1   1  129.01    8.42
 -13   1   1  138.07    8.64
 -13  -1   1  130.38    8.39
 -13  -1   1  135.84    8.76
 -13   1   1  134.10    8.60
 -13   1   1  127.90    8.32
 -13   1   1  134.33    8.72
 -13   1   1  137.48    8.29
 -12   1   1    1.36    2.51
 -12  -1   1    0.94    4.12
 -12   1   1    0.82    3.97
 -12   1   1    2.82    4.63
 -12  -1   1    6.72    2.73
 -12   1   1    3.64    2.44
 -12   1   1    2.60    2.65
 -12   1   1    3.99    2.70
 -12   1   1    0.66    2.63
 -12   1   1    2.62    2.87
 -12  -1   1    2.37    2.58
 -12  -1   1    2.35    2.64
 -11   1   1  255.63   13.25
 -11  -1   1  263.20   18.80
 -11   1   1  224.70   17.16
 -11   1   1  240.63   18.06
 -11   1   1  255.90   13.43
 -11  -1   1  245.53   13.39
 -11  -1   1  246.21   13.46
 -11  -1   1  264.28   13.93
 -11   1   1  249.60   13.59
 -11   1   1  271.01   13.34
 -11   1   1  247.17   13.23
 -11   1   1  237.27   13.30
 -11   1   1  251.38   13.48
 -10   1   1  132.24   11.64
 -10  -1   1  137.88   12.54
 -10  -1   1  134.90    9.20
 -10   1   1  137.15   11.41
 -10   1   1  134.04    7.93
 -10  -1   1  129.22    7.61
  -9   1   1  813.35   40.96
  -9   1   1  839.95   41.82
  -9  -1   1  843.30   42.30
  -9  -1   1  704.38   38.75
  -9  -1   1  869.68   42.67
  -8  -1   1  116.23   10.36
  -8  -1   1  135.26   10.79
  -8   1   1  130.36    9.81
  -8  -1   1  117.77    9.16
  -8   1   1  125.08   10.23
  -7  -1   1  496.22   28.15
  -7   1   1  519.31   28.07
  -7   1   1  528.94   27.66
  -7  -1   1  548.41   28.90
  -7  -1   1  552.19   27.48
  -6   1   1  642.06   31.36
  -6  -1   1  681.57   32.22
  -6   1   1  588.85   29.10
  -6   1   1  701.31   31.92
  -6  -1   1  605.96   31.03
  -5   1   1 1391.29   65.53
  -5  -1   1 1420.83   65.41
  -5   1   1 1466.31   65.44
  -5   1   1 1354.51   63.97
   4   1  -1 1344.29   62.38
  -4  -1   1 1358.61   63.72
  -4   1   1 1368.77   62.95
  -4   1   1 1341.20   62.01
  -3   1   1 3837.55  170.20
   3   1  -1 3890.42  170.53
   3  -1  -1 3645.98  169.38
  -3  -1   1 3885.47  171.26
  -2   1   1  337.48   17.19
   2  -1  -1  369.31   16.88
  -2  -1   1  320.31   17.63
   2   1  -1  353.54   17.51
   1  -1  -1   55.13    4.04
   1   1  -1   41.70    3.86
   0   1  -1  120.37    7.80
   0   1   1  136.50    7.42
   1   1   1  197.15   10.27
  -1  -1  -1  197.05   10.79
  -1   1  -1  184.51   10.17
  -1   1  -1  165.38    9.49
   1   1   1  196.56    9.57
  -1  -1  -1  190.77    9.48
  -2   1  -1  102.81    6.05
   2   1   1  100.65    6.25
  -3   1  -1 3192.42  143.67
   3   1   1 3151.66  143.90
   4   1   1   -0.90    1.88
  -4   1  -1    0.35    1.92
  -4  -1  -1    1.02    2.83
  -5   1  -1  790.27   37.32
   5   1   1  774.50   36.74
   6   1   1   10.02    1.99
  -6   1  -1   14.28    3.05
  -6  -1  -1   13.36    3.29
  -7   1  -1   66.79    5.89
  -7  -1  -1   58.83    6.18
  -8   1  -1  129.42    9.21
  -8  -1  -1  116.55    9.25
  -9   1  -1   69.89    7.01
  -9  -1  -1   72.91    6.86
 -10   1  -1   77.82    6.53
 -10   1  -1   90.68   10.04
 -10   1  -1   78.33    7.88
 -10  -1  -1   86.27    7.68
 -10   1  -1   79.94    5.83
 -10  -1  -1   85.30    5.75
 -10  -1  -1   83.18    5.87
 -10  -1  -1   84.14    5.79
 -10  -1  -1   83.61    5.94
 -10   1  -1   86.11    5.84
 -10   1  -1   80.15    5.67
 -10  -1  -1   83.33    5.61
 -10  -1  -1   82.17    5.67
 -10   1  -1   83.76    5.94
 -10  -1  -1   79.13    5.45
 -10   1  -1   86.49    5.56
 -10   1  -1   72.75    5.96
 -11   1  -1   23.12    3.05
 -11   1  -1   21.31    4.06
 -11   1  -1   26.71    6.64
 -11   1  -1   23.29    3.33
 -11  -1  -1   27.58    3.43
 -11  -1  -1   21.48    2.94
 -11  -1  -1   20.45    3.30
 -11   1  -1   24.57    2.91
 -11  -1  -1   20.85    3.23
 -11   1  -1   26.39    3.36
 -11  -1  -1   18.77    3.00
 -11  -1  -1   24.02    3.22
 -11   1  -1   21.79    3.61
 -11   1  -1   21.69    3.27
 -11   1  -1   22.09    3.73
 -11   1  -1   17.53    3.29
 -11  -1  -1   26.31    3.64
 -11  -1  -1   20.89    3.26
 -11   1  -1   14.97    2.79
 -12   1  -1   20.58    3.04
 -12   1  -1   30.89    7.59
 -12  -1  -1   16.65    3.36
 -12   1  -1   17.81    3.49
 -12  -1  -1   19.19    3.24
 -12  -1  -1   18.49    2.92
 -12  -1  -1   25.06    3.88
 -12   1  -1   21.50    3.42
 -12  -1  -1   19.62    3.47
 -12   1  -1   17.97    3.33
 -12  -1  -1   21.82    3.25
 -12   1  -1   20.75    3.52
 -12   1  -1   17.25    3.25
 -12  -1  -1   16.31    4.10
 -12   1  -1   21.09    3.89
 -12  -1  -1   21.44    3.25
 -12   1  -1   15.20    3.48
 -13   1  -1    2.64    2.26
 -13   1  -1    1.14    4.99
 -13  -1  -1    1.56    2.14
 -13  -1  -1    4.72    2.66
 -13  -1  -1    3.23    2.68
 -13   1  -1    0.78    2.65
 -13   1  -1    3.49    2.94
 -13  -1  -1    2.38    2.44
 -13   1  -1   -1.91    3.23
 -13   1  -1    1.31    5.05
 -13  -1  -1    2.45    3.39
 -13  -1  -1    0.23    2.38
 -13   1  -1    1.29    2.64
 -13  -1  -1    2.81    2.73
 -13   1  -1    0.81    3.04
 -13  -1  -1    1.35    2.87
 -13   1  -1   -2.19    3.09
 -14  -1  -1  102.73    6.80
 -14   1  -1   78.32   11.94
 -14   1  -1   96.43    6.86
 -14  -1  -1   86.69    6.43
 -14   1  -1  102.57    7.29
 -14  -1  -1  107.25    7.22
 -14  -1  -1  113.88    7.71
 -14   1  -1  100.49    6.50
 -14  -1  -1  108.15    7.12
 -14   1  -1  116.51    7.45
 -14   1  -1  106.60    7.61
 -14   1  -1  114.98    7.76
 -14  -1  -1  100.29    7.16
 -15  -1  -1    0.93    2.34
 -15   1  -1    2.23    2.58
 -15  -1  -1    8.39    4.46
 -15  -1  -1   -1.30    2.94
 -15   1  -1   -0.26    3.00
 -15  -1  -1    3.84    2.82
 -15   1  -1    4.87    2.47
 -15   1  -1    6.03    3.13
 -15   1  -1    1.18    2.70
 -15  -1  -1    2.89    2.68
 -16  -1  -1  148.31    9.00
 -16   1  -1  173.16    9.67
 -16  -1  -1  180.10    9.97
 -16  -1  -1  147.12   10.18
 -16   1  -1  167.03    9.56
 -16   1  -1  175.92    9.99
 -16  -1  -1  164.06    9.36
 -16   1  -1  152.67    9.61
 -17   1  -1   -1.02    2.10
 -17  -1  -1    4.02    2.38
 -17   1  -1    1.13    2.56
 -17  -1  -1   -0.15    2.67
 -18   1  -1   38.19    3.23
 -18   1  -1   47.40    3.76
 -19   2   1   87.93    5.02
 -19  -2   1   89.63    4.98
 -18  -2   1    3.51    1.90
 -18   2   1    3.79    1.94
 -18  -2   1    3.38    1.86
 -18   2   1    1.43    1.87
 -17  -2   1   46.62    3.75
 -17   2   1   29.99    3.67
 -17  -2   1   36.74    3.66
 -17  -2   1   39.09    3.87
 -17  -2   1   39.45    3.76
 -17   2   1   37.80    3.87
 -16  -2   1   12.85    2.94
 -16  -2   1    7.33    2.77
 -16  -2   1   10.55    7.24
 -16   2   1    3.81    2.80
 -16   2   1    4.20    2.29
 -16  -2   1    8.30    2.92
 -16  -2   1   11.84    2.82
 -15  -2   1  139.62    8.45
 -15   2   1  128.96    9.61
 -15   2   1  125.86    7.76
 -15  -2   1  134.34    9.15
 -15  -2   1  129.61    8.43
 -15   2   1  135.92    8.17
 -15  -2   1  142.78    8.62
 -15  -2   1  140.89    8.49
 -15   2   1  139.30    8.67
 -14   2   1  194.88   12.49
 -14   2   1  160.12   16.77
 -14   2   1  171.12   10.36
 -14   2   1  174.17   10.45
 -14  -2   1  187.41   11.29
 -14   2   1  198.19   10.80
 -14  -2   1  216.96   11.33
 -14   2   1  198.70   11.22
 -14  -2   1  204.94   11.03
 -14   2   1  177.43   10.67
 -14  -2   1  199.76   11.14
 -13   2   1  172.73   10.99
 -13   2   1  155.48   15.24
 -13   2   1  146.05   13.82
 -13   2   1  160.67    9.77
 -13  -2   1  162.29    9.69
 -13  -2   1  171.49    9.60
 -13  -2   1  161.17    9.65
 -13   2   1  135.63    9.26
 -13   2   1  158.65    9.66
 -13  -2   1  165.22    9.84
 -13   2   1  161.68    9.39
 -13   2   1  150.88    9.10
 -12   2   1  573.09   27.76
 -12   2   1  458.83   30.85
 -12   2   1  546.47   33.70
 -12   2   1  551.45   26.62
 -12   2   1  545.80   26.44
 -12   2   1  514.38   25.94
 -12  -2   1  522.76   26.28
 -12  -2   1  551.99   26.43
 -12   2   1  507.39   26.13
 -12   2   1  546.76   26.15
 -12  -2   1  555.61   26.53
 -11   2   1   17.24    3.88
 -11   2   1   15.18    4.94
 -11   2   1   16.87    5.69
 -11  -2   1   12.83    3.92
 -11   2   1   24.14    3.26
 -11   2   1   12.75    2.92
 -11  -2   1   11.32    2.65
 -11  -2   1   18.26    3.00
 -11  -2   1   19.70    3.14
 -11   2   1   14.42    3.00
 -11   2   1   17.05    2.93
 -10   2   1  920.05   45.04
 -10   2   1 1006.06   50.75
 -10   2   1  941.77   48.86
 -10  -2   1  965.03   44.46
 -10   2   1  930.51   44.29
 -10  -2   1  950.65   44.03
 -10  -2   1  955.50   44.17
 -10  -2   1  963.23   44.03
 -10   2   1  932.12   44.07
 -10  -2   1  900.77   43.97
  -9   2   1  717.10   35.21
  -9   2   1  752.68   39.95
  -9   2   1  742.87   38.70
  -9  -2   1  775.67   39.73
  -9   2   1  716.40   34.50
  -9  -2   1  736.25   34.63
  -9  -2   1  731.49   34.30
  -9  -2   1  727.30   34.35
  -9  -2   1  717.78   34.26
  -8  -2   1  612.61   32.58
  -8   2   1  618.37   31.56
  -8   2   1  634.25   32.71
   8   2  -1  528.92   29.55
  -7   2   1 3921.13  171.96
  -7   2   1 3893.89  172.69
  -7   2   1 3666.83  169.84
  -7  -2   1 3792.87  172.91
   7   2  -1 3558.34  170.38
  -6   2   1    2.14    2.42
  -6  -2   1    1.04    3.12
  -6   2   1    5.20    3.59
   6   2  -1    2.98    2.68
  -6   2   1   -1.28    3.05
   6   2  -1    1.53    2.48
   5  -2  -1 1746.03   85.30
  -5  -2   1 1967.51   88.80
  -5   2   1 1921.06   87.12
   5   2  -1 1966.20   87.79
  -5   2   1 2023.37   88.35
   5   2  -1 1896.64   86.78
   4  -2  -1    2.28    2.07
  -4   2   1    8.87    3.05
   4   2  -1    0.74    3.24
   4   2  -1    0.81    2.53
  -3   2   1  825.46   40.79
   3  -2  -1  878.31   40.22
   3   2  -1  839.84   41.29
   3   2  -1  811.27   40.24
   2  -2  -1  237.90   13.66
  -2   2   1  245.28   14.10
   2   2  -1  258.00   14.67
   2   2  -1  228.75   13.41
   1   2  -1 1170.00   58.18
   1  -2  -1 1271.68   58.02
   0  -2  -1 1373.19   60.35
   0   2   1 1171.76   59.87
   0   2  -1 1218.69   59.95
   0   2   1 1302.58   59.54
  -1   2  -1  183.27   11.77
   1   2   1  176.31   11.72
  -1  -2  -1  185.14   12.31
  -1   2  -1  212.11   12.19
   1   2   1  194.94   11.25
  -2  -2  -1  806.85   39.87
  -2   2  -1  775.29   39.00
   2   2   1  774.82   39.19
   2   2   1  829.10   38.52
  -3   2  -1   45.41    4.97
   3   2   1   45.08    5.05
   4   2   1  916.55   43.51
  -4   2  -1  895.78   43.65
  -4   2  -1  861.03   42.84
  -5  -2  -1  108.17    9.98
  -5   2  -1  107.16    8.70
  -5   2  -1  111.99    7.82
  -5   2  -1  108.41    7.66
   5   2   1  111.61    8.34
  -6   2  -1 1050.40   50.70
  -6  -2  -1 1097.88   52.17
   6   2   1 1001.13   49.05
  -6   2  -1  965.56   48.74
   7   2   1  403.71   21.10
  -7   2  -1  391.75   21.56
  -7   2  -1  385.01   23.54
  -8   2  -1  299.87   17.81
  -8  -2  -1  299.41   19.06
  -9   2  -1  296.95   15.81
  -9  -2  -1  297.15   19.00
  -9   2  -1  299.07   17.69
  -9   2  -1  301.66   15.07
  -9   2  -1  281.79   15.19
  -9  -2  -1  279.18   14.89
  -9  -2  -1  263.21   14.68
  -9  -2  -1  293.51   14.74
  -9  -2  -1  288.47   14.76
  -9  -2  -1  289.14   14.72
  -9  -2  -1  279.72   14.72
  -9   2  -1  295.64   14.92
  -9   2  -1  288.30   14.87
 -10   2  -1  117.40    8.46
 -10  -2  -1  119.52   10.83
 -10  -2  -1  124.08    7.90
 -10   2  -1  113.36    7.61
 -10  -2  -1  120.96    7.68
 -10   2  -1  113.70    7.45
 -10   2  -1  108.22    7.48
 -10   2  -1  115.45    7.46
 -10  -2  -1  123.88    7.41
 -10  -2  -1  118.00    7.42
 -10  -2  -1  126.33    7.46
 -10  -2  -1  121.04    7.58
 -10   2  -1  120.28    7.64
 -10  -2  -1  125.58    7.53
 -11   2  -1  300.93   16.81
 -11  -2  -1  270.96   19.05
 -11   2  -1  289.04   15.70
 -11  -2  -1  290.96   15.85
 -11   2  -1  308.27   15.57
 -11   2  -1  292.68   15.50
 -11  -2  -1  303.24   15.31
 -11  -2  -1  299.90   15.48
 -11   2  -1  270.11   15.38
 -11   2  -1  298.14   15.65
 -11  -2  -1  295.62   15.49
 -11  -2  -1  298.40   15.42
 -11   2  -1  283.97   15.69
 -11  -2  -1  303.32   15.62
 -12   2  -1   23.46    4.80
 -12   2  -1   38.43    3.92
 -12   2  -1   36.28    4.35
 -12  -2  -1   37.09    4.19
 -12   2  -1   29.44    3.93
 -12  -2  -1   34.87    3.93
 -12  -2  -1   41.18    3.97
 -12   2  -1   31.15    4.30
 -12  -2  -1   27.59    3.79
 -12   2  -1   39.44    4.16
 -12   2  -1   37.91    4.38
 -12  -2  -1   33.49    4.15
 -13   2  -1  122.02    8.15
 -13   2  -1  103.10    7.60
 -13   2  -1  115.79    7.55
 -13  -2  -1  127.43    8.03
 -13   2  -1  121.64    8.08
 -13   2  -1  110.33    7.98
 -13  -2  -1  119.63    7.95
 -13   2  -1  120.34    7.83
 -13  -2  -1  128.12    7.95
 -14   2  -1   27.62    3.35
 -14  -2  -1   32.95    4.39
 -14   2  -1   31.97    4.16
 -14   2  -1   36.00    3.89
 -14  -2  -1   33.89    4.01
 -14   2  -1   22.81    3.67
 -14  -2  -1   34.01    4.10
 -14   2  -1   28.72    4.01
 -15  -2  -1  135.47    7.75
 -15   2  -1  115.30    7.51
 -15  -2  -1  136.45   10.25
 -15   2  -1  127.84    8.09
 -15  -2  -1  126.02    7.94
 -15   2  -1  112.00    7.84
 -15  -2  -1  137.21    8.05
 -16  -2  -1    3.10    2.16
 -16  -2  -1    7.99    2.47
 -16   2  -1    5.35    2.52
 -16  -2  -1    4.53    2.42
 -17  -2  -1  184.81    9.85
 -17   2  -1  193.83   10.43
 -17  -2  -1  201.31   10.19
 -18   2  -1   51.36    3.68
 -18  -2  -1   54.26    3.48
 -18   3   1  157.32    8.03
 -18  -3   1  149.84    7.85
 -17   3   1   68.63    4.79
 -17  -3   1   73.56    4.46
 -17  -3   1   61.24    4.58
 -16   3   1  154.24    8.66
 -16  -3   1  145.42    8.28
 -16  -3   1  140.86    8.33
 -15   3   1   94.10    5.96
 -15   3   1   81.10    6.35
 -15  -3   1   86.30    5.99
 -15  -3   1   92.81    6.16
 -15  -3   1   91.92    7.74
 -14   3   1  201.25   13.01
 -14   3   1  234.21   12.04
 -14   3   1  214.32   12.19
 -14   3   1  197.22   11.52
 -14  -3   1  219.59   11.87
 -14  -3   1  219.70   11.89
 -14  -3   1  225.06   12.36
 -13   3   1  332.58   19.12
 -13   3   1  378.93   18.15
 -13   3   1  346.27   18.18
 -13  -3   1  347.78   18.09
 -13  -3   1  366.19   17.96
 -13   3   1  327.26   17.64
 -12   3   1  167.34   11.35
 -12   3   1  185.73   16.56
 -12  -3   1  157.95   13.26
 -12   3   1  177.28   10.52
 -12  -3   1  186.05   10.31
 -12  -3   1  184.72   10.47
 -12   3   1  174.47   10.18
 -12  -3   1  169.36   10.16
 -11   3   1 1788.21   81.54
 -11   3   1 1552.81   85.52
 -11   3   1 1667.29   88.02
 -11  -3   1 1606.93   85.83
 -11   3   1 1769.31   80.53
 -11  -3   1 1733.87   80.89
 -11  -3   1 1740.44   80.19
 -11  -3   1 1762.26   80.26
 -11  -3   1 1805.43   80.31
 -11  -3   1 1727.47   80.32
 -10   3   1   62.84    5.86
 -10   3   1   70.03    9.80
 -10   3   1   57.40    7.82
 -10   3   1   53.61    4.82
 -10  -3   1   64.98    5.80
 -10  -3   1   56.24    4.62
 -10  -3   1   49.32    4.64
 -10  -3   1   53.89    4.75
  -9  -3   1  864.95   40.82
  -9   3   1  859.22   41.49
  -9  -3   1  928.14   48.46
  -9   3   1  985.91   48.18
  -9   3   1  806.18   40.38
  -9   3   1  891.30   45.72
  -9   3   1  847.09   40.61
  -9  -3   1  884.18   40.94
  -9  -3   1  815.57   40.33
  -9  -3   1  886.09   40.41
  -9  -3   1  880.27   40.54
  -8   3   1  337.92   18.56
  -8  -3   1  353.50   17.97
  -8   3   1  389.28   22.38
  -8   3   1  399.05   23.62
  -8   3   1  367.94   18.04
  -8  -3   1  426.18   25.17
  -8  -3   1  361.30   18.15
  -8   3   1  346.84   17.81
  -8  -3   1  347.20   17.63
  -8  -3   1  345.90   17.64
  -8  -3   1  349.96   17.80
  -7  -3   1  295.47   15.59
   7   3  -1  289.96   18.97
  -7   3   1  324.54   20.36
  -7  -3   1  314.65   21.22
  -7   3   1  307.77   18.28
  -7   3   1  350.21   20.00
   6   3  -1 1004.18   51.15
  -6  -3   1 1074.11   53.21
  -6   3   1  981.75   50.27
  -5   3   1  307.37   18.14
   5   3  -1  277.52   18.38
   4   3  -1 1353.46   65.48
   4  -3  -1 1334.17   63.53
  -4   3   1 1297.41   64.61
   3  -3  -1  226.07   13.81
  -3   3   1  193.98   14.06
   3   3  -1  199.53   14.47
   3   3  -1  223.20   14.71
   2  -3  -1  639.80   32.49
   2   3  -1  593.72   33.01
  -2   3   1  604.37   32.73
   2   3  -1  611.17   32.85
   1  -3  -1  979.31   47.64
   1   3  -1  872.63   47.51
   1   3  -1  973.33   47.74
   0  -3  -1  979.52   47.29
   0   3   1  893.95   46.89
   0   3  -1  908.59   46.76
  -1   3  -1 1131.64   58.94
   1   3   1 1194.52   59.43
  -1  -3  -1 1210.29   59.80
   1   3   1 1239.67   58.38
  -1   3  -1 1213.83   59.29
  -2  -3  -1 1077.31   54.24
   2   3   1 1033.88   53.24
  -2   3  -1 1017.11   52.91
   2   3   1 1134.14   52.55
  -3  -3  -1  970.21   50.08
   3   3   1  966.24   48.80
  -3   3  -1  871.82   47.90
   3   3   1 1044.53   47.99
  -4  -3  -1   70.44    8.72
   4   3   1   56.45    7.10
  -4   3  -1   71.32    7.39
  -4   3  -1   62.24    6.94
  -5   3  -1  736.82   38.59
   5   3   1  720.94   38.56
  -5   3  -1  707.41   37.70
   5   3   1  770.37   37.81
  -6   3  -1   48.51    5.93
  -6   3  -1   58.08    7.17
   6   3   1   51.41    6.53
  -6  -3  -1   49.81    7.73
  -7  -3  -1  710.80   33.08
  -7   3  -1  678.21   33.65
  -7   3  -1  703.37   33.33
  -7   3  -1  740.86   38.84
   7   3   1  706.67   37.01
  -7   3  -1  731.80   36.51
  -7  -3  -1  689.68   33.20
  -7   3  -1  674.32   33.07
  -7   3  -1  694.14   33.30
  -7  -3  -1  691.83   32.96
  -7  -3  -1  707.64   32.97
  -8   3  -1  221.69   12.25
  -8  -3  -1  202.04   11.37
  -8  -3  -1  224.43   16.91
  -8   3  -1  216.00   11.57
  -8   3  -1  221.45   14.47
  -8   3  -1  213.98   16.85
  -8   3  -1  206.76   11.45
  -8  -3  -1  209.58   11.57
  -8   3  -1  202.93   11.72
  -8  -3  -1  201.81   11.33
  -8  -3  -1  199.88   11.02
  -8  -3  -1  218.15   11.38
  -9   3  -1   61.90    5.82
  -9  -3  -1   59.00    8.69
  -9   3  -1   64.37    9.44
  -9  -3  -1   63.26    5.23
  -9   3  -1   63.24    5.11
  -9   3  -1   56.59    5.31
  -9  -3  -1   60.37    4.72
  -9  -3  -1   65.76    5.05
  -9  -3  -1   68.67    5.07
 -10   3  -1  143.21   10.34
 -10  -3  -1  172.73   14.59
 -10   3  -1  152.95   14.81
 -10   3  -1  174.30    9.92
 -10   3  -1  154.11    9.86
 -10  -3  -1  157.16    9.77
 -10   3  -1  172.91    9.91
 -10  -3  -1  154.10    9.29
 -10  -3  -1  166.92    9.59
 -10  -3  -1  169.99    9.61
 -11   3  -1    6.78    3.53
 -11   3  -1    8.61    5.58
 -11  -3  -1    3.51    4.48
 -11  -3  -1   11.38    3.05
 -11   3  -1   12.93    3.06
 -11   3  -1    6.61    2.88
 -11   3  -1    6.98    3.13
 -11  -3  -1    8.50    2.84
 -11  -3  -1    8.78    2.75
 -11  -3  -1   10.62    2.73
 -12   3  -1  106.07    8.65
 -12   3  -1  119.15   13.65
 -12  -3  -1  125.53    8.26
 -12   3  -1  125.21    7.97
 -12   3  -1  123.47    8.06
 -12  -3  -1  118.65    7.68
 -12   3  -1  113.70    7.89
 -12  -3  -1  112.04    7.47
 -12  -3  -1  122.11    7.85
 -12   3  -1  124.44    7.98
 -12  -3  -1  122.62    7.79
 -13   3  -1   56.53    5.10
 -13  -3  -1   52.74    5.84
 -13   3  -1   55.09    4.86
 -13   3  -1   44.00    4.64
 -13  -3  -1   54.47    4.89
 -13   3  -1   55.27    4.90
 -13  -3  -1   54.81    4.62
 -14   3  -1  220.77   12.95
 -14   3  -1  265.30   13.14
 -14   3  -1  249.62   13.49
 -14  -3  -1  248.08   15.47
 -14  -3  -1  260.50   13.31
 -14  -3  -1  238.18   13.01
 -14  -3  -1  239.05   12.87
 -15  -3  -1   26.85    3.19
 -15   3  -1   25.69    2.97
 -15   3  -1   28.54    3.52
 -15  -3  -1   32.70    3.80
 -15   3  -1   27.81    3.05
 -15  -3  -1   26.99    3.30
 -15  -3  -1   27.31    3.01
 -16  -3  -1  134.85    7.36
 -16   3  -1  130.77    7.69
 -16  -3  -1  134.89    7.51
 -16  -3  -1  121.32    8.62
 -17  -3  -1   68.94    4.12
 -17   3  -1   78.07    4.54
 -17  -3  -1   63.06    4.30
 -17  -4   1  103.07    5.49
 -16  -4   1   16.50    2.27
 -16   4   1   18.41    2.28
 -16   4   1   15.34    1.93
 -16  -4   1   13.37    2.07
 -15  -4   1  334.10   16.19
 -15   4   1  346.50   16.18
 -15   4   1  322.08   16.22
 -15  -4   1  305.31   15.90
 -14   4   1  215.04   12.60
 -14   4   1  225.00   11.92
 -14   4   1  241.74   11.97
 -14  -4   1  219.52   11.56
 -14   4   1  205.97   11.44
 -13   4   1   15.92    3.71
 -13   4   1    9.04    2.68
 -13   4   1   15.51    2.92
 -13  -4   1   10.78    2.41
 -13  -4   1   11.65    2.75
 -13   4   1   13.31    2.77
 -13  -4   1   10.24    3.91
 -12   4   1  276.00   15.39
 -12   4   1  277.89   14.50
 -12  -4   1  268.07   14.32
 -12  -4   1  260.07   13.92
 -12  -4   1  275.35   14.34
 -11   4   1    3.50    3.24
 -11  -4   1    6.65    4.05
 -11   4   1    1.37    2.47
 -11  -4   1   -0.62    2.66
 -11  -4   1    5.40    2.59
 -11  -4   1    4.33    2.32
 -11  -4   1    3.40    2.30
 -10   4   1  476.53   24.69
 -10   4   1  509.28   29.72
 -10   4   1  486.19   23.78
 -10   4   1  472.03   23.65
 -10  -4   1  478.87   23.42
 -10  -4   1  456.77   23.20
 -10  -4   1  451.95   23.40
 -10  -4   1  523.70   23.85
  -9  -4   1   -1.01    2.36
  -9   4   1   -0.61    3.18
  -9  -4   1   -7.38    5.48
  -9   4   1    2.22    2.31
  -9   4   1    0.82    4.04
  -9   4   1    1.50    2.43
  -9  -4   1   -0.19    2.34
  -9  -4   1    1.34    2.14
  -9  -4   1    1.77    2.61
  -8   4   1  650.71   31.78
  -8   4   1  641.08   32.59
  -8  -4   1  668.66   32.12
  -8  -4   1  714.99   41.73
  -8   4   1  694.16   32.36
  -8   4   1  712.65   37.69
  -8   4   1  638.05   31.64
  -8  -4   1  662.54   31.85
  -8  -4   1  662.40   31.53
  -7   4   1  338.07   18.66
  -7  -4   1  361.45   18.29
  -7   4   1  370.24   18.29
  -7   4   1  381.35   23.37
  -7  -4   1  374.96   26.29
  -7   4   1  361.44   18.57
  -7   4   1  349.76   22.26
   7   4  -1  372.40   24.25
  -7  -4   1  342.17   17.72
  -6  -4   1  149.85    8.72
  -6   4   1  146.98    8.79
  -6   4   1  139.34    8.98
   6   4  -1  154.35   13.46
  -6   4   1  125.54   12.01
   6   4  -1  142.59   13.12
  -5   4   1  774.91   37.94
  -5  -4   1  766.19   37.73
   5   4  -1  898.25   44.57
  -5  -4   1  835.88   45.81
   5   4  -1  791.06   43.96
  -5   4   1  883.20   43.77
   4   4  -1   54.18    5.00
  -4  -4   1   65.93    4.89
  -4   4   1   68.03    5.17
   4   4  -1   75.93    9.16
   4   4  -1   65.12    9.03
  -4  -4   1   74.94    9.43
  -4   4   1   53.27    8.05
  -3   4   1 1284.56   61.39
   3   4  -1 1307.27   61.39
   3   4  -1 1500.96   67.86
   3   4  -1 1265.96   61.15
  -3   4   1 1432.11   67.69
   3   4  -1 1337.74   67.83
   3  -4  -1 1346.93   66.22
  -3  -4   1 1457.31   68.90
   2   4  -1   -0.81    4.77
   2  -4  -1    6.91    4.68
  -2   4   1   11.90    5.64
   2   4  -1    0.88    4.11
   2   4  -1    3.88    2.49
   2   4  -1    2.74    2.39
  -2  -4   1    5.27    4.47
   1   4  -1  962.41   48.56
  -1   4   1 1030.42   48.68
   1   4  -1 1220.68   55.14
   1   4  -1 1020.15   48.59
  -1  -4   1 1213.58   55.47
   1   4  -1 1010.60   54.50
   1  -4  -1 1067.43   54.59
   0   4  -1   70.22    6.01
   0   4   1   96.62   10.58
   0  -4  -1   86.11   10.06
   0  -4   1   84.39    9.72
   0   4  -1   88.84    6.26
   0   4   1   75.67    5.84
  -1  -4  -1  129.17   12.52
   1   4   1  133.84   12.22
  -1   4  -1  114.36    7.76
   1  -4   1  136.78   12.12
  -1   4  -1  110.00   11.24
   1   4   1  115.98    7.68
  -2   4  -1  302.10   16.60
   2  -4   1  337.13   21.35
  -2  -4  -1  364.36   23.40
   2   4   1  343.33   22.48
  -2   4  -1  319.08   21.41
  -2   4  -1  309.23   16.55
   2   4   1  317.27   16.44
   3   4   1  159.26   14.03
   3  -4   1  153.10   12.60
  -3  -4  -1  188.50   15.99
  -3   4  -1  179.60   14.05
  -3   4  -1  152.96    9.35
   3   4   1  155.46    9.26
  -3  -4  -1  154.57    8.91
   4   4   1  875.91   47.07
  -4   4  -1  907.49   46.00
  -4  -4  -1  983.38   50.21
  -4   4  -1  841.36   45.85
  -4   4  -1  893.06   41.22
  -4  -4  -1  834.34   40.49
  -4   4  -1  844.98   40.90
   4   4   1  857.40   40.76
   5   4   1   14.85    4.84
  -5   4  -1    9.00    3.93
   5   4   1   16.23    2.81
  -5  -4  -1   12.68    6.28
  -5   4  -1   19.81    5.24
  -5   4  -1   14.73    3.20
  -5   4  -1   13.44    2.77
  -5  -4  -1   14.27    2.51
  -6  -4  -1  653.99   30.89
   6   4   1  677.61   37.36
  -6   4  -1  733.63   37.80
  -6   4  -1  699.28   31.66
  -6   4  -1  667.73   35.22
  -6  -4  -1  579.16   30.72
  -6   4  -1  612.06   30.97
  -6  -4  -1  656.96   30.71
  -7  -4  -1  115.43    7.36
  -7   4  -1  116.78   12.07
  -7   4  -1  125.74    8.02
  -7   4  -1  132.32   10.80
   7   4   1  127.24   11.84
  -7  -4  -1  106.36    7.47
  -7   4  -1  109.96    7.53
  -7  -4  -1  107.46    7.22
  -7  -4  -1  119.00    7.11
  -8  -4  -1   92.07    6.51
  -8  -4  -1   89.35   11.40
  -8   4  -1   96.63    6.94
  -8   4  -1   96.19   11.62
  -8   4  -1   98.33    6.65
  -8   4  -1   93.76    6.99
  -8  -4  -1  105.32    7.00
  -8  -4  -1   94.05    6.38
  -8  -4  -1   99.96    6.67
  -9   4  -1   19.83    3.80
  -9  -4  -1   31.78    7.29
  -9   4  -1   22.25    3.41
  -9   4  -1    9.60    6.01
  -9   4  -1   17.06    3.15
  -9   4  -1   16.64    3.48
  -9  -4  -1   24.31    4.09
  -9   4  -1   18.38    3.57
  -9  -4  -1   22.68    3.10
  -9  -4  -1   19.03    3.33
  -9  -4  -1   23.05    3.24
 -10   4  -1   70.78    6.61
 -10   4  -1   75.32   11.12
 -10   4  -1   80.53    5.85
 -10  -4  -1   99.16   11.57
 -10   4  -1   79.78    6.07
 -10   4  -1   81.16    6.22
 -10  -4  -1   94.33    7.33
 -10  -4  -1   83.07    5.86
 -10  -4  -1   86.88    6.19
 -10  -4  -1   90.56    6.09
 -11   4  -1  237.06   13.94
 -11  -4  -1  227.28   14.73
 -11   4  -1  236.17   13.30
 -11   4  -1  252.23   13.60
 -11  -4  -1  251.91   13.18
 -11  -4  -1  258.08   13.34
 -11  -4  -1  242.89   13.17
 -12   4  -1   23.67    3.43
 -12   4  -1   22.83    3.34
 -12  -4  -1   23.94    3.20
 -12  -4  -1   24.73    3.25
 -12   4  -1   20.59    3.52
 -13   4  -1  265.51   13.45
 -13   4  -1  246.37   13.31
 -13  -4  -1  246.20   13.16
 -13   4  -1  251.53   13.32
 -14   4  -1    5.56    2.19
 -14   4  -1    7.43    2.22
 -14  -4  -1    8.33    2.29
 -14  -4  -1    2.81    2.77
 -14   4  -1    4.66    2.27
 -15  -4  -1  102.20    5.77
 -15   4  -1   94.17    5.82
 -15  -4  -1   95.59    5.66
 -16  -4  -1    8.72    1.44
 -16  -4  -1    6.78    1.51
 -15  -5   1   49.45    3.04
 -14  -5   1   11.05    1.87
 -14   5   1    6.01    1.86
  13   5  -1   44.65    3.44
 -13   5   1   41.01    3.48
 -12   5   1    4.32    2.38
 -12   5   1    9.24    2.36
 -12  -5   1    4.11    1.87
 -11   5   1   98.16    7.05
 -11   5   1  115.86    7.17
 -11  -5   1   98.16    6.10
 -11  -5   1  107.56    6.58
 -10   5   1   15.46    3.17
 -10   5   1   19.07    3.10
 -10   5   1   25.14    3.55
 -10  -5   1   24.01    3.08
  -9   5   1   62.19    5.26
  -9   5   1   57.90    4.39
  -9  -5   1   50.07    4.80
  -9  -5   1   60.14    4.74
  -8   5   1   29.88    7.13
  -8   5   1   28.61    3.97
  -8  -5   1   27.26    7.81
  -8  -5   1   22.38    3.43
  -8  -5   1   29.09    3.62
  -7   5   1  236.15   17.88
  -7   5   1  215.21   12.22
  -7   5   1  220.21   16.44
  -7   5   1  202.24   11.70
  -7  -5   1  202.83   11.64
  -7  -5   1  192.52   11.26
  -6   5   1   81.08    6.58
  -6  -5   1  103.17   13.10
  -6   5   1   85.50   10.52
  -6   5   1   71.45    9.65
   6   5  -1   74.37    5.79
  -6   5   1   95.37   10.44
  -6   5   1   80.10    6.22
  -6  -5   1   81.08    5.98
  -6  -5   1   75.57    5.71
  -5  -5   1  234.15   13.28
  -5   5   1  253.71   13.74
   5   5  -1  245.53   13.40
  -5  -5   1  239.96   21.23
  -5   5   1  238.14   18.84
  -5   5   1  239.41   18.98
  -4  -5   1  214.03   11.94
  -4   5   1  217.70   12.39
  -4  -5   1  215.81   19.39
  -4   5   1  205.81   17.13
   4   5  -1  206.76   11.79
   4   5  -1  195.83   17.83
  -4   5   1  203.19   17.39
  -3  -5   1    2.55    2.43
  -3   5   1   -1.07    4.99
  -3   5   1   -0.30    3.13
  -3   5   1    0.31    2.92
   3   5  -1    1.03    2.58
   3   5  -1    8.01    5.42
  -3  -5   1    7.42    5.39
   2   5  -1  350.34   18.57
  -2  -5   1  368.58   26.10
   2   5  -1  341.61   25.19
   2   5  -1  336.96   18.30
  -2   5   1  359.94   18.92
  -2   5   1  345.50   24.98
  -1   5   1   17.42    3.78
   1   5  -1    7.09    6.24
   1   5  -1   13.62    3.67
  -1   5   1   13.52    3.63
   1   5  -1    8.39    3.44
  -1  -5   1    1.16    6.10
   1  -5  -1   14.02    6.11
   0   5  -1  559.84   28.86
   0   5   1  604.69   28.99
   0   5  -1  581.59   28.90
   0   5   1  576.05   36.68
   0  -5   1  510.14   35.06
   0  -5  -1  497.01   35.19
   0   5   1  601.64   29.02
   1   5   1  322.20   17.05
  -1   5  -1  315.40   16.10
   1  -5   1  297.66   22.60
   1   5   1  320.64   16.97
  -1  -5  -1  285.24   23.87
   1   5   1  314.57   24.00
  -1   5  -1  300.20   17.03
  -1   5  -1  307.30   23.31
   2   5   1  120.99    8.44
  -2  -5  -1  134.08    8.00
  -2   5  -1  122.60    7.58
  -2   5  -1  114.15    8.35
   2   5   1  134.26    8.37
  -2   5  -1  116.78    8.65
  -2  -5  -1  149.60   15.38
  -2   5  -1  117.86   12.86
   2   5   1  135.55   14.28
   2  -5   1  120.42   12.42
  -3  -5  -1  426.59   21.01
   3   5   1  425.55   21.53
  -3   5  -1  404.95   21.58
   3   5   1  426.28   28.83
  -3   5  -1  426.03   21.92
  -3   5  -1  462.09   27.14
   3   5   1  421.03   21.27
  -3   5  -1  374.76   27.09
  -3  -5  -1  482.67   31.30
  -3   5  -1  392.29   20.82
  -4  -5  -1   13.24    2.63
   4   5   1   14.20    5.95
  -4   5  -1   22.18    5.44
   4   5   1   13.28    2.96
  -4   5  -1   14.86    3.08
  -4  -5  -1   15.09    2.54
  -5  -5  -1   24.05    3.06
   5   5   1   21.98    5.92
  -5   5  -1   20.00    3.94
   5   5   1   18.52    3.12
  -5   5  -1   23.77    6.15
  -5   5  -1   25.43    5.64
  -5   5  -1   23.83    3.60
  -5  -5  -1   23.68    3.01
  -6  -5  -1   -0.43    2.07
  -6   5  -1   -0.30    2.63
   6   5   1   -1.97    4.38
  -6  -5  -1    5.70    5.08
  -6   5  -1   -2.34    2.69
  -6   5  -1   -4.74    4.91
  -6   5  -1    0.22    2.43
  -6   5  -1   -0.99    2.63
  -6  -5  -1    1.71    2.03
  -7  -5  -1  205.69   11.79
  -7   5  -1  184.00   17.16
  -7   5  -1  226.12   11.95
  -7   5  -1  238.48   12.74
  -7   5  -1  224.27   12.31
  -7   5  -1  205.77   11.94
  -7  -5  -1  210.89   11.61
  -8   5  -1   25.21    3.26
  -8   5  -1   39.66    4.16
  -8   5  -1   32.74    4.09
  -8   5  -1   32.61    3.66
  -8  -5  -1   31.20    3.44
  -8  -5  -1   39.03    3.97
  -9   5  -1  203.55   11.56
  -9   5  -1  216.50   11.80
  -9  -5  -1  218.80   11.49
  -9  -5  -1  192.28   11.05
 -10   5  -1  234.18   12.67
 -10  -5  -1  246.80   12.45
 -10  -5  -1  218.00   12.04
 -11   5  -1   20.74    3.09
 -11  -5  -1   17.34    2.69
 -11   5  -1   12.76    2.84
 -12   5  -1   86.29    5.68
 -12  -5  -1   81.27    5.34
 -12   5  -1   92.23    5.73
 -13  -5  -1   -0.67    1.53
 -13   5  -1    2.62    1.80
 -14  -5  -1   41.61    2.88
 -12   6   1   -0.42    1.22
  11   6  -1   -0.33    1.65
 -11   6   1   -0.80    1.65
 -11   6   1    0.54    1.59
  10   6  -1   10.94    2.50
 -10   6   1   13.47    2.30
   9   6  -1    9.63    2.72
  -9   6   1    7.01    2.16
  -9   6   1    9.69    2.34
  -9  -6   1    7.85    1.90
  -8  -6   1    1.69    1.86
  -8   6   1    3.99    2.22
  -8   6   1    1.39    2.11
  -8  -6   1    0.13    1.79
  -7  -6   1    7.89    2.26
  -7   6   1    6.78    2.30
  -7   6   1   13.16    2.94
  -7   6   1    5.15    2.40
  -7  -6   1    4.10    1.98
  -6  -6   1    1.01    2.05
  -6   6   1    2.36    2.63
   6   6  -1   -0.37    2.17
  -6   6   1    6.25    2.41
  -6  -6   1    4.78    1.97
  -5  -6   1    2.13    2.09
   5   6  -1    1.71    2.34
  -5   6   1    3.79    2.33
  -5  -6   1    4.05    2.07
   4   6  -1   16.82    3.31
  -4   6   1   18.73    3.63
  -4   6   1   17.76    3.42
  -4  -6   1   15.87    2.83
   3   6  -1   65.11    5.47
  -3   6   1   76.77    6.30
   3   6  -1   73.29    5.84
  -3  -6   1   70.46    5.43
   3   6  -1   73.31    5.79
  -2   6   1    1.24    3.19
   2   6  -1    1.90    3.06
   2   6  -1   -0.26    2.44
   2   6  -1    1.11    2.89
  -2  -6   1    1.46    2.33
   1   6  -1  143.82    9.62
  -1   6   1  159.70   10.00
   1   6  -1  161.62    9.87
  -1   6   1  168.13   10.25
   1   6  -1  156.53    9.18
  -1  -6   1  160.20    9.40
  -1   6   1  137.43    8.56
   0   6  -1   95.30    7.24
   0   6   1   97.35    7.26
   0   6  -1   97.37    7.23
   0  -6  -1   93.97    6.47
   0   6   1   84.53    7.22
   0   6  -1   96.96    6.37
  -1   6  -1    5.99    3.07
  -1   6  -1   11.53    3.76
   1   6   1   12.51    3.52
   1   6   1   11.75    3.18
  -1  -6  -1    9.04    2.52
  -1   6  -1    7.67    2.44
   2   6   1   74.04    5.97
  -2   6  -1   79.84    6.79
  -2  -6  -1   93.56    5.94
   3   6   1   16.80    2.96
  -3   6  -1   19.29    3.44
  -3   6  -1   27.00    3.94
  -3  -6  -1   17.35    2.71
   4   6   1   49.49    4.34
  -4   6  -1   42.78    4.51
  -4   6  -1   39.40    4.64
  -4  -6  -1   48.45    3.92
  -5  -6  -1   15.17    2.50
   5   6   1   19.03    2.80
  -5   6  -1   24.11    3.30
  -5   6  -1   16.73    2.97
  -5  -6  -1   17.16    2.76
  -6   6  -1   33.88    4.03
  -6   6  -1   36.42    3.66
  -6   6  -1   31.90    3.51
  -6  -6  -1   35.63    3.55
  -7   6  -1    3.70    2.37
  -7   6  -1    6.07    2.36
  -7  -6  -1    3.43    2.14
  -8   6  -1   11.04    2.53
  -8  -6  -1   13.60    2.30
  -9   6  -1   -2.56    2.02
  -9  -6  -1    0.82    1.67
 -10   6  -1   27.89    2.77
 -10  -6  -1   29.31    2.58
  11   6   1   36.90    2.82
 -11   6  -1   38.17    2.85
 -11   6  -1   33.54    2.89
   7   7  -1    9.32    1.81
   7  -7  -1    5.82    1.31
  -6   7   1   32.41    2.82
   6  -7  -1   33.25    2.66
   6   7  -1   39.41    3.14
  -5   7   1   11.24    2.28
  -5   7   1    9.03    2.04
   5   7  -1    9.81    2.16
   5  -7  -1    9.10    1.72
  -5  -7   1    9.13    1.60
   4   7  -1    0.62    1.66
  -4   7   1    1.90    1.79
  -4   7   1   -0.85    1.94
   4  -7  -1    1.17    1.46
   4   7  -1   -0.12    1.86
  -4  -7   1    0.22    1.36
   3   7  -1   11.96    2.33
  -3   7   1   10.73    2.50
  -3  -7   1   15.39    2.02
   3  -7  -1   13.90    2.01
   3   7  -1   11.67    2.22
   2   7  -1    4.64    2.24
  -2   7   1    4.40    2.28
  -2   7   1    2.44    2.31
  -2  -7   1    5.20    1.68
   2  -7  -1    5.82    1.62
  -1   7   1    6.82    2.45
  -1   7   1   10.41    2.44
  -1  -7   1   12.03    2.06
   1  -7  -1    6.88    1.68
   0   7   1   46.45    3.98
   0   7  -1   38.23    3.95
   0  -7   1   47.37    3.55
   1   7   1   40.75    3.47
  -1   7  -1   37.48    3.89
   1   7   1   47.18    3.97
   1  -7   1   47.33    3.56
   2   7   1    3.38    1.91
   2  -7   1    5.88    1.80
  -3   7  -1   14.12    2.39
   3   7   1   11.04    2.01
   3  -7   1   12.08    2.04
  -4   7  -1    2.74    1.78
   4   7   1    0.09    1.32
   4  -7   1    2.89    1.66
   4   7   1    3.74    1.85
   5   7   1   24.76    2.47
   5  -7   1   23.04    2.41
   6  -7   1    0.54    1.35
   6   7   1    2.65    1.60
   7   7   1   -0.07    1.16
  -7   7  -1    0.08    1.16
 -19   0   2  106.31    6.20
 -19   0   2  104.86    6.53
 -18   0   2   83.81    5.50
 -18   0   2   80.65    5.83
 -18   0   2   68.96    5.22
 -17   0   2  209.99   12.01
 -17   0   2  247.11   12.68
 -17   0   2  238.94   12.93
 -17   0   2  232.55   12.41
 -16   0   2   53.36    4.67
 -16   0   2   56.46    5.01
 -16   0   2   62.30    5.13
 -16   0   2   52.21    5.33
 -15   0   2  231.94   12.58
 -15   0   2  195.28   18.34
 -15   0   2  210.17   12.24
 -15   0   2  230.63   13.01
 -15   0   2  232.83   12.64
 -14   0   2  263.87   13.84
 -14   0   2  225.57   19.49
 -14   0   2  247.49   19.88
 -14   0   2  246.91   13.65
 -14   0   2  251.76   14.25
 -14   0   2  261.90   13.95
 -13   0   2  182.35   11.73
 -13   0   2  186.86   10.81
 -13   0   2  178.92   16.44
 -13   0   2  172.52   15.98
 -13   0   2  193.26   10.78
 -13   0   2  198.25   10.98
 -13   0   2  178.90   11.75
 -13   0   2  203.75   11.33
 -12   0   2  395.35   20.91
 -12   0   2  421.96   20.10
 -12   0   2  405.42   26.27
 -12   0   2  390.22   25.60
 -12   0   2  390.38   19.94
 -12   0   2  397.19   20.05
 -12   0   2  408.88   20.32
 -12   0   2  391.56   20.24
 -12   0   2  401.01   20.38
 -11   0   2  364.55   17.74
 -11   0   2  352.60   18.47
 -11   0   2  322.83   22.63
 -11   0   2  342.95   22.68
 -11   0   2  332.73   17.60
 -11   0   2  386.05   18.04
 -11   0   2  344.81   17.76
 -11   0   2  358.39   18.02
 -10   0   2  394.75   24.78
 -10   0   2  432.81   24.59
  -9   0   2  148.76   11.58
  -9   0   2  160.26   12.29
  -8   0   2  975.74   49.36
  -8   0   2 1012.23   48.98
  -7   0   2   -0.73    3.21
  -6   0   2  581.20   26.09
  -6   0   2  485.18   23.94
  -5   0   2   21.26    4.01
  -5   0   2   22.35    3.52
  -4   0   2 2986.36  128.72
  -4   0   2 2705.74  127.77
  -3   0   2  151.32    8.86
  -3   0   2  149.17    7.92
  -2   0   2   58.26    4.06
  -2   0   2   47.18    2.96
  -1   0   2 3550.12  159.93
   0   0   2 2801.90  131.18
   0   0  -2 3190.14  131.84
  -1   0  -2 2545.98  120.26
  -1   0  -2 2827.19  120.79
  -1   0  -2 2453.29  119.54
  -2   0  -2  485.08   24.72
  -2   0  -2  492.35   24.54
  -2   0  -2  536.08   24.92
  -3   0  -2 1180.03   56.92
  -3   0  -2 1256.17   57.23
  -4   0  -2  333.00   16.10
  -4   0  -2  297.26   16.87
  -5   0  -2 1454.44   69.56
  -5   0  -2 1571.12   70.46
  -6   0  -2  468.91   24.63
  -6   0  -2  508.85   25.20
  -7   0  -2 1316.61   62.50
  -8   0  -2  624.59   32.05
 -10   0  -2 1631.31   76.06
 -10   0  -2 1636.13   76.27
 -10   0  -2 1708.66   76.32
 -10   0  -2 1670.02   76.34
 -10   0  -2 1641.12   75.95
 -10   0  -2 1671.91   76.38
 -11   0  -2   36.56    3.61
 -11   0  -2   37.28    3.77
 -11   0  -2   38.36    4.17
 -11   0  -2   32.98    3.79
 -11   0  -2   32.86    3.65
 -11   0  -2   42.78    4.32
 -11   0  -2   36.05    4.13
 -11   0  -2   32.90    3.75
 -11   0  -2   40.21    4.67
 -12   0  -2  692.75   32.66
 -12   0  -2  688.02   33.28
 -12   0  -2  662.06   32.93
 -12   0  -2  672.94   33.08
 -12   0  -2  668.23   33.14
 -12   0  -2  694.61   32.94
 -12   0  -2  711.24   33.42
 -12   0  -2  700.03   32.92
 -12   0  -2  709.84   33.89
 -13   0  -2  226.40   12.51
 -13   0  -2  250.38   13.27
 -13   0  -2  233.05   12.94
 -13   0  -2  230.79   13.00
 -13   0  -2  215.32   12.70
 -13   0  -2  240.13   12.87
 -13   0  -2  250.60   13.91
 -13   0  -2  250.17   12.98
 -13   0  -2  241.54   13.37
 -14   0  -2  157.32    9.42
 -14   0  -2  162.96    9.72
 -14   0  -2  164.16    9.98
 -14   0  -2  159.93    9.79
 -14   0  -2  174.56   10.19
 -14   0  -2  176.34   10.37
 -14   0  -2  178.76    9.97
 -14   0  -2  177.81   10.91
 -14   0  -2  188.78   10.04
 -15   0  -2   94.05    7.06
 -15   0  -2  101.20    6.81
 -15   0  -2   80.51    6.27
 -15   0  -2  103.09    7.02
 -15   0  -2  107.71    7.56
 -15   0  -2  109.86    6.81
 -15   0  -2  106.42    7.52
 -16   0  -2    3.61    2.31
 -16   0  -2    3.47    2.53
 -17   0  -2  393.06   19.33
 -20  -1   2    0.81    1.04
 -19   1   2  110.03    6.32
 -19  -1   2  110.59    6.43
 -19   1   2  118.71    6.86
 -19  -1   2  127.44    6.71
 -19  -1   2  116.00    6.79
 -18   1   2  262.45   13.84
 -18   1   2  290.30   14.33
 -18  -1   2  269.29   13.87
 -18  -1   2  268.12   14.01
 -18   1   2  266.73   13.73
 -18  -1   2  281.87   14.20
 -17  -1   2   13.75    2.90
 -17   1   2    9.45    2.63
 -17   1   2   10.91    3.08
 -17   1   2    9.60    2.70
 -17  -1   2   13.10    2.94
 -17  -1   2   12.25    2.97
 -17  -1   2   13.06    3.52
 -16  -1   2  406.64   20.67
 -16   1   2  393.11   20.66
 -16  -1   2  397.09   20.75
 -16   1   2  429.44   21.14
 -16   1   2  412.03   20.63
 -16  -1   2  428.27   21.11
 -16  -1   2  409.08   20.78
 -15  -1   2    1.82    2.81
 -15   1   2    1.46    3.42
 -15   1   2   -1.11    2.76
 -15   1   2    1.08    4.69
 -15   1   2    3.88    4.59
 -15   1   2   -1.25    2.56
 -15   1   2    4.05    3.04
 -15  -1   2    0.53    3.03
 -15  -1   2    2.31    3.02
 -15   1   2    2.75    2.66
 -15  -1   2   -2.53    3.10
 -14  -1   2  396.13   20.02
 -14   1   2  398.25   21.37
 -14   1   2  369.69   26.41
 -14   1   2  379.35   26.79
 -14   1   2  394.96   20.13
 -14  -1   2  404.42   20.40
 -14   1   2  400.68   20.42
 -14   1   2  352.83   19.77
 -14   1   2  396.78   19.98
 -14  -1   2  386.34   20.12
 -14   1   2  427.17   20.16
 -14  -1   2  389.19   20.03
 -13   1   2   30.75    4.75
 -13   1   2   34.51    7.67
 -13  -1   2   41.28    8.04
 -13   1   2   31.27    6.85
 -13   1   2   42.15    4.34
 -13  -1   2   38.53    4.56
 -13   1   2   38.03    4.45
 -13   1   2   43.11    4.37
 -13  -1   2   31.14    3.99
 -13  -1   2   39.00    4.28
 -13   1   2   26.16    3.83
 -13   1   2   46.01    4.20
 -12   1   2  425.47   22.69
 -12  -1   2  473.12   29.06
 -12   1   2  429.95   27.40
 -12   1   2  473.65   28.04
 -12  -1   2  427.10   22.27
 -12   1   2  432.73   21.87
 -12   1   2  425.89   21.88
 -12  -1   2  460.14   21.68
 -12   1   2  422.54   21.54
 -12  -1   2  420.23   21.74
 -12   1   2  433.10   21.79
 -12  -1   2  430.38   21.91
 -12   1   2  459.74   21.75
 -11   1   2  129.12    8.88
 -11   1   2  139.91    8.14
 -11   1   2  138.44   12.26
 -11  -1   2  164.46   13.67
 -11   1   2  155.60   13.00
 -11  -1   2  131.47    8.43
 -11   1   2  133.77    8.19
 -11  -1   2  132.55    7.97
 -11   1   2  144.95    8.38
 -11   1   2  140.36    8.23
 -11  -1   2  128.29    8.15
 -11  -1   2  124.31    8.16
 -11   1   2  133.99    7.94
 -10   1   2    7.40    4.10
 -10   1   2    4.78    3.76
 -10  -1   2   -1.60    4.20
  -9   1   2  117.39    9.97
  -9   1   2  126.38   10.25
  -9  -1   2  103.31    8.37
  -9  -1   2  114.89   10.83
  -9  -1   2  110.19   10.19
  -8  -1   2  152.81   10.72
  -8   1   2  164.58   12.14
  -8  -1   2  179.03   12.46
  -8   1   2  186.59   12.56
  -7   1   2  657.69   32.96
  -7   1   2  674.20   32.89
  -7  -1   2  660.11   33.01
  -7   1   2  594.94   30.19
  -7  -1   2  681.19   32.09
  -6   1   2   79.53    5.65
  -6  -1   2   86.34    8.14
  -6   1   2   83.31    6.95
  -6  -1   2   96.59    7.31
  -5  -1   2 1602.46   79.68
  -5   1   2 1762.37   78.76
  -4  -1   2 3929.63  177.12
  -4   1   2 3840.19  176.40
  -3  -1   2 1240.81   56.48
   3  -1  -2 1182.24   54.84
   2  -1  -2  180.99    9.54
  -2  -1   2  169.78   10.15
   1  -1  -2  829.07   33.89
   1   1  -2  605.80   33.57
   0  -1  -2 1739.85   76.22
   0   1  -2 1566.82   75.93
  -1   1  -2  328.64   16.32
  -1  -1  -2  307.44   17.31
  -1   1  -2  358.99   17.30
  -1   1  -2  311.83   16.66
  -1  -1  -2  354.28   16.77
  -2   1  -2  711.84   34.30
  -2   1  -2  720.97   34.69
   2   1   2  720.11   32.92
  -2  -1  -2  745.57   34.57
  -2   1  -2  711.12   34.60
   3   1   2    2.15    2.08
  -3   1  -2    0.81    2.75
  -3   1  -2    2.99    1.53
  -4   1  -2  390.69   21.26
   4   1   2  394.46   20.19
  -4   1  -2  402.93   19.51
  -4  -1  -2  429.84   21.72
   5   1   2   11.89    2.31
  -5  -1  -2   11.70    3.64
  -5   1  -2   10.91    3.71
  -5   1  -2   11.94    2.41
   6   1   2 1178.72   57.68
  -6   1  -2 1270.19   58.34
  -6  -1  -2 1290.62   60.27
  -6   1  -2 1364.89   60.98
  -7  -1  -2  436.40   23.86
  -7   1  -2  400.84   21.99
  -8   1  -2  103.39    8.12
  -8  -1  -2  119.19    9.61
  -9   1  -2  874.72   42.78
  -9   1  -2  963.47   47.84
  -9  -1  -2  881.79   45.25
  -9  -1  -2  890.14   41.74
  -9  -1  -2  914.04   41.96
  -9   1  -2  892.40   41.88
  -9  -1  -2  904.18   41.66
  -9  -1  -2  872.35   41.72
  -9   1  -2  916.21   42.06
  -9  -1  -2  921.38   42.33
  -9  -1  -2  891.66   41.58
  -9   1  -2  826.54   41.69
  -9  -1  -2  886.62   41.99
 -10  -1  -2    8.42    3.14
 -10  -1  -2    7.02    2.62
 -10   1  -2    2.66    2.55
 -10   1  -2    3.31    2.10
 -10  -1  -2    3.45    2.18
 -10  -1  -2    5.70    2.27
 -10   1  -2    2.09    2.02
 -10   1  -2    3.67    2.84
 -10  -1  -2    3.87    3.00
 -10   1  -2    5.81    2.39
 -10   1  -2    7.92    2.56
 -10  -1  -2    4.68    2.10
 -10   1  -2    5.74    2.99
 -10  -1  -2    4.86    2.34
 -10  -1  -2    4.48    2.60
 -10  -1  -2    7.71    2.70
 -10  -1  -2    1.28    3.04
 -10   1  -2    4.91    2.58
 -10  -1  -2    5.51    2.25
 -11   1  -2  646.15   31.10
 -11   1  -2  614.62   30.68
 -11  -1  -2  653.39   31.13
 -11  -1  -2  678.41   31.40
 -11   1  -2  665.92   31.40
 -11  -1  -2  628.09   30.82
 -11   1  -2  613.69   30.67
 -11  -1  -2  637.84   31.08
 -11   1  -2  591.20   30.46
 -11  -1  -2  648.09   30.96
 -11  -1  -2  628.23   31.09
 -11   1  -2  686.45   31.58
 -11   1  -2  618.31   31.47
 -11   1  -2  668.70   30.76
 -11   1  -2  666.49   31.31
 -11  -1  -2  671.54   30.97
 -11  -1  -2  668.14   31.48
 -12   1  -2   49.19    4.31
 -12  -1  -2   45.62    4.38
 -12   1  -2   47.13    4.18
 -12  -1  -2   47.30    4.66
 -12  -1  -2   53.33    5.00
 -12   1  -2   51.47    4.93
 -12  -1  -2   48.44    4.84
 -12   1  -2   62.36    5.29
 -12  -1  -2   55.98    5.26
 -12   1  -2   53.67    5.34
 -12  -1  -2   52.31    4.95
 -12  -1  -2   48.93    4.60
 -12   1  -2   45.14    4.84
 -12   1  -2   51.27    4.39
 -12   1  -2   50.81    5.19
 -12   1  -2   55.13    4.66
 -13  -1  -2  571.62   26.95
 -13  -1  -2  508.35   26.86
 -13  -1  -2  573.28   27.45
 -13  -1  -2  517.72   27.06
 -13   1  -2  557.93   27.30
 -13  -1  -2  561.91   27.54
 -13   1  -2  592.55   27.78
 -13   1  -2  537.36   27.78
 -13  -1  -2  566.26   27.29
 -13   1  -2  499.04   26.84
 -13  -1  -2  566.95   27.19
 -13  -1  -2  603.30   27.64
 -13   1  -2  594.85   27.99
 -13   1  -2  550.73   27.48
 -13   1  -2  551.17   26.97
 -13  -1  -2  585.85   27.90
 -14  -1  -2  325.00   16.35
 -14   1  -2  297.95   16.59
 -14  -1  -2  317.07   16.78
 -14   1  -2  343.29   17.20
 -14  -1  -2  263.10   16.22
 -14  -1  -2  279.07   16.12
 -14  -1  -2  328.17   16.77
 -14   1  -2  344.70   17.40
 -14  -1  -2  361.10   17.14
 -14  -1  -2  336.14   16.66
 -14   1  -2  346.70   17.08
 -14  -1  -2  344.31   17.36
 -14   1  -2  333.30   17.33
 -15  -1  -2  192.31   10.95
 -15   1  -2  204.89   11.82
 -15   1  -2  190.62   11.29
 -15  -1  -2  191.89   11.59
 -15  -1  -2  205.89   11.52
 -15  -1  -2  215.61   11.42
 -15  -1  -2  221.30   12.08
 -15   1  -2  199.45   11.94
 -15   1  -2  208.13   11.73
 -15   1  -2  234.39   12.21
 -15  -1  -2  228.50   11.89
 -16   1  -2  108.09    6.95
 -16  -1  -2  104.57    6.65
 -16  -1  -2  105.61    6.88
 -16   1  -2  111.38    7.19
 -16  -1  -2  106.80    7.07
 -16   1  -2  103.84    7.12
 -16  -1  -2   96.97    7.34
 -17   1  -2   22.73    2.82
 -17  -1  -2   22.16    2.89
 -19  -2   2   10.33    1.72
 -19   2   2    8.49    1.68
 -18   2   2   79.47    5.04
 -18  -2   2   78.07    5.01
 -18   2   2   71.19    4.89
 -18  -2   2   65.97    4.71
 -17   2   2  104.97    6.66
 -17   2   2   94.91    6.50
 -17  -2   2   99.38    6.41
 -17  -2   2   97.07    6.53
 -16   2   2   84.89    6.05
 -16   2   2   70.95    5.32
 -16  -2   2   81.78    5.85
 -16  -2   2   80.13    5.95
 -15   2   2  167.34    9.62
 -15  -2   2  178.95   10.29
 -15   2   2  165.55    9.81
 -15  -2   2  183.51   10.51
 -15   2   2  197.60   10.59
 -15  -2   2  173.20   10.32
 -15  -2   2  168.80   12.07
 -14   2   2   20.41    7.08
 -14   2   2   20.49    5.80
 -14   2   2   27.14    4.86
 -14   2   2   24.81    3.82
 -14  -2   2   31.88    3.97
 -14  -2   2   25.71    3.86
 -14  -2   2   23.04    4.94
 -14  -2   2   25.91    3.98
 -14   2   2   28.90    3.44
 -13   2   2   58.79    6.22
 -13   2   2   49.94    8.95
 -13   2   2   60.33    8.70
 -13   2   2   63.77    5.55
 -13  -2   2   59.81    5.56
 -13   2   2   58.58    5.22
 -13   2   2   60.90    4.89
 -13  -2   2   63.24    5.41
 -13  -2   2   55.49    5.08
 -13  -2   2   64.75    5.34
 -12   2   2    4.80    3.46
 -12   2   2    3.53    4.41
 -12   2   2    4.90    4.73
 -12   2   2    5.45    2.82
 -12  -2   2    1.53    2.67
 -12   2   2   -1.05    2.09
 -12  -2   2    0.48    2.85
 -12   2   2    4.95    2.68
 -11   2   2  112.63    8.22
 -11   2   2  108.11   11.44
 -11   2   2  109.82   11.14
 -11   2   2  123.18    7.40
 -11  -2   2  103.57    6.85
 -11  -2   2  105.41    7.12
 -11  -2   2  108.19    6.97
 -11   2   2   98.82    6.94
 -10   2   2  339.14   17.92
 -10   2   2  315.05   21.48
 -10  -2   2  344.89   21.51
 -10   2   2  325.78   22.15
 -10  -2   2  337.36   17.43
 -10  -2   2  347.03   16.86
 -10  -2   2  319.71   16.73
 -10   2   2  331.22   16.86
 -10  -2   2  336.80   17.04
 -10  -2   2  335.72   16.87
  -9  -2   2  247.70   13.40
  -9   2   2  244.08   13.97
  -9  -2   2  263.88   17.43
  -9   2   2  294.73   18.28
  -9   2   2  304.52   18.12
  -9  -2   2  246.01   13.55
  -9  -2   2  252.29   13.07
  -8   2   2 2285.75  103.72
  -8   2   2 2026.94  100.61
  -8  -2   2 2240.10  103.99
  -8   2   2 2415.62  104.38
  -7   2   2  227.80   14.31
  -7  -2   2  216.60   14.65
  -7   2   2  207.14   12.59
  -7   2   2  204.21   14.06
  -6   2   2  112.89    8.37
  -6   2   2  122.20    9.50
  -6   2   2  139.30    9.77
   6   2  -2  106.07    8.57
  -5   2   2   57.48    5.57
   5   2  -2   54.04    5.74
   4   2  -2  258.18   15.38
  -4   2   2  254.28   14.86
   4   2  -2  258.94   15.00
  -3   2   2  168.70   11.26
   3  -2  -2  191.18   10.96
   3   2  -2  165.72   11.54
   3   2  -2  181.00   11.31
   2   2  -2  628.91   33.96
   2   2  -2  645.57   33.57
  -1   2   2  681.13   34.50
   1   2  -2  647.42   34.48
   1   2  -2  659.83   34.17
   0   2   2   10.60    3.48
   0  -2  -2   18.06    4.38
   0   2  -2   14.09    3.93
   0  -2  -2   13.67    1.98
   0   2  -2   12.58    2.21
   1   2   2  228.27   14.27
  -1  -2  -2  269.01   15.86
  -1   2  -2  238.76   14.40
  -2   2  -2  220.77   13.65
   2   2   2  253.47   14.87
  -2  -2  -2  243.41   15.66
  -2   2  -2  229.57   14.48
   2   2   2  279.70   13.49
   3   2   2  307.47   17.42
  -3   2  -2  286.76   16.81
  -3  -2  -2  299.47   18.98
   3   2   2  323.67   16.04
   4   2   2   63.33    6.23
  -4   2  -2   68.53    6.43
   4   2   2   59.75    4.91
  -5   2  -2  658.19   34.15
   5   2   2  695.99   33.45
  -5  -2  -2  659.41   34.64
  -5   2  -2  631.62   32.04
  -6   2  -2   75.65    6.11
   6   2   2   74.43    6.67
  -6   2  -2   76.12    8.03
  -6  -2  -2   74.94    8.07
  -7  -2  -2   90.76    8.56
  -7   2  -2   66.68    6.15
  -7   2  -2   75.65    8.44
  -8   2  -2  171.77   10.43
  -8  -2  -2  168.04   13.32
  -8   2  -2  189.24   14.40
  -8  -2  -2  167.18    9.62
  -8   2  -2  174.40    9.83
  -8  -2  -2  156.93    9.92
  -8   2  -2  171.58    9.74
  -8   2  -2  166.11   10.10
  -8  -2  -2  185.49   10.04
  -8  -2  -2  164.73    9.41
  -8  -2  -2  175.74    9.58
  -8   2  -2  171.98    9.81
  -8  -2  -2  187.17   10.51
  -9   2  -2   43.66    5.16
  -9   2  -2   46.43    7.51
  -9  -2  -2   48.70    7.13
  -9   2  -2   50.76    4.54
  -9   2  -2   51.62    4.49
  -9  -2  -2   51.12    4.41
  -9   2  -2   47.60    4.87
  -9  -2  -2   46.81    4.60
  -9  -2  -2   46.78    4.38
  -9   2  -2   49.76    4.60
  -9  -2  -2   46.07    4.25
  -9  -2  -2   50.22    4.21
  -9  -2  -2   54.13    4.33
  -9   2  -2   49.26    4.57
  -9   2  -2   43.81    4.43
 -10   2  -2  289.40   16.05
 -10   2  -2  269.70   20.91
 -10  -2  -2  284.40   19.36
 -10  -2  -2  298.35   15.11
 -10   2  -2  280.56   15.06
 -10   2  -2  270.28   14.80
 -10   2  -2  263.89   15.21
 -10   2  -2  291.89   15.04
 -10  -2  -2  280.20   14.60
 -10  -2  -2  286.21   14.80
 -10  -2  -2  270.83   14.72
 -10   2  -2  291.32   15.10
 -10  -2  -2  269.73   14.88
 -10   2  -2  284.40   15.03
 -11  -2  -2   49.07    7.15
 -11   2  -2   58.92    9.07
 -11   2  -2   48.58    5.02
 -11  -2  -2   57.65    5.24
 -11   2  -2   46.96    4.67
 -11   2  -2   60.47    5.17
 -11   2  -2   50.35    5.04
 -11  -2  -2   53.44    4.82
 -11  -2  -2   63.84    5.16
 -11  -2  -2   51.19    4.64
 -11   2  -2   53.92    5.10
 -11  -2  -2   57.08    4.89
 -12   2  -2   11.18    6.07
 -12   2  -2   10.86    3.08
 -12   2  -2    9.82    2.77
 -12  -2  -2    8.06    3.09
 -12  -2  -2    4.89    2.96
 -12   2  -2    4.62    3.04
 -12   2  -2   11.54    3.13
 -12   2  -2    8.57    3.13
 -12  -2  -2    7.44    2.50
 -12   2  -2    5.67    3.27
 -12  -2  -2    8.11    3.03
 -13   2  -2   -1.14    4.48
 -13   2  -2    0.54    2.80
 -13   2  -2    2.72    2.35
 -13   2  -2    5.08    3.04
 -13  -2  -2    1.44    2.81
 -13  -2  -2    3.92    2.63
 -13   2  -2    3.41    3.23
 -13   2  -2    3.07    2.57
 -14  -2  -2   13.39    3.26
 -14   2  -2   12.02    2.53
 -14   2  -2   13.69    3.08
 -14   2  -2   16.33    3.51
 -14  -2  -2    8.23    2.89
 -14  -2  -2   10.18    3.03
 -14   2  -2   13.24    3.46
 -15  -2  -2   52.44    4.28
 -15  -2  -2   51.18    5.81
 -15   2  -2   54.35    4.58
 -15  -2  -2   58.77    4.65
 -15  -2  -2   55.19    4.58
 -15   2  -2   52.33    4.86
 -15   2  -2   54.88    4.81
 -15  -2  -2   52.83    4.68
 -16  -2  -2   22.00    2.60
 -16  -2  -2   25.11    3.06
 -16   2  -2   17.11    2.93
 -16  -2  -2   18.57    3.67
 -17   2  -2   86.47    5.18
 -17  -2  -2   75.04    4.72
 -17  -2  -2   73.76    4.85
 -18   3   2   -0.87    1.53
 -18  -3   2   -0.49    1.33
 -17  -3   2    5.57    2.20
 -17   3   2    4.37    2.06
 -17  -3   2    3.42    2.32
 -17  -3   2    3.60    1.93
 -16  -3   2   12.91    2.74
 -16   3   2    9.43    2.57
 -16  -3   2   13.75    2.73
 -16  -3   2   15.49    2.64
 -15  -3   2    3.93    2.72
 -15   3   2   -0.64    3.04
 -15   3   2   -0.36    2.29
 -15   3   2    1.14    2.39
 -15  -3   2   -1.82    2.59
 -15  -3   2   -1.80    2.42
 -14   3   2   42.52    5.39
 -14   3   2   45.93    4.59
 -14  -3   2   42.60    4.34
 -14  -3   2   48.12    6.42
 -14   3   2   44.74    3.82
 -14  -3   2   44.78    4.40
 -13   3   2    5.76    3.82
 -13   3   2    3.23    5.39
 -13   3   2    8.83    4.11
 -13   3   2   10.79    3.04
 -13  -3   2    4.91    3.64
 -13   3   2    7.63    2.57
 -13  -3   2    5.78    2.85
 -13  -3   2   -2.47    2.97
 -12   3   2  611.18   31.40
 -12   3   2  539.90   35.60
 -12   3   2  562.38   37.06
 -12   3   2  643.33   30.51
 -12  -3   2  608.76   30.02
 -12  -3   2  644.78   30.26
 -12  -3   2  635.48   30.39
 -11   3   2    2.75    3.21
 -11   3   2    2.11    5.18
 -11   3   2    2.71    4.36
 -11   3   2   -4.16    2.70
 -11  -3   2   -4.10    3.23
 -11  -3   2   -0.42    2.77
 -10   3   2   59.51    5.73
 -10  -3   2   56.66    4.87
 -10   3   2   52.66    7.85
 -10   3   2   42.14    7.78
 -10  -3   2   46.12    8.16
 -10   3   2   56.04    4.74
 -10  -3   2   41.75    4.28
 -10  -3   2   43.71    4.14
 -10  -3   2   53.43    4.49
  -9  -3   2    8.49    2.47
  -9   3   2    8.95    3.36
  -9  -3   2    5.70    4.84
  -9   3   2   13.83    5.33
  -9   3   2    0.77    3.73
  -9   3   2    1.89    2.41
  -9  -3   2    4.88    2.39
  -9  -3   2    4.94    2.15
  -9  -3   2    6.03    2.54
  -8   3   2   16.54    3.57
  -8   3   2   10.70    4.26
  -8   3   2   10.05    4.50
  -8  -3   2    7.93    4.58
  -8   3   2    6.17    2.71
  -8   3   2    2.89    3.03
  -8  -3   2    9.13    2.43
  -8  -3   2    8.45    2.19
  -8  -3   2    9.71    2.36
  -8  -3   2    9.29    2.48
  -7   3   2   35.26    3.88
  -7  -3   2   32.75    3.36
  -7   3   2   28.16    3.67
  -7   3   2   33.36    5.14
  -7   3   2   48.36    6.67
  -7   3   2   45.85    6.64
  -7  -3   2   52.31    7.49
   7   3  -2   37.96    5.50
  -6   3   2    7.83    4.03
  -6   3   2    5.53    3.50
  -6  -3   2    6.10    4.38
   6   3  -2    6.60    3.32
  -5   3   2   64.74    6.99
   5   3  -2   65.30    7.29
   5   3  -2   44.82    6.01
   4   3  -2   17.63    4.88
  -4   3   2   26.38    4.73
   4  -3  -2   23.57    4.15
   4   3  -2   15.81    4.36
   3  -3  -2   87.68    7.96
  -3   3   2   92.38    8.61
   3   3  -2   72.65    8.33
   2   3  -2   49.25    6.78
   2  -3  -2   38.81    5.84
   2   3  -2   48.29    6.56
   1  -3  -2  124.94   10.52
   1   3  -2  107.71   10.23
   1   3  -2  125.66   10.55
   0   3   2  285.13   18.87
   0  -3  -2  310.18   19.70
   0   3  -2  311.47   19.12
  -1   3  -2   16.43    4.97
   1   3   2   20.59    4.80
  -1  -3  -2   21.16    5.49
  -1   3  -2   27.91    5.49
   2   3   2   65.12    7.59
  -2  -3  -2   86.89    9.33
  -2   3  -2   76.29    8.01
   3   3   2   55.09    6.77
  -3   3  -2   45.25    5.89
  -3  -3  -2   56.99    8.09
  -3   3  -2   55.69    6.59
   4   3   2    0.62    3.27
  -4   3  -2    2.74    3.18
  -4  -3  -2    2.52    4.21
   5   3   2   -0.63    2.97
  -5   3  -2    0.85    2.36
  -5   3  -2   -0.62    3.75
   6   3   2   72.85    8.05
  -6   3  -2   94.02    9.26
  -6   3  -2   72.73    5.62
  -6  -3  -2   85.51    9.61
  -6   3  -2   83.83    7.03
  -6  -3  -2   79.99    5.36
  -6   3  -2   76.41    5.73
  -6  -3  -2   74.39    5.84
  -6  -3  -2   78.86    5.31
  -7   3  -2   21.19    3.62
  -7  -3  -2   24.21    5.88
  -7   3  -2   24.11    6.02
  -7   3  -2   30.30    3.38
  -7   3  -2   27.77    3.57
  -7  -3  -2   29.74    3.36
  -7  -3  -2   27.39    3.79
  -7   3  -2   34.67    3.54
  -7  -3  -2   29.72    3.21
  -7  -3  -2   29.70    3.28
  -8   3  -2   21.90    3.68
  -8   3  -2   18.31    2.95
  -8  -3  -2   20.05    5.62
  -8   3  -2   26.35    6.37
  -8   3  -2   20.76    3.50
  -8  -3  -2   19.56    3.07
  -8   3  -2   25.15    3.34
  -8  -3  -2   13.85    3.34
  -8  -3  -2   16.09    2.91
  -8  -3  -2   15.98    2.88
  -9   3  -2    0.30    3.11
  -9  -3  -2    1.88    4.28
  -9   3  -2   -0.97    4.87
  -9   3  -2    2.38    2.73
  -9  -3  -2    0.95    2.54
  -9   3  -2   -2.45    3.34
  -9   3  -2    3.39    2.58
  -9  -3  -2    1.06    2.18
  -9  -3  -2    1.96    2.52
  -9  -3  -2    1.06    2.41
  -9  -3  -2    1.10    2.29
 -10   3  -2   44.52    5.35
 -10   3  -2   49.38    8.48
 -10  -3  -2   44.10    7.59
 -10   3  -2   50.19    5.04
 -10  -3  -2   44.34    4.58
 -10   3  -2   44.18    4.60
 -10   3  -2   47.73    4.63
 -10  -3  -2   47.88    4.53
 -10  -3  -2   43.86    4.10
 -10  -3  -2   51.91    4.62
 -10  -3  -2   51.80    4.60
 -10   3  -2   43.87    4.76
 -11   3  -2    9.60    6.08
 -11  -3  -2   10.76    5.13
 -11   3  -2   24.29    3.61
 -11  -3  -2   17.79    3.43
 -11   3  -2   16.53    3.54
 -11  -3  -2   17.91    3.10
 -11  -3  -2   17.63    3.08
 -11  -3  -2   15.05    3.24
 -11   3  -2   19.58    3.63
 -11  -3  -2   21.27    3.39
 -12  -3  -2   -2.59    2.88
 -12   3  -2    1.91    2.50
 -12   3  -2    1.04    2.61
 -12  -3  -2    2.48    2.24
 -12  -3  -2    1.84    2.53
 -12   3  -2    2.22    2.80
 -12  -3  -2    3.28    2.37
 -12  -3  -2    3.56    2.30
 -12   3  -2   -0.24    2.94
 -13   3  -2    0.43    2.48
 -13   3  -2    0.98    2.73
 -13  -3  -2    1.95    2.98
 -13  -3  -2    0.35    2.20
 -13  -3  -2    2.18    2.50
 -13   3  -2    0.45    2.59
 -13   3  -2   -1.96    2.74
 -14   3  -2   15.43    3.07
 -14   3  -2    8.14    2.58
 -14  -3  -2   10.30    5.35
 -14  -3  -2   14.85    2.79
 -14  -3  -2    9.14    2.40
 -14   3  -2   10.94    2.77
 -14  -3  -2    7.61    2.59
 -14   3  -2   13.89    2.85
 -15  -3  -2   11.13    2.40
 -15   3  -2    9.36    2.67
 -15  -3  -2    7.85    2.56
 -15  -3  -2   13.94    2.61
 -15   3  -2   11.07    2.38
 -16  -3  -2    8.00    1.74
 -16   3  -2    7.56    2.15
 -16  -3  -2   10.34    4.09
 -17   3  -2   -1.14    1.23
 -17  -4   2   47.35    3.08
 -17   4   2   42.80    3.05
 -16  -4   2   74.96    4.55
 -16   4   2   75.06    4.61
 -16   4   2   67.15    4.23
 -15  -4   2   66.94    4.66
 -15   4   2   60.40    5.30
 -15   4   2   65.88    4.70
 -15   4   2   72.29    4.68
 -15  -4   2   54.62    4.27
 -14   4   2   49.24    5.05
 -14   4   2   44.24    4.17
 -14   4   2   46.19    4.19
 -14  -4   2   41.68    3.86
 -14  -4   2   49.87    3.82
 -13   4   2   58.04    5.87
 -13   4   2   59.03    4.94
 -13  -4   2   52.90    4.59
 -13  -4   2   65.61    4.75
 -13   4   2   66.78    4.83
 -12   4   2    6.12    3.42
 -12   4   2    1.58    2.53
 -12  -4   2    1.04    2.46
 -12  -4   2    3.27    2.59
 -12  -4   2    7.20    3.98
 -12  -4   2    0.37    2.19
 -11   4   2   66.89    6.21
 -11   4   2   57.23    4.76
 -11   4   2   57.35    8.55
 -11   4   2   46.59    8.98
 -11   4   2   60.99    5.10
 -11  -4   2   69.95    5.19
 -11  -4   2   56.43    4.72
 -11  -4   2   59.27    5.25
 -10   4   2    5.28    3.53
 -10  -4   2    2.96    2.70
 -10  -4   2    2.40    4.86
 -10   4   2    0.91    4.47
 -10   4   2    6.12    2.54
 -10   4   2   13.10    5.65
 -10   4   2    7.17    2.81
 -10  -4   2    8.47    2.71
 -10  -4   2    3.78    2.70
 -10  -4   2    3.09    2.14
  -9   4   2   16.60    4.06
  -9  -4   2   14.04    3.14
  -9   4   2   27.50    6.54
  -9   4   2   19.02    3.23
  -9  -4   2   19.71    6.72
  -9   4   2   18.13    2.84
  -9   4   2   21.19    5.97
  -9   4   2   20.75    3.08
   9   4  -2   15.54    5.67
  -9  -4   2   15.45    3.06
  -9  -4   2   19.00    2.75
  -8  -4   2    6.44    2.46
  -8   4   2    7.59    3.16
  -8   4   2    9.51    4.41
  -8   4   2    9.22    2.89
  -8  -4   2   16.58    6.61
  -8   4   2   13.39    5.77
  -8   4   2    7.06    2.41
   8   4  -2   19.40    5.93
  -8   4   2    6.20    2.42
  -8  -4   2    6.72    2.73
  -7  -4   2    0.95    2.14
  -7   4   2   -2.22    2.88
  -7  -4   2    3.38    5.23
  -7   4   2   -1.82    5.14
  -7   4   2   -0.76    3.73
  -7   4   2    2.56    3.96
  -7   4   2    2.97    2.33
   7   4  -2    5.95    5.05
  -7  -4   2    2.33    2.29
  -6   4   2   79.65    6.12
  -6   4   2   79.13    5.78
  -6  -4   2   66.66    5.51
  -6   4   2   87.20    9.34
  -6   4   2   88.20   10.02
   6   4  -2   78.15    5.65
  -5   4   2    3.52    2.55
  -5  -4   2    8.04    2.31
   5   4  -2    1.86    4.65
  -5   4   2    0.82    3.83
  -5  -4   2   11.08    5.21
   5   4  -2    2.53    2.69
  -5   4   2    4.19    2.43
  -4  -4   2   10.05    2.55
   4   4  -2   18.12    5.78
   4   4  -2    4.54    4.15
  -4   4   2    8.46    2.49
  -4  -4   2    5.77    4.30
  -4   4   2    8.42    4.37
  -3   4   2   53.36    4.77
   3   4  -2   76.26    9.33
   3   4  -2   46.43    7.66
  -3   4   2   44.78    7.46
   3   4  -2   56.23    4.65
  -3  -4   2   46.29    8.10
  -3   4   2   51.56    4.83
   3  -4  -2   54.07    7.42
   2   4  -2   68.87    5.57
   2   4  -2   94.86   10.15
   2   4  -2   80.30   10.09
  -2   4   2   72.65    9.48
   2   4  -2   70.97    5.58
  -2   4   2   66.66    5.54
   2  -4  -2   93.49    9.67
  -1   4   2  168.83    9.89
   1   4  -2  144.55    9.65
   1   4  -2  178.37   14.55
   1  -4  -2  191.63   15.23
  -1   4   2  152.14    9.65
   1   4  -2  176.00    9.88
   1   4  -2  185.47   15.04
   0   4   2   63.98    5.17
   0   4  -2   56.41    5.16
   0   4   2   72.16    9.29
   0   4  -2   61.82    5.27
   0  -4  -2   53.49    8.53
   0   4   2   59.33    5.11
  -1   4  -2   45.93    3.91
  -1  -4  -2   57.90    8.65
  -1   4  -2   42.69    7.46
   1   4   2   59.40    8.14
   1   4   2   37.51    4.19
  -1   4  -2   39.55    4.30
   1   4   2   36.87    3.92
  -2   4  -2   24.55    2.97
  -2   4  -2   23.60    3.00
   2   4   2   23.82    3.43
  -2   4  -2   32.35    6.40
   2   4   2   28.10    6.61
  -2  -4  -2   18.78    6.30
  -2   4  -2   25.19    5.47
  -2   4  -2   23.90    3.46
  -2   4  -2   22.74    3.29
  -3  -4  -2   28.15    3.07
   3   4   2   41.44    6.89
  -3  -4  -2   39.19    7.63
   3   4   2   32.01    3.63
  -3   4  -2   31.33    5.97
   4   4   2   45.11    4.43
  -4  -4  -2   56.29    4.16
  -4   4  -2   53.39    5.02
   4   4   2   56.58    8.13
  -4   4  -2   61.66    7.66
  -5  -4  -2  170.82    9.47
   5   4   2  177.07   14.79
  -5   4  -2  184.20   12.84
  -5   4  -2  179.70   14.14
  -5   4  -2  166.83   10.18
  -5   4  -2  160.07    9.91
  -6  -4  -2   24.52    2.91
   6   4   2   29.05    6.03
  -6   4  -2   27.96    3.60
  -6   4  -2   26.19    6.36
  -6   4  -2   21.60    3.13
  -6   4  -2   23.83    3.76
  -6  -4  -2   18.54    3.19
  -6   4  -2   18.54    3.48
  -6  -4  -2   25.18    3.03
  -6  -4  -2   20.85    3.05
  -7  -4  -2  341.11   18.74
  -7  -4  -2  390.02   26.49
  -7   4  -2  371.01   18.90
  -7   4  -2  400.08   19.76
  -7   4  -2  392.41   25.60
  -7  -4  -2  381.03   19.25
  -7   4  -2  389.58   19.59
  -7   4  -2  391.48   19.56
  -7  -4  -2  372.43   18.85
  -7  -4  -2  385.92   19.10
  -8  -4  -2   91.28   11.46
  -8   4  -2   81.12   10.54
  -8   4  -2   80.64    6.30
  -8   4  -2   79.61    6.06
  -8   4  -2   87.47    6.46
  -8  -4  -2   80.21    6.18
  -8   4  -2   89.42    6.73
  -8  -4  -2   84.86    5.85
  -8  -4  -2   85.02    6.07
  -9   4  -2   12.12    5.69
  -9  -4  -2   20.31    6.49
  -9   4  -2   22.44    3.91
  -9   4  -2   15.70    3.29
  -9   4  -2   23.20    3.65
  -9  -4  -2   21.45    3.45
  -9  -4  -2   15.59    2.99
  -9  -4  -2   17.29    3.14
 -10   4  -2   63.06    5.55
 -10  -4  -2   80.36    6.10
 -10   4  -2   77.34    6.08
 -10  -4  -2   78.59    5.66
 -10  -4  -2   74.02    5.60
 -11   4  -2   23.89    3.43
 -11  -4  -2   24.61    4.55
 -11  -4  -2   17.97    3.12
 -11   4  -2   13.74    3.35
 -11  -4  -2   23.55    3.22
 -12   4  -2   43.25    4.27
 -12   4  -2   55.54    4.56
 -12   4  -2   50.63    4.63
 -12   4  -2   44.21    4.16
 -12  -4  -2   50.16    4.29
 -12  -4  -2   45.99    4.14
 -13   4  -2    7.03    2.40
 -13   4  -2    3.20    2.26
 -13   4  -2    5.31    2.44
 -13  -4  -2   -1.46    2.07
 -14   4  -2   30.66    3.13
 -14  -4  -2   29.47    2.94
 -14   4  -2   26.43    3.03
 -14  -4  -2   28.36    3.25
 -15  -4  -2   43.07    3.09
 -15   4  -2   39.83    3.20
 -15   4  -2   41.82    3.03
 -15  -4  -2   46.89    3.19
 -15  -5   2    1.01    1.14
 -15   5   2   -0.31    1.15
 -14  -5   2  116.41    6.95
 -14   5   2  150.52    7.35
 -13   5   2    9.31    2.58
  13   5  -2   11.54    2.20
 -13   5   2   12.33    2.17
 -12   5   2   94.19    6.90
  12   5  -2  105.68    6.65
 -12   5   2  113.32    6.85
 -11   5   2   58.09    5.10
 -11  -5   2   57.93    4.51
 -10   5   2   98.75    6.63
 -10   5   2  102.77    7.13
 -10  -5   2   90.58    6.23
  -9   5   2  216.45   12.20
  -9  -5   2  237.75   12.35
  -9   5   2  205.92   12.32
  -9   5   2  202.98   11.69
  -9  -5   2  215.19   11.60
  -8   5   2   19.37    3.43
  -8   5   2   11.35    2.81
  -8  -5   2    9.12    2.82
  -8   5   2   13.48    3.31
  -8  -5   2   18.53    2.87
   7   5  -2  520.01   26.95
  -7   5   2  625.34   28.17
  -7   5   2  632.86   34.46
  -7   5   2  561.02   27.48
  -7  -5   2  581.82   27.51
  -7   5   2  514.04   27.41
  -7  -5   2  537.89   26.75
  -6  -5   2    1.55    2.31
  -6   5   2   -2.46    3.05
  -6   5   2   -2.84    4.58
  -6   5   2    0.95    4.43
  -6   5   2    0.28    2.53
  -6  -5   2    1.31    5.69
   6   5  -2    1.91    2.34
   6   5  -2    2.12    4.51
  -6  -5   2    0.19    2.39
  -5  -5   2  536.06   25.84
  -5   5   2  539.78   26.11
  -5   5   2  534.64   32.63
  -5  -5   2  546.98   35.02
   5   5  -2  528.18   25.81
   5   5  -2  521.18   32.88
  -5  -5   2  477.43   24.89
  -4  -5   2    6.85    2.53
   4   5  -2    6.46    5.00
  -4  -5   2    6.17    5.50
  -4   5   2    3.22    4.88
   4   5  -2    4.66    2.56
   4   5  -2    0.80    2.92
  -4   5   2    7.12    3.15
  -3  -5   2  356.93   18.02
  -3   5   2  337.51   24.64
  -3  -5   2  362.64   25.83
   3   5  -2  327.46   17.90
   3   5  -2  337.99   18.08
  -2   5   2  196.83   11.92
  -2   5   2  175.87   17.39
  -2  -5   2  195.18   17.73
   2   5  -2  195.18   11.61
  -1   5   2  226.77   13.14
   1   5  -2  220.65   12.21
  -1  -5   2  193.07   18.06
   1   5  -2  219.99   12.87
   0   5   2  177.10   10.70
   0   5  -2  173.04    9.88
   0   5   2  175.83   16.77
   0  -5   2  138.38   14.97
   0   5  -2  162.46   10.68
  -1   5  -2   15.79    3.00
  -1   5  -2   16.48    3.64
   1  -5   2    4.12    5.27
   1   5   2   10.01    3.36
  -1   5  -2   22.23    5.46
   1   5   2   17.97    6.61
  -2   5  -2  115.01    7.44
  -2  -5  -2  124.91    7.64
   2   5   2  128.47    8.41
   2   5   2  139.63   14.30
   2  -5   2  119.66   12.60
  -2   5  -2  124.43   11.67
  -2   5  -2  126.42    8.72
  -3  -5  -2   12.14    2.52
  -3   5  -2   12.03    2.94
   3   5   2   23.70    6.66
  -3  -5  -2   14.45    6.06
  -3   5  -2    8.84    4.59
  -3   5  -2   15.02    3.30
   3   5   2   12.39    3.17
   3   5   2   20.14    3.17
  -3   5  -2   17.53    3.52
   4   5   2  298.75   16.64
  -4  -5  -2  306.95   16.10
  -4   5  -2  337.59   21.87
  -4   5  -2  343.12   16.96
   4   5   2  332.86   23.75
  -4  -5  -2  330.17   24.02
  -4   5  -2  307.94   16.58
  -5  -5  -2   -2.85    1.99
   5   5   2    4.09    4.25
  -5  -5  -2    9.11    4.96
   5   5   2    0.92    2.22
  -5   5  -2    2.12    2.80
  -5   5  -2   -0.88    4.08
  -5   5  -2    6.35    2.67
  -5   5  -2    1.73    2.58
  -5  -5  -2    2.91    2.25
  -6  -5  -2  206.91   11.91
  -6  -5  -2  227.07   19.15
  -6   5  -2  236.33   12.48
  -6   5  -2  215.51   17.75
  -6   5  -2  244.51   13.20
  -6   5  -2  225.45   12.59
  -6   5  -2  232.40   12.68
  -6  -5  -2  217.17   12.06
  -7   5  -2  135.04    8.55
  -7   5  -2  121.43    7.84
  -7   5  -2  126.05    8.26
  -7   5  -2  129.64    8.30
  -7  -5  -2  129.94    7.84
  -8   5  -2   81.64    6.16
  -8   5  -2   77.59    6.10
  -8  -5  -2   84.12    6.00
  -8  -5  -2   86.82    5.84
  -9   5  -2  194.80   11.38
  -9   5  -2  227.03   11.84
  -9  -5  -2  216.05   11.54
  -9  -5  -2  203.82   11.27
 -10   5  -2   11.24    2.79
 -10  -5  -2    9.00    2.40
 -10  -5  -2    5.06    2.01
 -10  -5  -2   13.17    2.27
 -11   5  -2  300.75   14.26
 -11  -5  -2  297.41   13.88
 -11  -5  -2  276.82   13.69
 -12   5  -2    3.22    2.08
 -13   5  -2   61.11    4.06
 -13  -5  -2   61.86    3.77
  12   6  -2   46.61    3.15
 -12   6   2   51.67    3.35
  11   6  -2  174.68    8.00
 -11   6   2  169.65    7.98
 -11   6   2  152.41    7.74
  10   6  -2  191.13   10.02
 -10   6   2  188.95    9.92
 -10   6   2  178.34    9.74
   9   6  -2  193.50   10.30
  -9   6   2  184.49   10.11
  -9   6   2  174.71    9.91
  -8  -6   2  176.04    9.95
   8   6  -2  208.06   10.50
  -8   6   2  180.27    9.67
  -8   6   2  178.55   10.15
  -8   6   2  200.34   10.06
  -8  -6   2  154.06    9.04
  -7  -6   2   30.03    3.41
  -7   6   2   26.72    3.36
  -7   6   2   31.66    3.68
  -6   6   2  482.47   23.25
  -6  -6   2  480.35   23.00
  -6   6   2  467.53   22.73
   6   6  -2  430.97   22.67
   5   6  -2   75.33    5.91
  -5  -6   2   82.31    5.92
   5   6  -2   87.64    6.36
  -5   6   2   78.26    6.26
  -4   6   2  392.09   20.31
   4   6  -2  377.11   19.82
  -4   6   2  397.89   20.17
  -4  -6   2  370.72   19.57
   4   6  -2  400.43   19.87
  -3   6   2  404.91   20.55
   3   6  -2  395.51   20.14
   3   6  -2  366.64   19.67
  -3  -6   2  395.58   19.84
   3   6  -2  386.71   19.79
   2   6  -2   68.75    6.12
  -2   6   2   67.31    6.20
   2   6  -2   70.21    5.96
  -2   6   2   71.05    6.41
  -2  -6   2   74.12    5.73
   2   6  -2   72.78    5.78
   1   6  -2  144.93    9.98
  -1   6   2  163.47   10.33
   1   6  -2  169.18   10.25
  -1   6   2  171.31   10.50
   1  -6  -2  164.52    9.29
   1   6  -2  150.24    9.37
  -1  -6   2  169.60    9.85
   0   6  -2   99.52    7.64
   0   6   2   99.48    7.36
   0   6  -2  101.22    7.67
   0   6   2   98.67    7.47
   0   6  -2   95.90    6.53
   0  -6  -2   91.99    6.26
  -1   6  -2  262.25   14.94
   1   6   2  286.40   14.74
  -1   6  -2  249.31   13.71
   1   6   2  269.64   14.77
  -1  -6  -2  274.35   13.86
   2   6   2   36.76    4.19
   2   6   2   32.21    3.81
  -2   6  -2   32.34    4.25
  -2   6  -2   31.89    4.54
  -2  -6  -2   37.80    3.37
  -3   6  -2  686.52   33.58
   3   6   2  666.70   32.57
  -3   6  -2  705.02   33.23
  -4   6  -2   35.82    3.93
  -4   6  -2   35.94    3.77
  -4   6  -2   27.59    3.42
  -4  -6  -2   38.47    3.18
   5   6   2  180.85    9.91
  -5   6  -2  196.98   10.45
  -5   6  -2  175.60   10.09
  -5  -6  -2  178.68    9.56
  -6   6  -2  126.69    7.54
  -6   6  -2  126.29    7.56
  -6  -6  -2  121.17    6.99
  -6  -6  -2  135.65    7.60
  -7   6  -2   68.39    4.94
  -7  -6  -2   75.90    4.96
  -7  -6  -2   68.26    4.38
  -8   6  -2  143.84    7.81
  -8  -6  -2  149.18    7.65
  -8   6  -2  147.04    8.02
  -9   6  -2   41.45    3.46
  -9  -6  -2   42.52    3.25
  -9   6  -2   45.16    3.67
 -10  -6  -2   97.14    5.59
 -10   6  -2  108.77    5.97
  -7   7   2  311.54   14.59
   7   7  -2  288.14   14.51
  -6   7   2   23.27    2.29
   6   7  -2   24.57    2.66
  -5   7   2  191.65    9.83
  -5   7   2  200.24   10.18
   5   7  -2  175.55    9.71
  -5  -7   2  185.90    9.59
   4   7  -2   25.63    2.70
  -4   7   2   21.99    2.79
  -4   7   2   29.65    3.13
  -4  -7   2   23.14    2.45
   4   7  -2   28.50    2.81
  -3   7   2   72.82    5.24
   3   7  -2   74.66    5.03
   3   7  -2   65.53    4.65
  -3  -7   2   78.20    4.73
   2   7  -2  112.73    7.02
  -2   7   2  109.76    7.15
  -2   7   2  119.32    7.17
  -2  -7   2  118.51    6.65
   1   7  -2  138.43    7.11
  -1  -7   2  152.17    6.66
   0   7   2  346.73   17.58
   0   7  -2  331.78   17.83
   0   7   2  387.50   17.94
   0  -7   2  370.41   17.59
   1   7   2    4.09    1.98
   1  -7   2    6.34    2.09
   2   7   2  213.92   11.10
  -2   7  -2  231.32   11.45
  -2  -7  -2  209.27   10.51
  -3   7  -2    8.76    2.14
   3   7   2    9.99    1.82
  -3  -7  -2    8.17    1.54
  -4   7  -2  134.39    7.09
   4   7   2  123.23    6.89
  -4  -7  -2  128.53    6.54
   5   7   2   95.36    5.46
  -5   7  -2   98.09    5.45
   6   7   2   83.50    4.65
   6  -7   2   85.97    4.71
  -6   7  -2   76.30    4.55
 -20   0   3    0.20    1.59
 -20   0   3    3.24    1.20
 -19   0   3    0.63    2.09
 -19   0   3    0.88    1.83
 -18   0   3    5.81    2.50
 -18   0   3   -0.20    2.56
 -18   0   3    0.86    2.24
 -17   0   3    3.65    2.76
 -17   0   3   -0.34    1.99
 -17   0   3    3.64    2.94
 -17   0   3    1.26    2.48
 -16   0   3   -0.23    2.92
 -16   0   3   -0.20    2.28
 -16   0   3    0.54    3.03
 -16   0   3    0.23    2.62
 -15   0   3    0.47    2.91
 -15   0   3   -2.22    4.94
 -15   0   3    0.43    2.40
 -15   0   3    0.28    3.22
 -15   0   3    2.91    2.66
 -14   0   3    2.23    3.14
 -14   0   3    1.63    2.98
 -14   0   3    3.84    4.37
 -14   0   3   -1.10    4.57
 -14   0   3    2.41    2.38
 -14   0   3    1.90    2.90
 -14   0   3   -0.47    2.72
 -14   0   3   -3.04    3.16
 -13   0   3    1.79    2.90
 -13   0   3   -2.07    4.52
 -13   0   3   -2.67    5.04
 -13   0   3   -0.64    2.44
 -13   0   3   -0.51    2.76
 -13   0   3   -0.89    2.43
 -13   0   3   -0.22    2.82
 -12   0   3   -0.27    2.77
 -12   0   3   -1.88    4.55
 -12   0   3   -0.80    3.63
 -12   0   3   -0.20    2.16
 -12   0   3    0.23    2.57
 -12   0   3    0.20    2.48
 -12   0   3    3.19    2.74
 -11   0   3    0.83    4.23
 -11   0   3   -2.08    3.53
 -11   0   3    1.67    2.47
 -11   0   3    0.18    2.41
 -11   0   3    1.46    2.48
 -11   0   3    4.15    4.62
 -10   0   3   -0.72    3.62
 -10   0   3    5.31    3.72
  -9   0   3   -1.97    3.52
  -8   0   3   -0.82    3.09
  -7   0   3   -0.91    3.62
  -7   0   3    1.00    2.76
  -6   0   3    5.10    3.42
  -6   0   3   -0.54    2.49
  -5   0   3   -1.99    3.40
  -5   0   3    0.41    2.22
  -4   0   3    0.56    3.18
  -4   0   3    0.15    1.87
  -3   0   3    3.43    2.06
  -3   0   3    7.76    3.57
  -2   0   3    1.05    2.38
  -1   0   3    0.50    1.89
   0   0   3    2.35    1.44
   0   0  -3   -0.50    2.18
  -1   0  -3    2.65    2.46
  -1   0  -3    1.17    1.44
  -2   0  -3   -0.48    2.55
  -2   0  -3    6.89    2.98
  -3   0  -3    0.63    3.05
  -3   0  -3    3.20    3.25
  -4   0  -3    1.97    3.16
  -5   0  -3   -2.41    3.75
  -6   0  -3    1.70    3.68
  -7   0  -3   -0.66    4.33
  -8   0  -3    5.33    3.82
  -9   0  -3    4.36    4.66
  -9   0  -3    0.40    2.17
  -9   0  -3    3.84    2.08
  -9   0  -3   -0.21    2.27
  -9   0  -3    0.20    2.50
  -9   0  -3   -0.70    2.90
  -9   0  -3    1.08    1.83
  -9   0  -3    1.09    1.87
 -10   0  -3    2.95    5.01
 -10   0  -3    2.27    2.46
 -10   0  -3    1.72    2.32
 -10   0  -3   -1.34    2.06
 -10   0  -3    0.88    2.56
 -10   0  -3   -1.21    2.12
 -11   0  -3   -0.41    2.21
 -11   0  -3   -0.49    2.60
 -11   0  -3   -0.46    2.27
 -11   0  -3    1.27    2.55
 -11   0  -3   -0.24    2.76
 -11   0  -3    0.57    2.19
 -12   0  -3   -1.70    2.38
 -12   0  -3    2.55    2.76
 -12   0  -3    1.88    2.37
 -12   0  -3    2.93    2.82
 -12   0  -3   -1.53    2.68
 -12   0  -3   -1.99    2.23
 -13   0  -3   -2.27    2.69
 -13   0  -3    1.37    2.55
 -13   0  -3    3.99    2.43
 -13   0  -3   -3.43    2.62
 -13   0  -3    2.87    2.72
 -13   0  -3    0.80    2.36
 -14   0  -3   -0.19    2.16
 -14   0  -3   -1.23    2.19
 -14   0  -3    1.87    2.58
 -14   0  -3    0.75    2.35
 -14   0  -3   -0.65    2.64
 -14   0  -3    1.78    2.56
 -15   0  -3    5.60    2.95
 -15   0  -3    0.59    2.22
 -15   0  -3   -0.15    2.54
 -15   0  -3    7.31    4.18
 -15   0  -3    0.25    3.05
 -15   0  -3    2.40    2.56
 -15   0  -3   -2.50    2.34
 -20  -1   3   14.93    1.70
 -20  -1   3   17.10    1.77
 -20   1   3   12.24    1.81
 -19  -1   3    7.33    2.05
 -19   1   3    5.31    1.70
 -19  -1   3    8.26    2.16
 -19  -1   3    6.72    2.05
 -19   1   3    3.16    1.56
 -19   1   3   10.11    2.28
 -18  -1   3    7.65    2.67
 -18   1   3   12.50    2.39
 -18   1   3   10.25    2.77
 -18  -1   3    7.41    2.56
 -18  -1   3   10.86    2.57
 -18   1   3    5.26    2.09
 -17   1   3   12.13    2.74
 -17  -1   3    8.58    2.94
 -17  -1   3   13.65    3.06
 -17   1   3   11.95    3.21
 -17   1   3    8.95    2.70
 -16   1   3   -3.69    3.39
 -16   1   3    1.86    2.31
 -16  -1   3    6.34    2.93
 -16  -1   3    3.35    2.92
 -16  -1   3   -2.23    3.36
 -16   1   3   -0.26    2.68
 -16   1   3    0.83    2.48
 -15   1   3   83.37    7.23
 -15   1   3   61.27    9.93
 -15   1   3   59.21   10.01
 -15   1   3   73.37    5.95
 -15  -1   3   64.19    5.88
 -15   1   3   80.44    6.14
 -15   1   3   79.31    5.82
 -15  -1   3   78.00    6.10
 -15  -1   3   84.38    6.36
 -15   1   3   73.94    6.19
 -14   1   3   23.32    3.92
 -14   1   3   21.60    4.31
 -14   1   3   18.98    6.82
 -14   1   3   24.91    6.90
 -14  -1   3   26.48    7.27
 -14   1   3   32.63    3.91
 -14  -1   3   29.46    4.15
 -14   1   3   25.01    4.01
 -14  -1   3   27.44    3.98
 -14   1   3   25.72    3.60
 -14  -1   3   28.46    3.83
 -13   1   3  106.44    8.33
 -13  -1   3  116.03    7.59
 -13   1   3  119.00   12.61
 -13   1   3  100.28   11.74
 -13  -1   3   99.00   12.63
 -13   1   3  118.87    7.75
 -13   1   3  120.72    7.46
 -13   1   3  120.72    7.83
 -13  -1   3  110.63    7.71
 -13  -1   3  120.65    7.70
 -13   1   3  119.59    7.90
 -12   1   3   38.95    7.40
 -12   1   3   31.70    6.94
 -12  -1   3   58.44    8.79
 -12   1   3   40.19    4.40
 -12  -1   3   40.41    4.28
 -12   1   3   37.38    4.83
 -12  -1   3   44.16    4.27
 -12   1   3   38.91    4.34
 -12   1   3   45.24    4.04
 -12  -1   3   43.00    4.45
 -12  -1   3   53.28    5.31
 -12   1   3   50.88    4.61
 -11   1   3    4.85    4.32
 -11   1   3    5.92    3.89
 -11  -1   3    2.79    4.56
 -11   1   3    4.80    2.79
 -11   1   3   -0.91    2.27
 -11   1   3   -0.82    3.05
 -11   1   3   -0.17    2.04
 -11  -1   3   -0.52    2.41
 -11  -1   3    4.99    2.43
 -11   1   3   -0.62    2.58
 -11  -1   3    1.25    2.83
 -10   1   3   34.50    5.62
 -10   1   3   27.87    5.69
 -10  -1   3   25.32    3.78
  -9   1   3   11.38    4.29
  -9  -1   3    3.88    2.38
  -9   1   3   13.71    4.26
  -8  -1   3  221.05   13.63
  -8   1   3  218.76   12.42
  -8   1   3  238.81   14.97
  -7   1   3   34.23    4.74
  -7  -1   3   36.30    5.90
  -6   1   3  515.30   25.71
  -6  -1   3  454.24   26.25
  -6   1   3  473.98   24.72
  -5   1   3   56.28    5.09
  -5  -1   3   39.96    5.68
  -5   1   3   53.92    5.46
  -4  -1   3  259.64   15.29
  -4   1   3  269.32   14.87
  -3  -1   3  128.00    8.73
   3  -1  -3  130.82    7.74
   2  -1  -3    0.88    2.43
  -2  -1   3    0.69    2.56
   2   1  -3    1.10    2.90
   1  -1  -3  707.09   30.98
   1   1  -3  642.34   28.73
   0   1  -3   16.80    2.25
   0  -1  -3   17.32    3.81
  -1  -1  -3  254.83   15.23
  -1   1  -3  266.42   13.72
  -1   1  -3  260.29   14.96
  -1   1  -3  270.82   14.49
  -1  -1  -3  260.90   12.49
  -1   1  -3  270.24   14.59
  -1  -1  -3  284.49   14.56
  -2  -1  -3  231.86   14.58
  -2   1  -3  238.94   13.38
  -2  -1  -3  242.02   13.91
  -2   1  -3  256.23   14.21
  -2   1  -3  260.62   13.82
  -3   1  -3  672.73   33.13
   4   1   3 1046.71   52.16
  -4  -1  -3 1121.07   53.86
  -4   1  -3 1181.21   53.39
   5   1   3   16.41    2.90
  -5   1  -3   24.17    4.24
  -6   1  -3  481.62   26.19
  -6  -1  -3  458.11   26.01
  -7   1  -3  284.31   18.09
  -7  -1  -3  268.02   17.51
  -8   1  -3   76.64    8.54
  -8  -1  -3   55.43    7.00
  -8  -1  -3   64.05    4.86
  -8  -1  -3   61.83    4.96
  -8  -1  -3   63.68    4.63
  -8  -1  -3   57.26    5.03
  -8   1  -3   49.39    4.62
  -8  -1  -3   59.08    4.63
  -8  -1  -3   59.13    4.45
  -8   1  -3   57.88    4.84
  -8  -1  -3   56.56    4.37
  -8  -1  -3   59.81    5.06
  -8   1  -3   64.82    5.11
  -9  -1  -3  101.30    9.30
  -9   1  -3  101.53   10.91
  -9  -1  -3   90.54    6.24
  -9  -1  -3   93.90    6.24
  -9   1  -3   90.13    6.54
  -9  -1  -3   89.18    6.41
  -9  -1  -3  108.97    6.67
  -9   1  -3   90.15    5.73
  -9   1  -3   93.67    6.15
  -9   1  -3   95.99    6.26
  -9  -1  -3   85.91    5.80
  -9  -1  -3   96.96    6.42
  -9  -1  -3   94.06    6.14
  -9   1  -3  103.74    6.89
  -9  -1  -3   96.90    6.83
  -9   1  -3   82.80    6.29
  -9  -1  -3   92.50    6.05
  -9  -1  -3   96.72    6.91
 -10   1  -3  208.75   17.14
 -10  -1  -3  200.15   10.92
 -10  -1  -3  183.02   10.99
 -10  -1  -3  199.94   11.09
 -10   1  -3  203.42   11.13
 -10   1  -3  175.79   10.53
 -10   1  -3  180.98   10.63
 -10  -1  -3  183.19   10.76
 -10   1  -3  183.38   10.24
 -10  -1  -3  186.48   10.31
 -10   1  -3  202.16   10.40
 -10   1  -3  192.80   11.06
 -10  -1  -3  198.94   11.01
 -10  -1  -3  204.70   10.77
 -10   1  -3  191.41   11.29
 -10  -1  -3  199.92   11.58
 -10  -1  -3  189.39   10.63
 -10   1  -3  194.28   11.44
 -10  -1  -3  186.62   11.25
 -11   1  -3   19.37    7.19
 -11  -1  -3   18.53    3.19
 -11   1  -3   14.80    2.53
 -11   1  -3   20.56    3.74
 -11   1  -3   22.59    3.15
 -11  -1  -3   19.53    3.28
 -11  -1  -3   15.49    3.34
 -11   1  -3   22.18    3.11
 -11  -1  -3   19.89    3.82
 -11   1  -3   16.86    3.85
 -11  -1  -3   17.51    3.09
 -11   1  -3   23.82    3.69
 -11  -1  -3   15.84    3.53
 -11  -1  -3   16.56    3.49
 -11  -1  -3   19.13    4.09
 -11   1  -3   18.56    3.91
 -11  -1  -3   17.76    2.97
 -11   1  -3   18.16    3.08
 -11   1  -3   22.05    3.55
 -12   1  -3   74.19   11.29
 -12   1  -3   90.63    6.83
 -12  -1  -3   92.00    6.68
 -12  -1  -3   85.25    6.50
 -12   1  -3   84.22    6.10
 -12  -1  -3   89.89    6.71
 -12  -1  -3   83.97    6.36
 -12   1  -3   84.08    6.68
 -12   1  -3   90.79    7.13
 -12  -1  -3   88.95    6.36
 -12   1  -3   99.77    6.87
 -12  -1  -3   94.75    6.70
 -12  -1  -3   88.30    7.32
 -12  -1  -3  103.27    7.28
 -12   1  -3   91.82    7.13
 -12   1  -3   88.41    6.11
 -13  -1  -3   62.05    4.62
 -13  -1  -3   53.79    5.01
 -13  -1  -3   57.28    5.17
 -13   1  -3   49.59    4.46
 -13   1  -3   59.19    5.32
 -13  -1  -3   55.96    4.71
 -13   1  -3   62.49    5.46
 -13  -1  -3   57.74    5.18
 -13  -1  -3   51.24    4.78
 -13  -1  -3   68.60    5.45
 -13  -1  -3   62.94    5.68
 -13  -1  -3   56.95    4.99
 -13  -1  -3   48.11    5.83
 -13   1  -3   58.13    5.73
 -13   1  -3   53.61    5.29
 -13   1  -3   56.30    5.57
 -14  -1  -3   25.61    3.07
 -14   1  -3   39.56    4.13
 -14  -1  -3   27.44    3.68
 -14  -1  -3   28.87    3.84
 -14   1  -3   34.86    4.24
 -14  -1  -3   39.86    3.88
 -14   1  -3   41.05    4.43
 -14  -1  -3   31.66    3.82
 -14  -1  -3   31.11    4.04
 -14   1  -3   38.02    4.68
 -14  -1  -3   39.34    4.50
 -14   1  -3   34.33    4.30
 -15  -1  -3   82.12    6.19
 -15   1  -3   99.41    6.64
 -15   1  -3   86.07    6.20
 -15  -1  -3   89.39    6.16
 -15  -1  -3   94.74    6.13
 -15  -1  -3   89.18    6.34
 -15  -1  -3  104.95    6.80
 -15   1  -3  104.07    6.85
 -15   1  -3   88.09    6.70
 -16   1  -3   67.44    4.89
 -16  -1  -3   60.53    4.64
 -16   1  -3   70.70    5.13
 -16  -1  -3   55.34    4.37
 -16  -1  -3   51.50    5.56
 -17   1  -3   36.40    3.09
 -19   2   3    8.40    1.73
 -19   2   3    5.47    1.60
 -18   2   3  165.60    8.83
 -18  -2   3  151.21    8.48
 -18   2   3  157.46    8.68
 -17   2   3   25.10    3.28
 -17   2   3   20.68    3.10
 -17  -2   3   18.87    2.96
 -17  -2   3   15.36    3.30
 -16  -2   3  157.24    9.41
 -16   2   3  163.30    9.46
 -16  -2   3  157.33    9.31
 -16  -2   3  155.48    9.38
 -15  -2   3   17.72    3.46
 -15   2   3   12.98    2.53
 -15  -2   3   12.52    3.36
 -15   2   3   18.04    3.52
 -15  -2   3   14.56    3.22
 -14   2   3  169.89   15.99
 -14   2   3  148.96   15.72
 -14  -2   3  182.99   10.76
 -14  -2   3  187.62   10.70
 -14   2   3  201.17   11.01
 -14  -2   3  176.54   10.62
 -14  -2   3  186.57   12.84
 -13   2   3  148.42   14.02
 -13   2   3  121.76   13.18
 -13   2   3  131.94    8.49
 -13  -2   3  125.80    8.08
 -13   2   3  136.73    8.44
 -13  -2   3  126.93    8.26
 -13  -2   3  121.71    9.16
 -12   2   3  293.67   22.19
 -12   2   3  314.05   22.48
 -12   2   3  322.64   17.05
 -12  -2   3  343.62   17.20
 -12  -2   3  314.93   16.53
 -12  -2   3  324.45   16.73
 -12   2   3  319.59   16.76
 -11   2   3  410.69   26.18
 -11  -2   3  391.98   24.32
 -11   2   3  392.75   25.98
 -11   2   3  388.87   20.96
 -11  -2   3  425.28   20.61
 -11  -2   3  418.85   20.20
 -11   2   3  415.12   20.38
 -11  -2   3  391.20   20.24
 -10   2   3   38.54    6.73
 -10   2   3   32.18    6.49
 -10  -2   3   25.07    5.13
 -10   2   3   26.00    4.08
 -10   2   3   26.41    3.30
 -10  -2   3   28.31    3.31
 -10  -2   3   21.08    2.99
 -10  -2   3   23.07    3.48
  -9   2   3  161.59   12.97
  -9  -2   3  157.88   12.32
  -9   2   3  189.14   13.36
  -9   2   3  156.82    9.52
  -9  -2   3  155.02    9.04
  -9  -2   3  148.73    8.59
  -8   2   3   42.57    4.65
  -8   2   3   31.70    5.53
  -8  -2   3   32.94    5.79
  -7   2   3   94.16    7.77
  -7   2   3  104.26    8.87
   7   2  -3  102.98    8.74
  -6   2   3   39.21    4.99
  -6   2   3   42.58    5.68
   6   2  -3   41.10    5.64
  -5   2   3 1023.66   44.75
   5   2  -3  944.23   44.87
  -4   2   3  505.99   25.57
   4  -2  -3  470.38   23.80
   4   2  -3  467.06   25.42
   3  -2  -3  770.20   37.22
  -3   2   3  787.33   38.51
   3   2  -3  739.72   38.25
   2  -2  -3 2447.78  108.92
   2   2  -3 2246.80  109.48
  -1   2   3  188.74   12.26
   1  -2  -3  188.94   11.96
   1   2  -3  173.69   12.24
   0   2   3 3674.44  154.97
   0  -2  -3 3508.33  154.82
   0  -2  -3 3384.13  152.43
   0   2  -3 3098.98  152.62
   1   2   3   95.46    7.88
  -1   2  -3   87.84    6.46
  -1  -2  -3   90.74    8.07
  -1  -2  -3   91.04    6.43
  -1   2  -3   87.16    6.62
  -1   2  -3   99.16    8.25
   2   2   3 1025.45   50.12
  -2   2  -3  998.32   48.95
  -2  -2  -3  985.79   50.56
  -2   2  -3 1122.60   50.87
  -3  -2  -3 1071.40   52.71
   3   2   3 1033.84   51.74
  -3   2  -3 1075.33   51.19
   4   2   3  112.73    8.81
  -4   2  -3  118.23    8.96
  -4   2  -3  101.86    6.53
  -5  -2  -3  915.68   46.33
   5   2   3  911.78   44.59
  -5   2  -3  870.14   45.30
   6   2   3   55.08    5.62
  -6   2  -3   48.69    6.52
  -6  -2  -3   46.89    6.83
  -7  -2  -3  919.00   45.47
  -7   2  -3  867.70   44.88
  -7  -2  -3  893.37   40.27
  -7   2  -3  837.32   40.04
  -7   2  -3  825.76   40.11
  -7  -2  -3  811.98   40.29
  -7   2  -3  816.11   40.31
  -7  -2  -3  882.71   40.00
  -7   2  -3  848.32   40.10
  -7  -2  -3  829.88   39.80
  -7  -2  -3  885.96   40.65
  -8  -2  -3   33.45    6.44
  -8   2  -3   33.71    6.68
  -8   2  -3   26.59    3.32
  -8   2  -3   27.44    4.05
  -8  -2  -3   41.00    4.06
  -8   2  -3   33.30    3.88
  -8  -2  -3   40.10    3.67
  -8   2  -3   38.70    3.86
  -8  -2  -3   35.30    3.87
  -8   2  -3   31.45    3.83
  -8  -2  -3   36.51    4.47
  -8  -2  -3   33.02    3.38
  -8  -2  -3   31.90    3.51
  -8  -2  -3   34.12    3.57
  -8  -2  -3   36.14    3.65
  -8   2  -3   34.89    3.93
  -8  -2  -3   35.39    4.31
  -9   2  -3  265.06   20.40
  -9  -2  -3  279.93   19.97
  -9  -2  -3  296.58   15.19
  -9   2  -3  288.97   15.41
  -9  -2  -3  303.10   15.54
  -9  -2  -3  273.57   15.42
  -9   2  -3  286.13   15.14
  -9   2  -3  282.00   14.76
  -9   2  -3  280.06   15.75
  -9   2  -3  295.33   15.34
  -9  -2  -3  278.00   14.84
  -9  -2  -3  288.93   14.84
  -9  -2  -3  291.30   15.03
  -9   2  -3  301.03   15.44
  -9  -2  -3  276.82   15.17
  -9  -2  -3  313.45   16.07
  -9  -2  -3  273.29   14.93
  -9   2  -3  283.54   15.33
 -10   2  -3  379.43   25.92
 -10  -2  -3  356.20   24.16
 -10   2  -3  380.49   19.29
 -10   2  -3  390.57   19.60
 -10  -2  -3  368.71   19.23
 -10   2  -3  359.07   19.41
 -10  -2  -3  367.71   18.79
 -10  -2  -3  379.49   19.08
 -10  -2  -3  374.59   19.10
 -10   2  -3  404.39   19.62
 -10   2  -3  378.00   19.45
 -10  -2  -3  374.10   19.06
 -10  -2  -3  364.71   19.34
 -11   2  -3   46.34    8.99
 -11   2  -3   60.61    5.51
 -11   2  -3   53.13    5.26
 -11   2  -3   61.19    5.11
 -11  -2  -3   55.94    4.75
 -11  -2  -3   58.80    5.09
 -11  -2  -3   61.27    4.97
 -11  -2  -3   63.48    5.47
 -11   2  -3   53.60    5.33
 -12   2  -3  384.76   29.18
 -12  -2  -3  431.39   21.92
 -12   2  -3  427.28   21.94
 -12   2  -3  421.80   21.37
 -12   2  -3  438.28   21.78
 -12  -2  -3  409.63   21.33
 -12  -2  -3  414.73   21.60
 -12   2  -3  448.18   22.16
 -12  -2  -3  422.83   21.35
 -12   2  -3  430.11   21.78
 -13   2  -3   65.61    5.63
 -13   2  -3   71.45    5.84
 -13   2  -3   64.70    5.86
 -13  -2  -3   64.68    5.33
 -13   2  -3   69.26    5.74
 -13  -2  -3   67.01    5.61
 -14  -2  -3  258.93   13.67
 -14  -2  -3  258.61   14.35
 -14   2  -3  275.75   14.33
 -14  -2  -3  270.44   14.19
 -14   2  -3  263.56   14.35
 -14  -2  -3  273.36   14.14
 -14  -2  -3  291.02   14.12
 -14   2  -3  256.38   14.46
 -15  -2  -3    4.79    3.51
 -15  -2  -3    0.45    2.19
 -15  -2  -3    1.43    2.20
 -15  -2  -3   -0.35    2.10
 -15   2  -3    5.66    2.57
 -15   2  -3    2.62    2.38
 -16  -2  -3  133.66    7.21
 -16  -2  -3  140.06    7.80
 -17   2  -3   12.76    1.98
 -18  -3   3    2.08    1.66
 -18   3   3    1.38    1.59
 -18  -3   3    2.82    1.52
 -17  -3   3  180.76    9.71
 -17   3   3  182.33    9.88
 -17  -3   3  181.49    9.66
 -16  -3   3    3.61    2.50
 -16   3   3    5.87    3.20
 -16   3   3    4.37    2.50
 -16  -3   3    9.89    2.50
 -16  -3   3    8.00    2.58
 -15   3   3  359.34   19.90
 -15  -3   3  373.41   18.82
 -15   3   3  377.14   19.06
 -15   3   3  383.58   18.68
 -15  -3   3  363.07   18.53
 -15  -3   3  370.47   18.79
 -14   3   3  226.60   13.65
 -14   3   3  227.30   12.66
 -14  -3   3  223.35   12.16
 -14  -3   3  219.54   12.33
 -13   3   3   71.54    6.74
 -13   3   3   59.59    9.67
 -13   3   3   72.12    9.75
 -13   3   3   70.34    5.80
 -13  -3   3   69.73    5.41
 -13  -3   3   65.86    7.75
 -12   3   3  482.51   25.09
 -12   3   3  406.29   29.59
 -12   3   3  448.65   30.76
 -12   3   3  505.09   24.19
 -12  -3   3  464.19   24.03
 -12  -3   3  488.86   23.50
 -11   3   3   -0.35    3.38
 -11   3   3    6.74    4.65
 -11   3   3    1.03    4.58
 -11  -3   3   -1.96    3.63
 -11   3   3    0.50    2.61
 -11  -3   3   -0.23    3.15
 -11  -3   3    2.28    2.38
 -10   3   3  817.07   42.45
 -10  -3   3  784.83   42.83
 -10   3   3  750.08   42.28
 -10   3   3  715.12   36.67
 -10   3   3  789.79   36.54
 -10  -3   3  710.96   35.60
 -10  -3   3  754.17   35.50
  -9   3   3   80.66    9.19
  -9   3   3   63.03    8.34
  -9  -3   3   57.41    8.57
  -9   3   3   76.91    5.85
  -9   3   3   68.81    5.99
  -9  -3   3   71.15    5.26
  -9  -3   3   59.79    4.90
  -9  -3   3   63.48    4.69
  -8   3   3 1218.41   55.76
  -8   3   3 1123.27   54.73
  -8   3   3 1209.16   55.52
  -8   3   3 1160.61   58.45
  -8  -3   3 1256.16   61.67
  -8   3   3 1279.46   60.81
  -8   3   3 1218.98   55.12
  -8   3   3 1343.92   61.16
   8   3  -3 1163.38   59.34
  -8  -3   3 1074.99   54.60
  -8  -3   3 1242.82   54.76
  -7   3   3   60.62    5.16
  -7   3   3   58.50    4.88
  -7  -3   3   49.61    4.43
  -7   3   3   64.28    7.18
  -7   3   3   65.85    7.89
  -7  -3   3   55.90    8.11
  -7   3   3   57.05    4.68
  -7   3   3   74.06    8.24
   7   3  -3   68.48    7.62
  -6   3   3  709.59   38.42
   6   3  -3  756.82   38.89
  -5   3   3  517.00   28.87
   5   3  -3  512.85   28.69
   4  -3  -3  760.15   40.03
  -4   3   3  853.11   42.64
   4   3  -3  861.16   42.38
  -3   3   3  680.71   36.64
   3  -3  -3  682.61   35.08
   3   3  -3  685.76   36.27
   2   3  -3  765.61   40.70
  -1   3   3 2723.22  129.74
   1   3  -3 2777.43  129.76
   0   3   3   43.85    6.93
   1   3   3 2030.62   93.80
  -1   3  -3 1894.65   90.90
   2   3   3  858.68   43.44
  -2   3  -3  805.34   41.12
   3   3   3 1100.42   52.55
  -3  -3  -3 1025.29   52.82
  -3   3  -3  967.35   50.46
   4   3   3  799.22   41.81
  -4   3  -3  779.90   40.92
  -4  -3  -3  799.81   42.91
   5   3   3  231.77   15.61
  -5   3  -3  236.35   12.00
  -5   3  -3  227.17   15.76
  -5   3  -3  209.67   11.80
  -5  -3  -3  214.92   11.43
  -5  -3  -3  196.64   11.77
  -5  -3  -3  215.19   11.41
   6   3   3  967.25   47.35
  -6  -3  -3  934.55   49.21
  -6   3  -3  902.78   42.87
  -6   3  -3  894.09   47.96
  -6  -3  -3  950.30   43.24
  -6   3  -3  848.95   42.66
  -6  -3  -3  912.56   42.60
  -6   3  -3  901.09   42.88
  -6   3  -3  899.41   43.03
  -6  -3  -3  928.18   42.61
  -7   3  -3    4.16    4.35
  -7   3  -3   18.25    3.05
  -7  -3  -3   11.16    4.86
  -7   3  -3   16.30    3.33
  -7  -3  -3   18.73    3.40
  -7   3  -3   13.06    2.85
  -7  -3  -3   13.62    2.74
  -7   3  -3   16.21    3.18
  -7  -3  -3   15.79    2.88
  -7  -3  -3   15.20    2.65
  -8  -3  -3 1106.11   59.04
  -8   3  -3 1091.91   58.12
  -8   3  -3 1074.17   51.88
  -8   3  -3 1091.50   52.33
  -8  -3  -3 1144.22   52.30
  -8  -3  -3 1124.62   51.82
  -8  -3  -3 1149.85   51.70
  -8  -3  -3 1053.23   51.55
  -9  -3  -3    5.92    5.43
  -9   3  -3    8.68    4.91
  -9   3  -3    2.65    3.28
  -9  -3  -3   -0.24    2.63
  -9   3  -3    4.05    2.76
  -9   3  -3    1.53    2.69
  -9  -3  -3    5.34    3.03
  -9  -3  -3    4.39    2.56
  -9  -3  -3    1.77    2.44
  -9  -3  -3    1.60    2.45
 -10   3  -3  531.50   35.17
 -10  -3  -3  537.53   34.59
 -10   3  -3  593.95   28.70
 -10   3  -3  576.09   28.57
 -10  -3  -3  607.66   28.64
 -10   3  -3  565.27   28.97
 -10  -3  -3  597.74   28.36
 -10  -3  -3  519.97   27.70
 -10  -3  -3  613.44   28.30
 -10  -3  -3  611.41   28.42
 -11   3  -3  202.70   18.77
 -11  -3  -3  234.32   13.13
 -11   3  -3  239.39   13.22
 -11   3  -3  238.53   13.05
 -11  -3  -3  232.16   12.57
 -11  -3  -3  240.83   12.86
 -11  -3  -3  206.22   12.22
 -11   3  -3  248.83   13.30
 -11  -3  -3  236.76   12.78
 -12   3  -3  103.07    7.03
 -12  -3  -3  106.59    7.08
 -12   3  -3   97.76    6.75
 -12   3  -3  103.32    7.02
 -12  -3  -3   88.62    6.25
 -12  -3  -3   95.04    6.58
 -12  -3  -3   82.74    6.08
 -12   3  -3  100.62    7.02
 -13  -3  -3  262.71   14.48
 -13   3  -3  273.53   14.43
 -13   3  -3  273.61   14.58
 -13   3  -3  265.29   14.23
 -13  -3  -3  274.41   14.25
 -13   3  -3  272.96   14.45
 -14  -3  -3   12.08    4.26
 -14   3  -3   17.26    2.92
 -14   3  -3   15.98    2.84
 -14   3  -3   13.59    2.89
 -14  -3  -3   10.37    2.64
 -15  -3  -3  123.53    6.67
 -15   3  -3  122.65    7.30
 -15   3  -3  121.14    7.03
 -15  -3  -3  125.49    7.22
 -16   3  -3    0.42    1.58
 -16  -3  -3    3.03    1.52
 -16  -3  -3    0.92    3.53
 -17  -4   3   18.74    2.00
 -17   4   3   15.43    1.87
 -16  -4   3  290.72   14.24
 -16   4   3  297.38   14.36
 -16   4   3  281.55   14.10
 -15   4   3  194.21   11.82
 -15  -4   3  212.46   10.95
 -15   4   3  228.71   11.06
 -15   4   3  225.46   11.16
 -15  -4   3  202.68   10.63
 -15  -4   3  186.62   10.42
 -14   4   3  184.68   11.17
 -14  -4   3  186.46   10.01
 -14  -4   3  165.36    9.64
 -13   4   3  121.21    8.35
  13   4  -3  113.49    6.97
 -13   4   3  132.11    7.45
 -13  -4   3   97.60    6.55
 -13  -4   3  108.75    6.88
 -13   4   3   99.61    6.62
 -12   4   3   61.56    5.95
 -12   4   3   56.89    4.91
 -12  -4   3   51.26    4.37
 -12  -4   3   58.35    4.70
 -11   4   3  309.57   17.41
 -11   4   3  285.94   22.21
 -11   4   3  297.75   16.08
 -11  -4   3  306.15   23.31
 -11   4   3  288.71   22.99
 -11   4   3  335.33   16.45
 -11  -4   3  312.79   16.04
 -10   4   3    3.75    3.42
 -10  -4   3    1.38    2.56
 -10   4   3    2.20    2.40
 -10   4   3    1.05    4.78
 -10  -4   3    4.79    5.22
 -10   4   3    0.45    2.49
  10   4  -3    3.38    4.44
 -10  -4   3   -1.21    2.35
  -9   4   3  552.04   27.27
  -9  -4   3  522.33   26.47
  -9   4   3  512.13   25.99
  -9  -4   3  555.55   34.54
  -9   4   3  573.54   33.42
  -9   4   3  578.62   32.90
   9   4  -3  491.93   33.71
  -9   4   3  545.97   26.13
  -9  -4   3  521.74   25.83
  -8   4   3    9.82    3.24
  -8   4   3    7.62    2.36
  -8   4   3    3.02    3.73
  -8  -4   3    6.87    5.33
  -8   4   3    2.76    4.11
  -8   4   3    7.57    5.13
   8   4  -3    8.97    5.61
  -8   4   3    2.65    2.41
  -8  -4   3    8.02    2.62
  -7   4   3  434.56   23.53
  -7   4   3  473.59   23.27
  -7   4   3  452.64   23.34
  -7   4   3  421.67   27.76
  -7  -4   3  507.11   31.25
  -7   4   3  542.72   29.89
   7   4  -3  452.31   22.91
  -7   4   3  549.31   30.15
   7   4  -3  539.78   31.62
  -7  -4   3  457.61   22.61
  -6   4   3  212.32   12.18
  -6   4   3  233.24   12.43
  -6   4   3  218.03   12.52
  -6   4   3  243.71   17.35
   6   4  -3  221.45   12.04
  -6   4   3  225.38   12.43
   6   4  -3  235.49   18.71
  -6  -4   3  200.98   11.44
  -5  -4   3  669.65   33.09
  -5   4   3  653.74   32.99
  -5   4   3  692.10   33.33
   5   4  -3  746.50   40.83
  -5   4   3  744.70   39.57
   5   4  -3  699.73   33.18
  -5   4   3  706.45   33.54
  -4  -4   3  974.78   46.90
  -4   4   3 1023.14   47.35
   4   4  -3 1139.78   55.06
  -4   4   3 1051.69   53.59
   4   4  -3  973.90   46.89
   4   4  -3  983.50   46.94
   3   4  -3  191.74   15.72
  -3   4   3  189.37   15.30
   3   4  -3  154.47    9.72
   3   4  -3  180.30    9.96
  -3   4   3  164.15   10.04
   3  -4  -3  139.33   12.19
  -2   4   3  797.85   38.62
   2   4  -3  943.17   45.97
  -2   4   3  804.82   38.59
   2   4  -3  800.29   38.34
   2   4  -3  786.43   38.44
   2  -4  -3  781.78   42.70
   1   4  -3   27.23    3.51
   1   4  -3   30.33    7.36
   1  -4  -3   14.05    5.29
  -1   4   3   13.74    6.24
  -1   4   3   15.36    3.48
   1   4  -3   20.33    3.60
  -1   4   3   13.96    3.47
   0   4   3  781.89   36.87
   0   4  -3  734.29   36.13
   0   4  -3  886.13   44.06
   0   4   3  841.74   44.04
   0   4  -3  737.17   36.91
   0   4   3  786.09   36.91
   0  -4  -3  742.64   42.10
  -1   4  -3   20.36    3.19
  -1   4  -3   26.98    3.22
  -1  -4  -3   21.43    6.48
   1   4   3   31.28    6.75
  -1   4  -3   30.01    3.88
  -1   4  -3   29.70    5.12
   1   4   3   26.01    3.44
   1   4   3   31.62    3.75
   2   4   3 1090.03   51.24
  -2   4  -3 1077.47   50.64
  -2   4  -3 1047.79   50.78
   2   4   3 1229.06   58.68
  -2   4  -3 1127.89   54.90
  -2   4  -3 1050.68   51.55
  -2   4  -3 1109.72   51.26
   2   4   3 1124.39   51.17
  -2  -4  -3 1126.53   57.94
  -3   4  -3  358.35   18.57
   3   4   3  379.34   19.05
   3   4   3  415.33   25.55
  -3   4  -3  380.86   22.84
  -3   4  -3  399.68   19.24
  -3  -4  -3  414.84   26.01
  -3   4  -3  350.20   18.90
   4   4   3  499.55   24.79
  -4  -4  -3  535.55   32.35
   4   4   3  560.93   31.75
  -4   4  -3  594.41   30.37
  -4   4  -3  513.15   25.40
  -4   4  -3  517.81   24.96
  -4   4  -3  481.63   24.92
  -4  -4  -3  479.71   24.30
  -5  -4  -3  262.20   20.26
   5   4   3  245.72   18.59
  -5   4  -3  258.11   13.94
  -5   4  -3  243.09   13.26
  -5   4  -3  261.77   18.26
  -5   4  -3  237.71   13.48
  -5  -4  -3  234.95   12.80
   6   4   3   49.56    7.83
  -6   4  -3   61.82    5.26
  -6   4  -3   51.67    8.13
  -6   4  -3   53.65    4.58
  -6  -4  -3   52.40    4.64
  -6   4  -3   49.06    4.91
  -6   4  -3   56.63    5.30
  -6  -4  -3   54.26    4.44
  -6  -4  -3   53.73    4.66
  -7  -4  -3  500.36   32.26
  -7   4  -3  468.00   30.41
  -7   4  -3  522.14   25.10
  -7   4  -3  505.86   25.14
  -7   4  -3  442.70   24.39
  -7  -4  -3  493.95   24.57
  -7   4  -3  519.46   25.00
  -7  -4  -3  511.69   24.56
  -7  -4  -3  502.78   24.34
  -8  -4  -3   -2.20    4.79
  -8   4  -3    1.86    4.49
  -8   4  -3    3.27    2.53
  -8   4  -3   -0.29    3.15
  -8   4  -3    0.78    2.69
  -8  -4  -3    0.23    2.34
  -8  -4  -3   -0.20    2.25
  -8  -4  -3    2.28    2.56
  -9  -4  -3  507.97   35.96
  -9   4  -3  610.86   29.40
  -9   4  -3  568.43   29.00
  -9  -4  -3  609.94   29.14
  -9   4  -3  548.34   29.46
  -9  -4  -3  622.30   28.89
  -9   4  -3  620.49   29.57
  -9  -4  -3  611.82   29.09
 -10   4  -3   23.86    3.81
 -10  -4  -3   20.46    3.35
 -10   4  -3   28.46    3.61
 -10  -4  -3   27.71    3.28
 -10  -4  -3   24.01    3.40
 -10  -4  -3   18.32    3.16
 -11   4  -3  280.44   15.11
 -11  -4  -3  292.20   15.28
 -11  -4  -3  292.84   14.97
 -11  -4  -3  291.47   14.89
 -11  -4  -3  285.07   14.94
 -12  -4  -3  163.23   10.53
 -12   4  -3  167.26    9.67
 -12   4  -3  166.57    9.60
 -12   4  -3  160.60    9.40
 -12  -4  -3  157.81    9.10
 -12  -4  -3  178.40    9.38
 -12  -4  -3  169.47    9.32
 -12   4  -3  161.98    9.44
 -13   4  -3   65.92    4.81
 -13   4  -3   69.78    4.93
 -13  -4  -3   66.00    4.69
 -14  -4  -3  248.05   11.98
 -14   4  -3  255.62   12.30
 -14   4  -3  234.13   12.15
 -14  -4  -3  231.02   12.18
 -14  -4  -3  247.62   12.13
 -15  -4  -3    2.09    1.21
 -15   5   3   18.17    1.90
 -14  -5   3   35.79    2.87
 -13  -5   3   59.68    4.25
 -13   5   3   58.55    4.92
  13   5  -3   66.35    4.34
 -12   5   3  118.02    7.74
  12   5  -3  118.46    7.19
 -11   5   3    6.35    2.15
  11   5  -3    2.81    2.57
 -11   5   3    2.99    2.75
 -10   5   3  112.29    7.32
 -10  -5   3  107.18    7.41
  10   5  -3  118.69    7.61
 -10   5   3  105.70    7.71
  -9   5   3    7.30    2.69
  -9   5   3    4.49    2.27
  -9   5   3    2.84    3.07
  -9  -5   3    2.30    2.45
  -9  -5   3    3.48    2.16
  -8   5   3  142.22   13.62
  -8   5   3  142.28    8.83
  -8  -5   3  126.46    8.29
  -8   5   3  122.39    8.59
  -8   5   3  134.46    8.24
  -8  -5   3  112.35    7.36
  -7   5   3   70.98    6.01
  -7  -5   3   63.95    5.58
  -7   5   3   71.82    5.75
  -7   5   3   72.87    9.88
  -7   5   3   77.12    6.27
   7   5  -3   59.25    5.28
  -7  -5   3   76.74   10.92
  -7   5   3   84.03   10.11
   7   5  -3   67.84    9.98
  -7  -5   3   63.68    4.78
  -6   5   3  163.82   10.03
  -6   5   3  163.17   10.17
   6   5  -3  155.14   15.88
  -6   5   3  157.72   14.96
  -6   5   3  163.21   15.06
   6   5  -3  162.93    9.83
  -6   5   3  157.00   14.53
  -5   5   3   72.52    5.78
  -5   5   3   58.33    5.63
   5   5  -3   74.14   10.47
  -5   5   3   71.28   10.08
  -5  -5   3   62.11   10.24
   5   5  -3   67.32    5.74
  -4   5   3   65.49    5.66
  -4   5   3   74.42    6.14
   4   5  -3   79.77   10.72
  -4   5   3   60.33    9.75
  -4  -5   3   69.11   11.09
   4   5  -3   68.82    5.63
   4   5  -3   76.68    6.20
   3   5  -3  196.43   10.74
  -3  -5   3  171.28   10.45
   3   5  -3  186.82   16.83
  -3   5   3  164.29   16.30
  -3  -5   3  171.24   16.77
   3   5  -3  167.76   10.54
   3   5  -3  168.41   10.72
   2   5  -3   11.35    3.53
  -2   5   3   12.13    6.49
  -2  -5   3    3.50    6.43
   2   5  -3    7.59    3.32
   2   5  -3    9.88    3.57
  -2   5   3   13.49    3.68
  -1   5   3  610.42   28.99
   1   5  -3  556.39   27.90
   1  -5  -3  487.58   33.32
  -1  -5   3  590.62   36.39
   1   5  -3  591.72   28.82
   1   5  -3  564.44   28.56
   0   5  -3   32.41    3.84
   0   5   3   21.12    7.20
   0   5   3   22.19    4.05
   0  -5  -3   14.05    6.07
   0   5  -3   21.51    4.30
   0  -5   3   24.70    7.45
  -1   5  -3   72.24    5.50
  -1  -5  -3   67.73    5.00
   1   5   3   76.79    6.12
   1   5   3   91.59   11.65
  -1  -5  -3   69.46   10.20
   1  -5   3   85.69   10.68
  -1   5  -3   67.19    6.35
  -2   5  -3   -0.60    2.59
  -2   5  -3    0.21    2.41
   2   5   3   -2.33    5.30
  -2  -5  -3    1.10    4.33
  -2   5  -3    1.60    2.93
  -2   5  -3   -0.55    2.72
   2   5   3    3.34    2.88
   3   5   3   64.62    5.43
   3   5   3   50.47    9.14
  -3   5  -3   62.16    5.54
  -3  -5  -3   49.47    8.79
  -3   5  -3   63.73    5.21
   4   5   3   13.88    5.86
   4   5   3   20.53    3.28
  -4  -5  -3   29.53    7.30
  -4   5  -3   27.17    3.63
  -4   5  -3   17.59    3.44
   5   5   3  141.73   14.23
  -5  -5  -3  142.85   15.26
  -5   5  -3  145.54    9.64
  -5   5  -3  147.90    9.10
  -5   5  -3  138.13    9.15
  -5   5  -3  157.08    9.30
  -5  -5  -3  147.53    8.70
  -6   5  -3  190.62   10.98
  -6   5  -3  193.43   11.45
  -6   5  -3  196.02   11.34
  -6  -5  -3  203.32   10.93
  -7   5  -3   11.46    2.32
  -7   5  -3    8.27    3.17
  -7   5  -3   10.01    3.08
  -7  -5  -3   12.12    2.62
  -8   5  -3  148.98    8.98
  -8   5  -3  143.26    9.04
  -8  -5  -3  127.09    8.07
  -8  -5  -3  171.50    9.01
  -8  -5  -3  154.29    8.64
  -9   5  -3    4.48    2.55
  -9   5  -3    6.72    2.54
  -9   5  -3    6.40    2.77
  -9  -5  -3    3.08    2.05
  -9  -5  -3    4.21    1.95
  -9  -5  -3    4.38    2.26
 -10   5  -3   97.64    6.13
 -10   5  -3   91.15    6.11
 -10  -5  -3   96.50    5.67
 -11   5  -3   61.63    4.58
 -11  -5  -3   69.30    4.30
 -11  -5  -3   54.50    3.93
 -13   5  -3   52.02    3.34
  12   6  -3    7.24    1.49
 -12   6   3    8.16    1.52
  11   6  -3    9.89    2.07
 -11   6   3    5.77    1.86
  10   6  -3    6.58    2.26
 -10   6   3    4.20    1.98
 -10   6   3    3.10    1.72
   9   6  -3   18.79    2.94
  -9   6   3   10.70    2.49
  -9   6   3   12.36    2.56
  -8   6   3    3.20    2.29
   8   6  -3    6.44    2.83
  -8  -6   3    0.77    1.86
  -7   6   3   -1.05    2.14
  -7   6   3   -0.24    2.27
   7   6  -3   -1.57    2.90
  -7  -6   3   -2.87    2.37
  -6   6   3    5.94    2.43
   6   6  -3    3.24    2.51
  -6  -6   3    3.90    2.28
   5   6  -3    5.70    2.70
  -5   6   3    5.27    2.96
  -5   6   3    3.38    2.80
   5   6  -3    5.32    3.12
  -4   6   3    4.93    2.95
   4   6  -3    3.96    2.71
   4   6  -3    1.60    2.85
  -3   6   3   20.64    3.66
   3   6  -3   22.38    3.57
   3   6  -3   21.68    3.39
  -2   6   3    0.30    2.85
   2   6  -3    1.10    2.83
  -2   6   3    2.13    2.82
   2  -6  -3    0.52    1.78
   2   6  -3    0.43    2.67
  -1   6   3    2.10    2.85
  -1   6   3    3.51    2.80
   1   6  -3    6.80    3.26
   1  -6  -3    3.47    1.73
  -1  -6   3    1.26    2.53
   1   6  -3    7.64    2.77
   0   6  -3   35.91    4.37
   0   6   3   31.15    4.02
   0   6  -3   28.49    4.08
   0   6   3   37.01    4.39
   0  -6   3   29.94    3.76
   0   6  -3   35.81    3.76
   1   6   3    6.27    2.59
   1   6   3    2.92    2.61
  -1   6  -3    1.76    2.78
  -1   6  -3    5.14    2.37
   2   6   3   35.73    3.69
  -2   6  -3   33.22    4.04
   2   6   3   37.41    4.00
  -2  -6  -3   29.16    3.08
  -3   6  -3   42.47    4.48
   3   6   3   50.04    4.35
  -3  -6  -3   49.79    3.79
  -4   6  -3   -0.21    2.28
  -4   6  -3    1.13    2.03
  -4   6  -3    2.20    2.48
  -4  -6  -3   -0.43    1.72
  -5   6  -3   15.75    2.76
  -5   6  -3   16.06    2.93
  -5   6  -3   12.63    2.61
  -5  -6  -3   14.48    2.27
  -6   6  -3   10.11    2.44
  -6  -6  -3   15.95    2.51
  -6  -6  -3   12.42    2.03
  -7   6  -3    9.82    2.41
  -7  -6  -3    4.37    2.09
  -7  -6  -3    7.35    1.81
  -8   6  -3    7.40    2.28
  -8  -6  -3    9.85    2.00
  -8  -6  -3    5.43    1.39
  -9  -6  -3    4.38    1.56
  -9   6  -3    7.54    1.98
 -10   6  -3    3.83    1.43
  -7   7   3    0.10    1.30
   7   7  -3    0.94    1.47
  -6   7   3   20.99    2.23
  -6  -7   3   25.21    2.22
   6   7  -3   21.54    2.47
  -5   7   3    5.94    1.86
  -5   7   3    6.31    1.78
   5   7  -3    5.12    1.90
  -5  -7   3    5.94    1.65
  -4   7   3  108.74    6.52
  -4  -7   3  109.41    6.11
   4   7  -3  101.15    6.04
   3   7  -3   80.88    5.24
  -3   7   3   74.55    5.34
   3   7  -3   68.90    4.78
   2   7  -3   19.34    2.87
  -2   7   3   19.94    2.96
  -2   7   3   19.65    3.02
  -1   7   3   41.82    3.71
  -1   7   3   50.89    4.00
   1   7  -3   48.36    4.05
   0   7   3    9.88    2.03
   0   7  -3   14.45    2.56
   0   7   3   16.40    2.51
   1   7   3    5.65    1.84
   1  -7   3    5.67    1.83
  -1  -7  -3    6.09    1.53
  -2   7  -3    0.41    1.77
   2   7   3   -0.63    1.58
   2  -7   3    3.09    1.70
  -2   7  -3    2.65    1.44
  -2  -7  -3    2.53    1.41
   3  -7   3   -0.13    1.52
  -3   7  -3    2.36    1.35
  -3  -7  -3    3.31    1.34
   4  -7   3   45.49    3.26
  -4  -7  -3   42.74    2.83
  -4   7  -3   47.11    2.95
   5  -7   3   15.43    1.79
 -20   0   4   -1.35    1.70
 -20   0   4   -0.13    1.16
 -19   0   4  223.66   11.76
 -19   0   4  245.23   12.26
 -18   0   4   65.84    5.01
 -18   0   4   76.58    5.57
 -17   0   4  151.91    9.38
 -17   0   4  194.02   10.11
 -17   0   4  175.59   10.15
 -17   0   4  181.02   10.45
 -16   0   4  134.14    8.56
 -16   0   4  159.36    9.11
 -16   0   4  155.93    9.56
 -15   0   4  233.07   14.27
 -15   0   4  249.48   20.91
 -15   0   4  244.66   13.45
 -15   0   4  260.03   13.74
 -15   0   4  262.46   14.14
 -14   0   4   67.72    5.98
 -14   0   4   56.19    9.68
 -14   0   4   64.04    8.78
 -14   0   4   69.23    5.36
 -14   0   4   61.11    5.27
 -14   0   4   68.94    5.92
 -13   0   4  187.72   17.64
 -13   0   4  194.68   15.92
 -13   0   4  195.50   12.06
 -13   0   4  217.78   11.54
 -13   0   4  203.78   11.63
 -13   0   4  201.04   11.73
 -12   0   4 1068.83   55.16
 -12   0   4  951.03   52.38
 -12   0   4 1070.59   47.82
 -12   0   4  974.95   47.58
 -12   0   4  983.02   48.15
 -12   0   4 1069.22   47.79
 -12   0   4  997.85   47.92
 -11   0   4   15.99    4.38
 -11   0   4   13.22    3.13
 -11   0   4   21.11    3.05
 -11   0   4   14.48    3.14
 -11   0   4   15.74    3.11
 -10   0   4 1418.97   68.93
  -9   0   4  846.73   43.09
  -9   0   4  799.45   40.96
  -8   0   4  880.28   46.28
  -8   0   4  928.81   44.50
  -7   0   4  965.77   46.06
  -7   0   4  886.08   43.86
  -6   0   4  765.84   37.00
  -6   0   4  704.21   34.76
  -5   0   4  543.15   26.39
  -5   0   4  481.91   24.14
  -4   0   4   -2.55    3.02
  -4   0   4    3.37    1.56
  -3   0   4 3381.13  146.27
  -3   0   4 3157.77  144.18
  -2   0   4  900.90   42.56
  -1   0   4 2312.67  105.19
   0   0   4 2519.72  121.32
   0   0  -4 3216.58  123.17
  -1   0  -4  308.50   15.83
  -1   0  -4  390.83   17.63
  -2   0  -4  608.67   31.04
  -3   0  -4  160.91   11.28
  -4   0  -4   76.57    7.56
  -5   0  -4  214.15   14.67
  -6   0  -4  822.99   43.12
  -7   0  -4  782.63   42.21
  -8   0  -4  430.46   21.37
  -8   0  -4  433.02   21.30
  -8   0  -4  404.74   20.86
  -8   0  -4  436.00   21.31
  -8   0  -4  419.48   21.21
  -8   0  -4  414.01   20.67
  -8   0  -4  458.37   21.65
  -9   0  -4  645.96   30.85
  -9   0  -4  651.55   30.93
  -9   0  -4  650.03   30.75
  -9   0  -4  634.25   30.38
  -9   0  -4  628.45   30.14
  -9   0  -4  630.06   31.06
  -9   0  -4  611.47   30.03
  -9   0  -4  630.02   30.69
 -10   0  -4   23.71    3.39
 -10   0  -4   21.04    3.70
 -10   0  -4   26.75    3.28
 -10   0  -4   32.06    3.99
 -10   0  -4   21.47    3.89
 -10   0  -4   24.46    4.28
 -10   0  -4   24.55    3.16
 -11   0  -4  258.41   13.81
 -11   0  -4  244.03   14.26
 -11   0  -4  268.13   14.22
 -11   0  -4  270.35   14.44
 -11   0  -4  249.21   13.58
 -11   0  -4  261.82   14.80
 -11   0  -4  262.72   13.57
 -12   0  -4   -0.24    2.60
 -12   0  -4    2.36    2.77
 -12   0  -4    4.24    2.30
 -12   0  -4    2.06    3.01
 -12   0  -4    0.18    2.40
 -12   0  -4   -0.77    2.28
 -12   0  -4    1.21    3.35
 -13   0  -4  226.52   12.26
 -13   0  -4  246.13   12.90
 -13   0  -4  227.52   12.60
 -13   0  -4  228.81   12.78
 -13   0  -4  227.07   12.17
 -13   0  -4  206.90   11.93
 -13   0  -4  233.67   13.36
 -14   0  -4    9.07    2.34
 -14   0  -4    3.66    2.63
 -14   0  -4    2.90    2.24
 -14   0  -4    2.11    2.64
 -14   0  -4    3.63    2.35
 -15   0  -4  232.79   12.13
 -15   0  -4  221.18   12.06
 -20  -1   4  131.43    6.68
 -20  -1   4  125.98    6.75
 -20   1   4  126.96    6.84
 -19   1   4    0.86    1.59
 -19   1   4    2.27    1.96
 -19  -1   4    0.96    1.97
 -19  -1   4    1.55    1.78
 -18   1   4   56.89    4.25
 -18   1   4   47.29    3.87
 -18  -1   4   58.16    4.46
 -18   1   4   59.02    4.66
 -18  -1   4   52.48    4.53
 -17   1   4   46.68    4.25
 -17   1   4   44.34    3.95
 -17  -1   4   45.44    4.34
 -17  -1   4   46.99    4.61
 -17   1   4   47.77    4.66
 -16  -1   4  195.98   11.00
 -16   1   4  182.74   11.78
 -16   1   4  182.54   10.73
 -16   1   4  178.42   10.47
 -16  -1   4  199.28   11.07
 -16   1   4  192.85   11.17
 -16  -1   4  192.10   11.16
 -15  -1   4  268.31   14.33
 -15   1   4  263.93   15.20
 -15   1   4  223.31   20.37
 -15  -1   4  222.32   20.93
 -15   1   4  196.22   18.86
 -15   1   4  253.61   14.22
 -15   1   4  291.39   14.53
 -15   1   4  259.06   13.88
 -15  -1   4  265.65   14.31
 -15   1   4  274.97   14.58
 -15  -1   4  265.96   14.47
 -15  -1   4  256.71   14.29
 -14  -1   4   74.13    5.93
 -14   1   4   67.07    6.43
 -14   1   4   64.22   10.14
 -14   1   4   71.60    9.52
 -14  -1   4   71.47   11.22
 -14   1   4   76.32    5.92
 -14  -1   4   77.51    6.00
 -14   1   4   73.49    5.54
 -14   1   4   77.14    6.10
 -14  -1   4   70.94    5.83
 -14   1   4   71.97    6.01
 -14  -1   4   72.07    6.09
 -13   1   4  445.96   30.12
 -13  -1   4  430.92   30.20
 -13   1   4  428.94   28.35
 -13   1   4  456.78   23.27
 -13  -1   4  449.88   22.83
 -13   1   4  450.19   23.77
 -13  -1   4  454.16   22.83
 -13   1   4  454.37   22.57
 -13   1   4  481.38   23.10
 -13   1   4  464.90   23.15
 -13  -1   4  468.24   23.16
 -12   1   4   14.26    5.38
 -12   1   4    6.29    4.39
 -12   1   4    5.03    2.65
 -12  -1   4    9.55    2.74
 -12   1   4    5.99    3.14
 -12  -1   4    3.96    2.75
 -12   1   4    9.42    3.13
 -12  -1   4    6.12    2.81
 -12   1   4    4.21    2.28
 -11   1   4  701.55   39.28
 -11   1   4  723.66   38.15
 -11   1   4  694.96   33.61
 -11  -1   4  722.75   33.16
 -11   1   4  657.47   33.87
 -11  -1   4  708.38   33.10
 -11   1   4  689.77   32.86
 -11   1   4  686.12   33.39
 -11  -1   4  681.88   33.40
 -11  -1   4  710.11   33.91
 -10   1   4    6.83    3.91
 -10  -1   4   -3.48    5.05
 -10   1   4    1.50    2.39
 -10   1   4    0.48    2.58
 -10   1   4    0.39    2.61
 -10  -1   4    0.78    2.32
 -10  -1   4    1.18    3.87
  -9  -1   4  758.93   37.89
  -9   1   4  720.56   36.76
  -9  -1   4  857.40   42.29
  -9   1   4  764.44   39.20
  -8   1   4  789.99   41.23
  -8  -1   4  861.78   42.63
  -8   1   4  754.90   39.83
  -7   1   4  467.12   25.74
  -7  -1   4  479.26   26.78
  -7   1   4  460.25   24.51
  -6   1   4 1475.59   66.81
  -6  -1   4 1281.51   67.20
  -6   1   4 1399.61   65.48
  -5   1   4    2.27    2.86
  -5  -1   4    3.64    3.61
  -4  -1   4 2250.08  110.30
  -4   1   4 2514.60  110.26
  -3  -1   4   50.19    5.26
  -3   1   4   58.87    5.35
  -2  -1   4 2179.92  104.90
   2  -1  -4 2447.77  105.88
   1  -1  -4   12.91    3.66
   0   1  -4  166.23    9.07
   0  -1  -4  194.28   11.91
   0   1  -4  177.37   11.38
  -1  -1  -4 1812.40   86.45
  -1   1  -4 1849.01   84.27
  -1   1  -4 1728.20   85.62
  -1  -1  -4 1865.25   85.78
  -1   1  -4 1840.39   85.23
  -1   1  -4 1861.96   86.01
  -1  -1  -4 1853.90   83.40
  -2   1  -4   88.01    6.70
  -2  -1  -4   83.64    8.14
  -2   1  -4   91.50    7.69
  -2  -1  -4   99.54    7.74
  -3   1  -4 2013.83   91.37
  -3  -1  -4 1939.49   92.05
  -3   1  -4 1912.03   92.16
  -4  -1  -4    3.75    3.56
  -4   1  -4    8.13    3.45
   5   1   4 1147.12   58.24
  -5   1  -4 1302.10   60.51
  -5  -1  -4 1321.51   61.22
  -6   1  -4   85.83    8.59
  -6  -1  -4   85.14    8.70
  -7  -1  -4  418.64   24.35
  -7   1  -4  416.47   24.73
  -7   1  -4  392.02   20.19
  -7   1  -4  373.68   20.28
  -7  -1  -4  410.49   20.25
  -7  -1  -4  419.20   20.35
  -7   1  -4  410.79   20.17
  -7  -1  -4  399.47   19.74
  -7  -1  -4  392.47   20.20
  -7   1  -4  404.70   20.32
  -8   1  -4  103.43   11.02
  -8  -1  -4   98.42    6.71
  -8  -1  -4  105.62    7.19
  -8   1  -4  110.83    6.71
  -8  -1  -4  104.10    6.75
  -8   1  -4  101.82    6.23
  -8   1  -4   96.53    6.72
  -8   1  -4  108.58    7.50
  -8   1  -4  103.42    7.05
  -8  -1  -4   91.94    6.04
  -8  -1  -4  107.11    6.82
  -8  -1  -4  107.93    6.63
  -8  -1  -4   98.99    6.40
  -8  -1  -4  102.24    7.22
  -8  -1  -4  106.57    7.27
  -8   1  -4   98.51    7.17
  -9   1  -4   79.07    9.71
  -9   1  -4   64.96    5.07
  -9   1  -4   58.79    5.24
  -9  -1  -4   57.15    5.09
  -9   1  -4   49.56    4.72
  -9  -1  -4   64.66    5.48
  -9   1  -4   66.71    4.61
  -9  -1  -4   64.15    5.06
  -9  -1  -4   66.03    5.32
  -9  -1  -4   59.29    4.44
  -9   1  -4   63.92    5.35
  -9  -1  -4   69.61    5.24
  -9  -1  -4   65.68    4.94
  -9  -1  -4   59.33    5.60
  -9  -1  -4   57.94    4.69
  -9  -1  -4   52.80    5.43
  -9   1  -4   65.48    5.62
 -10   1  -4  220.97   19.50
 -10  -1  -4  242.18   13.53
 -10  -1  -4  252.40   13.88
 -10   1  -4  274.80   14.06
 -10  -1  -4  254.77   13.81
 -10  -1  -4  250.99   13.55
 -10   1  -4  258.52   13.58
 -10   1  -4  234.10   12.91
 -10   1  -4  253.75   13.82
 -10  -1  -4  241.75   13.59
 -10  -1  -4  243.52   13.31
 -10  -1  -4  246.00   14.04
 -10   1  -4  262.88   14.24
 -10  -1  -4  253.58   14.20
 -10  -1  -4  241.07   13.23
 -11   1  -4   17.55    6.24
 -11   1  -4   12.75    2.50
 -11  -1  -4   18.51    3.49
 -11  -1  -4   15.05    3.22
 -11  -1  -4   20.03    3.24
 -11   1  -4   16.85    3.72
 -11   1  -4   10.22    2.81
 -11   1  -4   14.97    3.50
 -11  -1  -4   16.80    3.35
 -11   1  -4   18.07    3.72
 -11  -1  -4   18.68    4.11
 -11  -1  -4   17.53    3.04
 -11  -1  -4   16.64    3.62
 -11  -1  -4   16.94    2.92
 -11  -1  -4   14.62    3.65
 -11   1  -4   19.96    4.00
 -12  -1  -4  186.71   10.98
 -12  -1  -4  181.34   10.82
 -12   1  -4  193.10   11.39
 -12   1  -4  201.62   11.60
 -12  -1  -4  188.13   11.32
 -12   1  -4  168.19   10.20
 -12  -1  -4  200.95   11.37
 -12   1  -4  165.95   10.56
 -12  -1  -4  203.49   10.89
 -12   1  -4  199.19   11.33
 -12  -1  -4  201.36   11.21
 -12   1  -4  188.11   11.50
 -12  -1  -4  212.98   11.73
 -12  -1  -4  201.93   11.88
 -13   1  -4   36.69    3.93
 -13   1  -4   50.00    4.84
 -13  -1  -4   42.70    4.55
 -13   1  -4   43.76    4.74
 -13  -1  -4   45.93    4.42
 -13  -1  -4   44.96    4.55
 -13  -1  -4   41.09    4.08
 -13  -1  -4   43.73    4.16
 -13  -1  -4   39.99    4.11
 -13  -1  -4   48.69    4.62
 -13  -1  -4   47.83    5.16
 -13   1  -4   48.43    5.02
 -13  -1  -4   43.59    4.84
 -14   1  -4  181.36   10.54
 -14  -1  -4  175.13   10.11
 -14   1  -4  172.10   10.31
 -14  -1  -4  178.56   10.27
 -14  -1  -4  174.73    9.95
 -14  -1  -4  187.18   10.30
 -14  -1  -4  171.44    9.78
 -14   1  -4  189.09   10.85
 -15   1  -4  122.54    7.32
 -15   1  -4  112.37    7.00
 -15  -1  -4  107.05    6.94
 -15  -1  -4  116.35    6.85
 -15  -1  -4  106.70    6.57
 -15   1  -4  113.83    7.52
 -16   1  -4   71.05    4.83
 -19  -2   4   15.74    2.24
 -19   2   4   20.16    2.15
 -19   2   4   12.78    1.92
 -19  -2   4   15.28    2.12
 -18  -2   4   17.83    2.78
 -18   2   4   18.34    2.64
 -18   2   4   13.83    2.60
 -18  -2   4   20.10    2.51
 -18  -2   4   11.24    2.51
 -17  -2   4   47.14    4.25
 -17   2   4   41.87    4.99
 -17   2   4   49.47    4.25
 -17  -2   4   52.48    4.34
 -17   2   4   42.13    4.11
 -17  -2   4   40.89    3.94
 -16  -2   4   75.51    5.70
 -16   2   4   68.57    6.45
 -16  -2   4   76.54    5.67
 -16   2   4   69.70    5.53
 -16  -2   4   72.64    5.47
 -16  -2   4   62.38    5.51
 -15   2   4   32.32    4.87
 -15  -2   4   31.00    4.04
 -15   2   4   37.14    4.16
 -15  -2   4   33.73    3.94
 -15  -2   4   28.49    3.96
 -15  -2   4   33.65    4.01
 -14   2   4   96.63   11.92
 -14   2   4   98.83   11.97
 -14   2   4  108.48    8.38
 -14  -2   4  109.60    7.42
 -14  -2   4  115.25    7.36
 -14   2   4  113.08    7.55
 -14  -2   4   99.72    7.22
 -13   2   4    2.07    4.52
 -13   2   4   -0.95    4.82
 -13  -2   4    0.67    2.51
 -13   2   4    0.47    2.80
 -13  -2   4    2.31    2.65
 -13  -2   4    2.93    2.85
 -12   2   4  332.08   17.90
 -12   2   4  334.70   23.72
 -12   2   4  304.32   22.48
  12   2  -4  300.71   21.58
 -12  -2   4  337.30   17.07
 -12   2   4  343.53   17.38
 -12  -2   4  333.89   17.26
 -12  -2   4  344.87   18.40
 -11   2   4    1.86    4.90
 -11   2   4    5.11    4.49
 -11   2   4    6.86    3.04
 -11   2   4    7.70    2.62
 -11  -2   4    4.94    2.56
 -11  -2   4    8.70    2.62
 -11  -2   4   14.43    4.36
 -10  -2   4   61.91    7.67
 -10   2   4   76.09    8.74
 -10   2   4   79.99    9.35
 -10  -2   4   68.08    5.03
 -10   2   4   69.02    5.28
 -10  -2   4   71.29    5.27
 -10  -2   4   72.61    5.95
  -9  -2   4   42.82    6.27
  -9   2   4   30.18    4.53
  -9   2   4   57.45    7.15
  -9  -2   4   50.40    8.31
  -9  -2   4   43.34    3.97
  -9  -2   4   39.12    4.40
  -8   2   4  111.20    8.71
  -8   2   4  111.99    9.59
  -8  -2   4  102.97   11.22
  -7   2   4  458.06   26.06
  -7   2   4  515.60   26.99
  -7  -2   4  485.29   28.92
  -7   2   4  503.11   27.50
   7   2  -4  475.81   27.23
  -6   2   4  257.65   16.03
  -6   2   4  276.64   16.97
   6   2  -4  245.53   16.51
  -5   2   4  691.54   35.92
  -5   2   4  722.51   36.21
   5   2  -4  681.53   36.35
   4  -2  -4  157.65    9.94
   4   2  -4  154.35   11.44
   3  -2  -4  578.99   29.77
   3   2  -4  592.09   31.03
   2  -2  -4  169.64   10.59
   2   2  -4  134.23    7.70
   2   2  -4  163.09   11.44
   1  -2  -4  699.82   33.95
   1   2  -4  634.49   30.86
   1   2  -4  678.55   34.42
   0  -2  -4  332.75   19.53
   0   2  -4  331.32   16.79
   0   2  -4  322.52   19.18
   0  -2  -4  331.84   17.68
   0   2  -4  310.41   17.93
   0   2  -4  342.24   19.82
  -1  -2  -4 1303.18   63.76
   1   2   4 1347.74   63.49
  -1   2  -4 1296.65   61.20
  -1   2  -4 1256.05   62.09
  -1  -2  -4 1278.84   61.75
  -1   2  -4 1394.90   63.57
  -2  -2  -4 1312.22   62.68
   2   2   4 1364.87   61.97
  -2   2  -4 1188.62   60.01
  -2   2  -4 1339.76   61.94
  -2   2  -4 1213.72   60.83
   3   2   4  207.47   13.88
  -3  -2  -4  222.25   15.21
  -3   2  -4  210.10   13.34
   4   2   4  764.50   38.99
  -4   2  -4  760.84   38.87
   5   2   4  118.73    9.85
  -5  -2  -4  130.39   11.57
  -5   2  -4  148.48   11.05
  -6   2  -4  169.34   12.46
  -6  -2  -4  157.59   13.18
  -6   2  -4  142.26    8.77
  -6  -2  -4  132.71    8.89
  -6  -2  -4  145.83    8.68
  -6  -2  -4  154.50    8.50
  -6   2  -4  142.68    8.59
  -6   2  -4  145.47    8.65
  -7  -2  -4   32.82    6.49
  -7   2  -4   45.39    6.86
  -7  -2  -4   39.08    3.97
  -7   2  -4   34.15    3.94
  -7  -2  -4   30.73    3.59
  -7   2  -4   34.79    3.98
  -7  -2  -4   39.34    3.64
  -7  -2  -4   37.88    3.71
  -7  -2  -4   43.54    4.58
  -7  -2  -4   36.82    3.96
  -7   2  -4   35.69    3.97
  -7  -2  -4   29.30    4.36
  -7  -2  -4   33.55    3.53
  -7   2  -4   36.91    4.20
  -8   2  -4   29.69    6.44
  -8  -2  -4    8.63    4.99
  -8  -2  -4   26.90    3.32
  -8  -2  -4   27.01    3.55
  -8   2  -4   25.46    3.37
  -8   2  -4   26.13    3.78
  -8   2  -4   22.73    3.54
  -8   2  -4   18.41    3.69
  -8  -2  -4   24.53    4.07
  -8  -2  -4   26.07    3.24
  -8  -2  -4   23.17    4.07
  -8  -2  -4   25.56    3.14
  -8  -2  -4   21.86    3.13
  -8  -2  -4   26.12    3.34
  -8  -2  -4   22.09    3.47
  -8   2  -4   20.38    3.70
  -9   2  -4  237.66   19.43
  -9  -2  -4  233.01   18.90
  -9  -2  -4  289.57   14.43
  -9   2  -4  267.93   14.45
  -9  -2  -4  281.12   14.89
  -9   2  -4  268.77   14.65
  -9  -2  -4  260.54   14.53
  -9   2  -4  259.52   14.01
  -9  -2  -4  264.19   14.03
  -9  -2  -4  261.90   13.82
  -9  -2  -4  254.22   14.02
  -9  -2  -4  308.77   15.32
  -9  -2  -4  236.24   14.20
  -9   2  -4  252.42   14.51
 -10   2  -4   71.49   10.27
 -10   2  -4   93.29    6.88
 -10   2  -4   78.13    6.23
 -10  -2  -4   97.19    6.85
 -10  -2  -4   85.44    6.34
 -10   2  -4   89.21    5.99
 -10  -2  -4   96.78    6.27
 -10  -2  -4   84.23    5.81
 -10  -2  -4   74.98    5.95
 -10  -2  -4   80.90    6.50
 -10   2  -4   83.63    6.56
 -11   2  -4  402.27   30.18
 -11   2  -4  494.06   23.86
 -11  -2  -4  455.25   23.35
 -11   2  -4  468.20   23.27
 -11   2  -4  431.84   22.64
 -11   2  -4  466.83   23.60
 -11  -2  -4  466.86   22.68
 -11  -2  -4  450.71   23.02
 -11   2  -4  471.82   23.59
 -11  -2  -4  487.46   23.13
 -11   2  -4  491.69   23.96
 -11  -2  -4  453.11   23.37
 -12   2  -4   49.67    5.11
 -12   2  -4   58.39    5.38
 -12  -2  -4   43.50    4.50
 -12  -2  -4   51.74    4.53
 -12   2  -4   51.79    5.35
 -13   2  -4   77.01    6.31
 -13   2  -4   90.54    6.41
 -13  -2  -4   82.03    5.97
 -13  -2  -4   77.34    5.77
 -13   2  -4   94.48    6.67
 -14  -2  -4    2.73    2.31
 -14   2  -4    8.06    2.69
 -14  -2  -4    2.71    2.27
 -14   2  -4    7.23    2.87
 -14  -2  -4    2.60    2.26
 -14  -2  -4    1.76    2.11
 -15  -2  -4   18.98    3.58
 -15  -2  -4   16.62    2.44
 -15   2  -4   13.77    2.56
 -15  -2  -4   14.37    2.55
 -15   2  -4   15.88    2.81
 -16  -2  -4    6.00    3.41
 -16  -2  -4    8.17    1.73
 -18  -3   4    2.00    1.65
 -18   3   4    2.88    1.64
 -18  -3   4    0.70    1.48
 -17   3   4    1.56    2.64
 -17  -3   4   -0.55    2.08
 -17   3   4    2.55    1.97
 -17  -3   4    0.86    1.96
 -16   3   4    2.21    2.93
 -16  -3   4   -0.51    2.36
 -16   3   4    1.77    2.20
 -16   3   4    0.84    1.80
 -16  -3   4   -0.18    2.28
 -15   3   4    9.84    3.53
 -15  -3   4   15.43    3.14
 -15   3   4   14.80    3.04
 -15  -3   4    6.27    2.65
 -15  -3   4    8.07    2.80
 -14   3   4   10.37    3.74
 -14  -3   4   15.01    3.23
 -14   3   4   20.96    3.46
 -14  -3   4   12.04    2.94
 -14  -3   4   17.28    3.25
 -13   3   4    7.93    3.93
 -13   3   4   17.30    5.45
 -13   3   4    5.02    4.87
 -13   3   4   10.94    3.06
 -13  -3   4    8.05    2.82
 -12   3   4   65.81    6.45
 -12   3   4   63.49    9.29
 -12   3   4   45.98    9.04
 -12   3   4   65.30    5.54
 -12  -3   4   62.16    4.92
 -11   3   4    6.13    4.86
 -11  -3   4   14.18    4.90
 -11   3   4   12.98    5.66
 -11   3   4   12.33    3.83
 -11   3   4    9.17    3.42
 -11  -3   4    6.41    2.61
 -10  -3   4   -2.82    4.45
 -10   3   4    5.68    4.90
 -10   3   4    2.71    4.28
 -10   3   4    1.75    2.83
 -10   3   4    3.25    2.99
 -10  -3   4    3.13    2.43
 -10  -3   4    4.69    2.33
  -9   3   4   29.24    4.13
  -9   3   4   24.66    3.76
  -9  -3   4   21.28    3.20
  -9   3   4   19.29    2.91
  -9   3   4   21.77    5.76
  -9  -3   4   36.20    6.76
  -9   3   4   22.21    5.87
  -9   3   4   26.70    3.20
   9   3  -4   27.58    5.89
  -9  -3   4   25.00    3.02
  -8   3   4   72.77    5.91
  -8  -3   4   76.95    5.46
  -8   3   4   70.25    5.93
  -8  -3   4   92.82   10.14
  -8   3   4   57.00    7.25
  -8   3   4   72.40    8.75
  -8   3   4   72.78    5.47
  -8   3   4   68.52    5.23
   8   3  -4   86.27    9.23
  -8  -3   4   70.12    4.94
  -7   3   4    3.50    2.48
  -7  -3   4    5.70    2.17
   7   3  -4   -0.75    3.76
  -7   3   4    3.31    3.32
  -7   3   4    4.30    4.05
  -7   3   4   -0.42    2.15
  -6  -3   4    1.34    1.76
  -6   3   4    0.68    2.96
  -6   3   4    3.61    4.02
  -6   3   4   -0.20    1.91
   6   3  -4   -2.19    4.39
  -5   3   4  150.13   12.61
   5   3  -4  156.85   12.89
   4  -3  -4   -0.89    2.81
  -4   3   4   -2.10    3.89
   4   3  -4    2.80    4.06
  -3   3   4  116.59   11.06
   3  -3  -4  103.36    9.25
   3   3  -4  133.91   11.36
   2  -3  -4  264.85   17.11
  -1   3   4    3.70    4.14
   1  -3  -4    5.66    3.80
   1   3  -4    8.75    2.69
   0  -3  -4   75.60    8.55
   0   3   4   94.35    9.47
   0   3  -4   81.62    6.58
   0   3  -4   75.99    8.74
  -1  -3  -4   51.93    7.48
   1   3   4   49.47    7.03
  -1   3  -4   48.80    5.16
  -1   3  -4   54.27    7.71
   2   3   4   -0.71    3.64
  -2   3  -4    2.23    2.78
  -2  -3  -4    0.77    4.25
   3   3   4   -1.43    3.31
  -3   3  -4    0.45    2.26
  -3   3  -4    2.13    3.21
  -3  -3  -4   -3.26    3.94
  -3   3  -4    2.34    2.21
   4   3   4   36.84    6.07
  -4   3  -4   42.95    4.20
  -4   3  -4   39.62    3.89
  -4   3  -4   39.32    5.92
  -4  -3  -4   42.24    7.27
  -4  -3  -4   40.71    4.09
  -4   3  -4   39.68    4.08
  -4  -3  -4   46.17    3.69
   5   3   4  329.60   20.75
  -5   3  -4  306.64   20.32
  -5   3  -4  320.36   16.22
  -5  -3  -4  324.37   16.77
  -5   3  -4  313.22   16.41
  -5  -3  -4  319.79   16.20
  -5   3  -4  322.04   16.64
  -5  -3  -4  316.68   16.22
  -6  -3  -4   41.23    7.53
  -6   3  -4   34.95    6.13
  -6   3  -4   38.96    4.60
  -6   3  -4   32.07    4.11
  -6  -3  -4   37.31    3.76
  -6   3  -4   33.31    4.04
  -6  -3  -4   47.91    4.51
  -6  -3  -4   36.79    3.77
  -7  -3  -4  440.54   28.04
  -7   3  -4  391.06   26.06
  -7  -3  -4  438.66   21.54
  -7   3  -4  385.81   21.16
  -7  -3  -4  422.44   21.01
  -7   3  -4  415.97   21.30
  -7   3  -4  417.58   21.74
  -7  -3  -4  434.24   21.03
  -8  -3  -4   -1.03    4.36
  -8   3  -4   10.63    4.51
  -8   3  -4    2.61    2.87
  -8   3  -4    2.48    3.40
  -8  -3  -4   -0.93    2.48
  -8  -3  -4   -1.37    2.81
  -8   3  -4   -0.26    2.96
  -8  -3  -4   -0.67    2.57
  -9  -3  -4    8.13    5.43
  -9   3  -4    6.60    4.72
  -9  -3  -4    3.65    2.57
  -9   3  -4    4.35    3.41
  -9   3  -4    2.69    2.93
  -9   3  -4    6.03    2.85
  -9  -3  -4    2.26    2.82
  -9   3  -4    5.91    3.19
  -9  -3  -4    5.37    2.64
  -9  -3  -4    7.05    2.73
 -10  -3  -4   -2.86    4.78
 -10   3  -4    6.79    4.42
 -10  -3  -4    2.23    2.63
 -10   3  -4    1.61    2.88
 -10   3  -4    3.88    3.14
 -10   3  -4   -2.58    2.82
 -10  -3  -4    0.28    2.94
 -10  -3  -4    0.40    2.44
 -10  -3  -4    6.55    2.59
 -11  -3  -4    2.42    2.52
 -11   3  -4   -0.26    2.75
 -11   3  -4   -0.97    2.65
 -11  -3  -4   -0.92    2.18
 -11  -3  -4   -1.53    2.59
 -12  -3  -4    0.45    2.34
 -12   3  -4   -2.39    2.61
 -12  -3  -4    0.20    2.29
 -12   3  -4    1.15    2.82
 -12   3  -4   -2.37    2.92
 -13  -3  -4   -1.96    2.40
 -13   3  -4   -1.45    2.50
 -13   3  -4   -2.34    2.43
 -13  -3  -4   -1.94    2.20
 -13   3  -4   -0.99    2.52
 -14  -3  -4   19.63    3.96
 -14   3  -4   14.69    2.67
 -14   3  -4   16.06    2.69
 -14  -3  -4   11.40    2.30
 -14  -3  -4   17.36    2.46
 -14   3  -4    9.71    2.62
 -15   3  -4    1.08    1.63
 -15  -3  -4   -1.85    1.65
 -15   3  -4   -0.78    1.63
 -15  -3  -4   -2.52    2.02
 -15   3  -4    1.63    1.51
 -17  -4   4    5.33    1.48
 -17   4   4    8.52    1.52
 -16   4   4   18.27    3.11
 -16  -4   4   20.98    2.53
 -16   4   4   19.75    2.50
 -16   4   4   20.31    2.30
 -16  -4   4   26.15    2.32
 -15   4   4    4.48    3.02
 -15  -4   4    6.18    2.28
 -15   4   4    6.95    2.32
 -15   4   4    8.55    2.23
 -15  -4   4    5.65    2.12
 -14  -4   4   64.38    4.94
 -14   4   4   69.73    6.01
 -14   4   4   72.76    5.16
 -14  -4   4   64.30    4.81
 -13   4   4    0.93    3.40
  13   4  -4   -1.67    2.35
 -13   4   4    0.42    2.47
 -13  -4   4    1.88    2.33
  12   4  -4  133.09    8.15
 -12   4   4  130.54    9.28
 -12   4   4  126.08    8.13
  11   4  -4   24.80    3.62
 -11   4   4   23.66    4.39
 -11   4   4   24.96    3.46
 -11   4   4   15.41    5.89
 -11   4   4   20.35    3.17
 -11   4   4   18.01    6.22
 -11  -4   4   14.51    6.30
 -10   4   4   67.11    6.51
 -10   4   4   69.93    5.23
 -10   4   4   66.46    9.59
 -10  -4   4   61.72    9.71
 -10   4   4   77.01    9.87
 -10   4   4   71.92    5.62
  -9   4   4   60.94    8.99
  -9  -4   4   57.39    9.40
  -9   4   4   58.37    8.86
  -9   4   4   54.83    5.67
  -9   4   4   61.72    5.69
  -9   4   4   58.81    4.84
  -9  -4   4   53.53    5.12
  -9  -4   4   56.45    4.54
  -8   4   4  101.91   10.52
  -8  -4   4  100.30   11.93
  -8   4   4  102.80   11.17
  -8   4   4  104.02   11.27
  -8   4   4  101.89    7.58
  -8   4   4  104.60    7.41
  -8  -4   4   97.89    7.04
  -8   4   4  104.27    7.03
  -8  -4   4   89.83    6.20
  -7   4   4  404.43   21.73
  -7   4   4  395.49   21.39
  -7   4   4  444.98   21.57
  -7  -4   4  425.72   21.34
   7   4  -4  475.02   30.06
  -7  -4   4  438.57   28.77
  -7   4   4  436.01   26.89
  -7   4   4  454.46   27.55
   7   4  -4  398.36   21.12
  -7   4   4  419.22   21.56
  -6  -4   4   24.19    3.37
  -6   4   4   27.99    3.77
   6   4  -4   22.61    6.58
  -6   4   4   28.26    6.11
  -6   4   4   29.95    3.71
   6   4  -4   27.65    3.83
  -6   4   4   26.04    3.54
  -5   4   4  430.55   23.04
  -5   4   4  496.29   23.65
  -5  -4   4  467.75   23.24
   5   4  -4  504.44   31.01
  -5   4   4  495.28   29.77
   5   4  -4  459.82   23.29
  -4  -4   4   10.17    2.60
   4   4  -4   15.98    6.13
  -4   4   4    5.72    4.88
  -4   4   4   16.33    3.34
   4   4  -4   14.03    3.10
  -4   4   4   13.15    2.97
   3   4  -4   38.49    7.32
  -3   4   4   24.55    6.49
   3   4  -4   26.14    3.63
   3   4  -4   25.86    3.75
  -3   4   4   26.94    3.63
   3  -4  -4   16.28    4.77
   2   4  -4   30.44    3.68
   2   4  -4   33.80    7.35
   2  -4  -4   24.99    5.76
  -2   4   4   27.24    3.99
   2   4  -4   28.21    3.90
   2   4  -4   27.54    3.87
  -2   4   4   25.95    3.66
   1   4  -4   56.28    4.75
  -1   4   4   55.98    5.12
   1   4  -4   55.96    8.75
   1  -4  -4   49.02    7.60
  -1   4   4   48.41    8.37
   1   4  -4   57.03    5.25
   1   4  -4   53.23    5.17
  -1   4   4   52.17    5.01
   0   4   4   50.82    5.06
   0   4  -4   52.13    4.67
   0   4   4   54.18    8.69
   0   4  -4   57.29    5.30
   0  -4  -4   53.32    8.62
   0   4   4   60.02    5.16
  -1   4  -4    2.62    2.43
  -1   4  -4    4.65    2.25
   1   4   4    0.98    4.09
   1   4   4    4.22    2.30
  -1   4  -4    2.56    2.84
  -1  -4  -4    1.92    4.45
  -1   4  -4    1.55    2.76
  -1   4  -4    5.21    2.55
   1   4   4    3.19    2.48
   2   4   4   44.31    4.08
  -2   4  -4   36.29    3.86
   2   4   4   50.75    7.87
  -2  -4  -4   29.93    7.77
  -2   4  -4   31.71    5.37
  -2   4  -4   36.53    4.10
   2   4   4   37.36    3.93
  -2   4  -4   33.23    3.89
  -3   4  -4   94.58    6.18
   3   4   4   84.08    6.31
   3   4   4  100.01   11.14
  -3   4  -4   94.58    6.62
  -3  -4  -4   78.86   11.10
  -3   4  -4   92.56    9.02
  -3   4  -4   87.33    6.44
  -3  -4  -4   90.84    5.88
   4   4   4  191.29   10.77
   4   4   4  218.21   16.70
  -4   4  -4  191.83   11.60
  -4  -4  -4  230.70   18.02
  -4   4  -4  190.69   11.04
  -4   4  -4  180.23   14.37
  -4   4  -4  181.93   11.09
  -4  -4  -4  190.31   10.56
   5   4   4   55.37    7.73
  -5   4  -4   56.98    7.73
  -5   4  -4   46.90    4.60
  -5  -4  -4   57.34    8.91
  -5   4  -4   47.78    5.18
  -5  -4  -4   47.70    4.32
  -5   4  -4   50.40    4.92
  -5  -4  -4   50.58    4.40
  -6   4  -4  152.54   14.53
  -6   4  -4  165.80   10.32
  -6  -4  -4  176.37   10.37
  -6   4  -4  194.46   11.08
  -6   4  -4  183.77   11.17
  -6  -4  -4  197.08   10.45
  -6  -4  -4  197.36   10.59
  -7  -4  -4   31.43    7.29
  -7   4  -4   22.90    4.05
  -7  -4  -4   19.68    3.25
  -7   4  -4   25.37    3.56
  -7   4  -4   19.89    3.64
  -7  -4  -4   19.66    3.18
  -7  -4  -4   21.39    3.35
  -8  -4  -4   78.71   10.59
  -8   4  -4   69.68    5.78
  -8   4  -4   78.04    6.50
  -8  -4  -4   76.13    5.68
  -8   4  -4   63.38    5.84
  -8  -4  -4   74.80    5.49
  -8   4  -4   74.61    6.13
  -8  -4  -4   85.23    5.89
  -8  -4  -4   72.81    5.67
  -9  -4  -4   -2.41    2.27
  -9   4  -4    0.23    2.51
  -9   4  -4    1.01    2.81
  -9   4  -4    1.12    2.84
  -9  -4  -4   -0.21    2.45
  -9  -4  -4    1.61    2.33
  -9  -4  -4    2.84    2.34
  -9   4  -4    2.79    2.96
 -10  -4  -4   17.88    3.13
 -10   4  -4   17.92    3.27
 -10   4  -4   19.05    3.50
 -10  -4  -4   22.72    3.02
 -10  -4  -4   20.22    2.99
 -10  -4  -4   13.41    2.92
 -11  -4  -4   21.32    3.31
 -11   4  -4   12.91    2.87
 -11  -4  -4   21.01    2.96
 -11   4  -4   17.09    3.40
 -11  -4  -4   22.02    2.94
 -11  -4  -4   21.78    2.80
 -12  -4  -4    0.16    4.18
 -12   4  -4    1.72    2.09
 -12  -4  -4    2.78    1.95
 -12   4  -4   -0.63    2.28
 -12  -4  -4    2.21    1.85
 -13   4  -4   27.37    2.86
 -13   4  -4   31.90    3.17
 -13  -4  -4   30.23    2.84
 -13  -4  -4   29.85    2.83
 -14   4  -4    0.51    1.38
 -14  -4  -4    0.39    1.74
  15   5  -4   65.84    3.99
 -15   5   4   65.84    3.96
 -14   5   4   21.30    2.81
 -14  -5   4   18.16    1.95
  13   5  -4  178.57    8.61
 -13   5   4  169.93    9.35
 -12  -5   4   13.91    2.32
 -12   5   4   14.14    3.11
  12   5  -4   17.04    2.78
  11   5  -4  374.78   17.78
 -11   5   4  344.19   18.19
 -11   5   4  325.51   17.37
 -10   5   4   78.95    6.63
  10   5  -4   80.23    6.24
 -10   5   4   93.59    6.24
  -9   5   4  174.38   11.40
   9   5  -4  204.60   11.32
  -9   5   4  182.11   10.73
  -9   5   4  203.15   11.38
  -8   5   4  185.55   11.32
  -8   5   4  184.02   10.87
   8   5  -4  186.20   11.21
  -7  -5   4   18.57    3.23
   7   5  -4   20.73    3.84
  -7   5   4   21.39    4.01
   7   5  -4   14.36    6.16
  -7   5   4   27.96    6.88
  -7  -5   4   23.48    7.41
   7   5  -4   16.77    3.27
  -7   5   4   23.76    3.50
  -7   5   4   25.11    6.33
  -6   5   4  218.74   12.88
  -6   5   4  223.28   12.84
  -6  -5   4  215.29   12.59
   6   5  -4  233.47   12.97
   6   5  -4  214.04   19.10
  -6   5   4  237.92   18.74
  -6   5   4  250.57   18.92
   6   5  -4  203.82   12.57
  -6   5   4  253.91   18.87
  -5   5   4   23.87    3.77
  -5  -5   4   16.19    3.07
   5   5  -4   19.48    7.11
  -5   5   4   17.66    5.86
  -5   5   4   21.11    3.66
  -5  -5   4   24.40    7.12
   5   5  -4   11.94    3.39
  -4   5   4  392.65   20.56
  -4  -5   4  388.64   20.41
   4   5  -4  420.31   28.55
  -4   5   4  461.77   28.88
  -4  -5   4  405.32   28.37
   4   5  -4  386.40   20.66
  -3   5   4  135.31    9.36
  -3  -5   4  140.45    8.87
   3   5  -4  132.90    8.75
   3   5  -4  143.71   15.08
  -3   5   4  160.67   15.82
  -3  -5   4  133.13   15.04
   3   5  -4  131.37    9.26
   2   5  -4  534.75   26.41
  -2   5   4  537.78   27.25
  -2  -5   4  476.22   34.02
   2   5  -4  524.93   26.92
   2   5  -4  554.28   27.10
  -1   5   4  642.31   29.44
   1   5  -4  577.56   28.38
  -1  -5   4  544.90   36.44
  -1   5   4  555.18   37.31
   1  -5  -4  498.70   34.06
   1   5  -4  570.29   29.18
   1   5  -4  576.70   29.05
   0   5  -4  704.02   33.20
   0   5   4  747.30   34.11
   0  -5   4  561.88   40.20
   0   5   4  751.37   43.05
   0  -5  -4  585.92   39.57
   0   5  -4  665.97   34.08
  -1   5  -4  334.97   16.87
   1   5   4  340.69   17.53
   1  -5   4  281.69   23.00
   1   5   4  370.06   25.71
  -1  -5  -4  263.08   22.72
  -1   5  -4  328.23   17.90
  -1   5  -4  311.64   17.37
  -2   5  -4  239.21   12.86
   2   5   4  250.50   13.58
  -2   5  -4  211.82   12.76
   2   5   4  256.34   20.40
  -2  -5  -4  264.75   20.36
  -2   5  -4  247.48   14.05
  -2   5  -4  250.17   13.67
   3   5   4  401.19   19.93
  -3   5  -4  369.95   19.16
   3   5   4  389.97   27.08
  -3  -5  -4  371.47   27.02
  -3   5  -4  395.92   20.12
  -3   5  -4  387.39   19.68
  -4  -5  -4   -2.26    5.45
  -4   5  -4   -0.25    2.47
   4   5   4   -0.45    1.96
  -4   5  -4    0.25    2.67
  -5   5  -4  280.11   15.17
  -5   5  -4  273.93   15.33
  -5   5  -4  291.37   15.65
  -5  -5  -4  301.63   15.05
  -6   5  -4   38.85    3.75
  -6   5  -4   37.47    4.55
  -6   5  -4   30.84    4.04
  -6  -5  -4   35.16    3.32
  -6  -5  -4   39.07    3.81
  -7   5  -4  156.47    9.20
  -7   5  -4  162.26    9.61
  -7  -5  -4  131.81    8.26
  -7   5  -4  167.58    9.41
  -7  -5  -4  151.54    8.85
  -8   5  -4  123.00    7.66
  -8   5  -4  117.76    7.90
  -8  -5  -4  109.73    6.87
  -8   5  -4  123.48    7.72
  -8  -5  -4  130.78    7.43
  -9   5  -4   44.82    4.13
  -9   5  -4   42.80    4.17
  -9  -5  -4   41.45    3.43
  -9   5  -4   52.80    4.34
  -9  -5  -4   43.10    3.71
 -10   5  -4  170.04    8.62
 -10  -5  -4  128.29    7.70
 -10  -5  -4  166.40    8.19
 -10  -5  -4  155.45    8.16
 -10   5  -4  132.92    8.15
 -11  -5  -4    0.78    1.51
 -11  -5  -4    1.97    1.45
 -11   5  -4    2.42    1.95
 -12  -5  -4  101.20    5.41
  12   6  -4  108.23    5.79
 -12   6   4  105.48    5.77
  11   6  -4   37.16    3.00
 -11   6   4   30.53    2.85
  10   6  -4  232.42   12.06
 -10   6   4  247.18   12.00
 -10   6   4  223.82   11.86
  -9   6   4  103.62    6.49
   9   6  -4  103.59    6.63
  -8   6   4  284.07   14.78
  -8   6   4  271.32   14.39
   8   6  -4  291.89   14.81
  -7   6   4  295.78   14.87
  -7   6   4  271.79   14.45
   7   6  -4  261.83   14.58
  -6   6   4   20.13    3.29
   6   6  -4   19.30    3.09
  -5   6   4  450.17   21.86
   5   6  -4  412.69   21.27
  -5  -6   4  400.47   21.10
  -5   6   4  438.29   21.67
   5   6  -4  424.42   21.27
  -4   6   4   24.27    3.96
   4   6  -4   19.52    3.65
   4   6  -4   22.16    3.92
  -4  -6   4   24.03    3.40
  -3   6   4  474.54   23.75
   3   6  -4  461.57   23.40
  -3  -6   4  476.72   23.09
  -3   6   4  449.59   23.57
   3   6  -4  450.28   22.90
  -2   6   4   41.07    5.47
  -2   6   4   40.50    5.44
   2   6  -4   84.60    7.11
   2   6  -4   53.55    5.35
  -2  -6   4   89.84    5.92
   1   6  -4  567.09   28.16
  -1   6   4  578.69   28.16
  -1   6   4  571.73   28.18
  -1  -6   4  587.35   27.78
   1   6  -4  529.86   27.20
   0   6   4  186.76   10.99
   0   6  -4  163.97   10.19
   0   6   4  194.41   11.18
   0  -6   4  209.19   11.01
   1   6   4   82.55    5.97
  -1   6  -4   82.11    6.45
   1   6   4   84.02    6.13
   2   6   4  625.29   31.43
  -2   6  -4  670.32   32.05
   2   6   4  666.52   31.86
  -2  -6  -4  681.85   31.18
   3   6   4    4.51    2.13
  -3   6  -4    1.07    2.51
  -3   6  -4    2.56    2.73
  -3  -6  -4    1.47    1.86
  -4   6  -4  740.07   35.21
  -4   6  -4  753.85   35.38
  -4  -6  -4  737.75   34.74
  -5   6  -4    2.73    2.52
  -5   6  -4    3.88    2.25
  -5  -6  -4    2.54    1.79
  -6   6  -4  337.09   17.64
  -6  -6  -4  374.75   17.62
  -6   6  -4  361.71   17.64
  -6  -6  -4  356.53   17.26
  -7  -6  -4  213.25   10.68
  -7   6  -4  202.45   10.79
  -7  -6  -4  207.43   10.40
  -8  -6  -4   90.00    4.85
  -8   6  -4   86.08    5.08
  -9   6  -4   98.86    5.65
  -9  -6  -4  106.80    5.53
   7   7  -4   28.12    2.41
  -7   7   4   26.96    2.36
  -6  -7   4   43.97    3.20
   6   7  -4   47.61    3.32
  -6   7   4   47.38    3.17
   5   7  -4   59.18    4.11
  -5   7   4   66.77    4.44
  -5   7   4   68.30    4.24
   4   7  -4  236.42   12.26
  -4   7   4  271.37   12.83
   3   7  -4    2.77    2.25
  -3   7   4   -0.88    2.20
  -2  -7   4  265.53   12.90
  -2   7   4  250.57   13.04
   1   7  -4   79.33    5.17
  -1   7   4   69.88    5.24
   0  -7   4  244.04   10.94
   0   7  -4  221.33   10.62
   0   7   4  222.70   10.89
   1   7   4  133.87    7.46
   1  -7   4  151.24    7.68
   2  -7   4  158.64    7.76
  -2  -7  -4  135.37    7.29
   3  -7   4  312.37   14.95
  -3  -7  -4  308.74   14.62
   4  -7   4    0.84    1.01
 -20   0   5   -1.33    1.60
 -19   0   5    2.47    2.02
 -19   0   5   -3.36    1.82
 -18   0   5    2.60    2.42
 -18   0   5   -1.25    2.14
 -17   0   5    3.78    2.02
 -17   0   5   -1.42    2.72
 -17   0   5   -1.35    2.43
 -16   0   5   -1.88    3.01
 -16   0   5   -2.15    2.29
 -16   0   5   -1.31    2.82
 -16   0   5    1.08    2.48
 -15   0   5    3.12    2.94
 -15   0   5    2.20    3.09
 -15   0   5   -1.20    5.12
 -15   0   5   -0.43    2.37
 -15   0   5   -0.55    2.99
 -15   0   5    5.23    2.71
 -14   0   5    0.57    2.88
 -14   0   5   -3.39    3.05
 -14   0   5   -2.37    5.05
 -14   0   5    2.45    2.40
 -14   0   5    3.00    2.81
 -14   0   5   -2.05    2.56
 -13   0   5    7.02    2.96
 -13   0   5    2.20    2.27
 -13   0   5   -0.46    2.90
 -13   0   5    0.79    2.92
 -12   0   5   -0.25    2.53
 -12   0   5    1.50    2.65
 -12   0   5   -0.22    2.29
 -12   0   5   -2.47    2.99
 -11   0   5    2.74    2.70
 -11   0   5    1.60    2.33
 -11   0   5   -0.81    2.41
 -11   0   5    3.67    4.18
 -10   0   5   -0.88    2.33
 -10   0   5    2.43    4.33
 -10   0   5    0.49    2.63
  -9   0   5   -0.71    3.68
  -9   0   5   -0.41    2.64
  -8   0   5   -0.62    3.43
  -8   0   5    1.00    2.43
  -7   0   5   -2.18    3.58
  -7   0   5   -0.53    2.17
  -6   0   5    0.48    3.43
  -6   0   5    1.18    2.04
  -5   0   5    0.84    3.17
  -5   0   5   -0.27    1.60
  -4   0   5    0.73    3.07
  -4   0   5    0.90    1.20
  -3   0   5    0.93    2.73
  -2   0   5    0.96    2.30
  -1   0   5    0.85    1.77
   1   0  -5    0.31    2.67
   0   0   5    1.74    1.25
   0   0  -5   -0.31    2.56
  -1   0  -5   -0.45    3.03
  -1   0  -5    1.87    2.78
  -2   0  -5   -0.50    3.13
  -3   0  -5    1.11    3.47
  -6   0  -5    2.73    2.52
  -6   0  -5    1.58    2.43
  -6   0  -5   -1.71    2.53
  -7   0  -5   -0.22    2.32
  -7   0  -5    1.64    2.67
  -7   0  -5   -0.38    2.05
  -7   0  -5   -1.36    2.67
  -7   0  -5   -0.43    2.53
  -7   0  -5    0.32    1.89
  -8   0  -5    0.50    2.73
  -8   0  -5   -0.94    2.39
  -8   0  -5   -0.20    2.18
  -8   0  -5    5.55    2.78
  -8   0  -5   -2.37    2.00
  -8   0  -5    1.50    2.95
  -8   0  -5    0.84    1.86
  -9   0  -5   -1.23    2.47
  -9   0  -5    0.53    3.01
  -9   0  -5   -1.69    2.36
  -9   0  -5    0.99    2.81
  -9   0  -5   -1.09    3.07
  -9   0  -5   -1.24    2.24
 -10   0  -5    1.27    2.66
 -10   0  -5    2.73    2.97
 -10   0  -5    0.22    2.23
 -10   0  -5    2.05    3.02
 -10   0  -5    1.34    2.87
 -10   0  -5    0.58    3.13
 -10   0  -5   -3.86    2.38
 -10   0  -5   -2.24    2.37
 -11   0  -5    2.53    2.75
 -11   0  -5    3.53    2.93
 -11   0  -5   -0.22    2.30
 -11   0  -5    1.75    2.24
 -11   0  -5    2.85    2.96
 -11   0  -5   -1.35    3.01
 -11   0  -5   -0.90    3.58
 -11   0  -5    3.68    2.17
 -12   0  -5    1.19    2.53
 -12   0  -5    1.03    2.80
 -12   0  -5    0.41    2.16
 -12   0  -5    0.45    2.16
 -12   0  -5    3.01    2.90
 -12   0  -5   -2.33    3.00
 -12   0  -5   -0.35    2.06
 -12   0  -5    0.88    3.29
 -13   0  -5    1.48    2.43
 -13   0  -5    0.72    2.09
 -13   0  -5   -3.19    2.87
 -13   0  -5   -0.15    2.06
 -13   0  -5    2.16    3.17
 -13   0  -5   -0.70    2.71
 -14   0  -5    1.56    1.84
 -14   0  -5    0.34    1.97
 -14   0  -5    0.77    2.46
 -14   0  -5   -1.16    2.94
 -20  -1   5    0.32    1.33
 -20   1   5    2.68    1.42
 -20  -1   5    2.15    1.22
 -19   1   5   53.77    3.97
 -19  -1   5   69.34    4.37
 -19   1   5   66.13    4.56
 -19  -1   5   68.30    4.53
 -18   1   5   86.87    5.79
 -18  -1   5   87.82    5.96
 -18  -1   5  100.73    6.30
 -18   1   5   94.49    6.26
 -18  -1   5   98.87    6.31
 -17   1   5   80.13    5.68
 -17   1   5   74.39    5.28
 -17  -1   5   87.63    5.93
 -17  -1   5   81.78    6.01
 -17   1   5   84.92    6.09
 -17  -1   5   77.77    6.00
 -16  -1   5  189.32   10.66
 -16   1   5  166.94   11.04
 -16   1   5  182.16   10.48
 -16   1   5  174.06    9.97
 -16  -1   5  185.23   10.52
 -16   1   5  172.81   10.66
 -16  -1   5  195.89   10.85
 -15   1   5    2.58    3.18
 -15  -1   5    4.27    2.86
 -15   1   5   -1.16    5.15
 -15  -1   5    2.45    4.96
 -15   1   5    1.73    2.57
 -15   1   5   -0.26    2.94
 -15  -1   5    4.71    3.02
 -15   1   5    2.33    2.34
 -15  -1   5   -0.49    2.71
 -14   1   5   30.52    4.69
 -14  -1   5   35.81    4.26
 -14   1   5   38.23    4.44
 -14  -1   5   34.37    4.40
 -14  -1   5   39.34    4.71
 -14   1   5   31.75    3.72
 -13   1   5   38.17    8.31
 -13   1   5   40.86    7.06
 -13   1   5   50.10    4.88
 -13  -1   5   48.78    4.80
 -13   1   5   54.42    5.46
 -13  -1   5   38.87    4.65
 -13   1   5   48.91    4.24
 -13  -1   5   46.73    4.81
 -13   1   5   46.18    4.84
 -12   1   5   35.05    6.40
 -12   1   5   40.90    4.80
 -12   1   5   49.09    4.76
 -12  -1   5   42.09    4.45
 -12   1   5   40.67    4.60
 -12  -1   5   47.63    4.60
 -12   1   5   50.23    4.64
 -12  -1   5   46.51    4.69
 -11   1   5   45.97    6.76
 -11  -1   5   49.75    8.45
 -11   1   5   46.03    4.65
 -11  -1   5   44.02    4.38
 -11   1   5   41.48    4.76
 -11   1   5   60.66    4.97
 -11   1   5   49.06    4.68
 -11  -1   5   58.26    4.65
 -11  -1   5   43.41    4.58
 -10   1   5  251.65   18.50
 -10  -1   5  300.93   20.11
 -10   1   5  252.01   16.71
 -10   1   5  252.47   13.92
 -10   1   5  255.11   13.77
 -10  -1   5  272.79   13.42
 -10  -1   5  248.55   13.27
 -10   1   5  243.99   13.50
  -9   1   5  166.25   13.79
  -9  -1   5  193.00   15.25
  -9   1   5  168.69   12.38
  -8   1   5   69.18    6.89
  -8  -1   5   66.05    8.51
  -7   1   5  344.22   20.40
  -7  -1   5  347.78   21.54
  -7   1   5  329.87   18.58
  -6   1   5  100.27    8.60
  -6  -1   5   97.82    9.36
  -6   1   5   94.24    7.16
  -5  -1   5  273.05   16.55
  -5   1   5  255.43   15.69
  -4   1   5   19.18    3.79
  -4  -1   5   11.72    3.67
  -3  -1   5  431.87   23.43
  -3   1   5  480.62   23.83
  -2  -1   5   59.23    5.35
  -2   1   5   86.58    6.34
   1  -1  -5 1235.70   56.52
   1   1  -5 1094.99   56.08
   0  -1  -5  142.82   10.85
   0  -1  -5  131.48    8.06
   0   1  -5  132.48    9.26
   0   1  -5  149.59   10.56
  -1   1  -5  235.32   14.01
  -1  -1  -5  279.50   17.23
  -1   1  -5  248.30   14.88
  -1   1  -5  277.64   16.35
  -1  -1  -5  263.34   16.05
  -1   1  -5  270.42   16.27
  -1  -1  -5  292.63   13.73
  -2   1  -5  230.46   13.09
  -2  -1  -5  214.10   15.02
  -2  -1  -5  213.63   14.30
  -2   1  -5  225.26   14.68
  -3   1  -5   97.53    8.39
  -3   1  -5  110.88    9.73
  -3  -1  -5  119.05    9.71
  -4  -1  -5   70.09    8.09
  -4   1  -5   76.76    7.45
   5   1   5   34.98    4.57
  -5  -1  -5   44.57    6.51
  -5   1  -5   32.40    5.60
  -6   1  -5  127.53   11.41
  -6   1  -5  117.85    8.14
  -6   1  -5  120.93    8.03
  -6   1  -5  143.95    8.03
  -6   1  -5  125.68    7.81
  -6  -1  -5  136.23    7.92
  -6  -1  -5  123.75    7.97
  -6  -1  -5  123.70    8.04
  -6   1  -5  129.45    8.17
  -7   1  -5   18.57    2.87
  -7   1  -5   23.57    5.80
  -7  -1  -5   19.12    3.22
  -7   1  -5   19.71    3.23
  -7  -1  -5   22.97    3.37
  -7   1  -5   22.38    3.54
  -7   1  -5   18.09    2.64
  -7   1  -5   18.02    3.58
  -7   1  -5   15.84    3.34
  -7   1  -5   19.22    3.28
  -7  -1  -5   17.21    3.49
  -7  -1  -5   16.64    3.05
  -7  -1  -5   14.15    2.61
  -7  -1  -5   20.17    3.66
  -7   1  -5   18.46    3.73
  -7  -1  -5   16.60    2.79
  -8   1  -5   12.38    5.08
  -8   1  -5   25.16    3.55
  -8  -1  -5   18.11    3.41
  -8   1  -5   15.49    2.60
  -8   1  -5   22.02    3.75
  -8  -1  -5   20.90    3.32
  -8   1  -5   23.20    3.70
  -8  -1  -5   23.38    3.94
  -8  -1  -5   19.86    2.84
  -8  -1  -5   24.47    3.83
  -8  -1  -5   21.59    3.02
  -8  -1  -5   21.31    3.93
  -8   1  -5   23.47    3.97
  -9  -1  -5   96.55    6.41
  -9  -1  -5   84.96    6.81
  -9  -1  -5   86.02    6.61
  -9   1  -5   84.32    5.81
  -9   1  -5  100.68    6.66
  -9  -1  -5   89.40    6.50
  -9  -1  -5   83.09    6.07
  -9  -1  -5   90.79    7.03
  -9  -1  -5   80.35    5.94
  -9  -1  -5   84.42    7.00
  -9   1  -5   93.86    7.12
 -10   1  -5   12.22    3.08
 -10  -1  -5   17.58    3.21
 -10   1  -5   16.22    2.60
 -10  -1  -5   10.03    2.84
 -10  -1  -5   14.21    3.56
 -10  -1  -5   12.56    3.84
 -10   1  -5   15.39    3.96
 -10  -1  -5   11.48    2.63
 -10  -1  -5   10.57    2.88
 -10  -1  -5   13.73    3.26
 -10  -1  -5   18.57    3.75
 -10   1  -5   13.37    3.73
 -11   1  -5  117.60    8.27
 -11   1  -5  111.29    6.99
 -11   1  -5  113.95    7.50
 -11  -1  -5  104.57    7.90
 -11   1  -5  114.67    8.01
 -11  -1  -5  116.41    7.68
 -11  -1  -5  110.78    7.82
 -11  -1  -5  115.76    7.72
 -11  -1  -5  112.01    7.30
 -11  -1  -5  125.38    8.46
 -11   1  -5  120.28    8.31
 -12  -1  -5    6.10    2.95
 -12   1  -5    8.13    2.68
 -12   1  -5    5.75    1.90
 -12   1  -5    3.56    3.02
 -12  -1  -5    4.77    2.45
 -12  -1  -5    5.53    2.79
 -12  -1  -5   10.44    3.40
 -12   1  -5    3.35    3.18
 -12  -1  -5    7.20    3.52
 -12   1  -5    7.72    3.57
 -12  -1  -5    6.17    2.48
 -12  -1  -5    6.74    2.58
 -13  -1  -5   61.70    5.16
 -13  -1  -5   66.23    5.36
 -13   1  -5   56.70    5.28
 -13  -1  -5   58.93    4.85
 -13   1  -5   58.73    5.23
 -13   1  -5   58.11    4.60
 -13  -1  -5   58.81    4.67
 -13  -1  -5   56.03    4.53
 -14  -1  -5    1.01    2.04
 -14   1  -5    1.22    2.52
 -14  -1  -5    2.03    2.17
 -14   1  -5   -2.63    2.57
 -14  -1  -5    1.92    2.00
 -15  -1  -5    8.79    2.40
 -15   1  -5    2.03    2.06
 -15  -1  -5    5.05    2.47
 -19   2   5   86.75    4.97
 -19  -2   5   89.00    5.13
 -19  -2   5   88.45    5.02
 -19   2   5   73.65    4.73
 -18  -2   5   16.66    2.64
 -18   2   5   14.20    2.45
 -18   2   5   16.89    2.52
 -18  -2   5   13.48    2.35
 -18  -2   5   15.87    2.52
 -17   2   5  154.31   10.15
 -17   2   5  170.61    9.51
 -17  -2   5  165.12    9.44
 -17   2   5  178.98    9.48
 -17  -2   5  164.53    9.31
 -17  -2   5  160.17    9.37
 -16   2   5    9.18    3.48
 -16  -2   5   10.67    2.98
 -16   2   5    7.32    2.73
 -16  -2   5    7.85    2.68
 -16  -2   5    8.30    2.82
 -15  -2   5  324.61   17.13
 -15   2   5  336.13   18.26
 -15  -2   5  336.44   17.33
 -15   2   5  337.88   17.27
 -15  -2   5  320.78   17.10
 -14   2   5   23.09    7.02
 -14   2   5   25.15    6.24
 -14  -2   5   24.27    3.79
 -14   2   5   26.62    4.51
 -14   2   5   28.27    3.93
 -14  -2   5   24.49    3.60
 -14  -2   5   25.36    3.80
 -13   2   5  544.66   36.48
 -13   2   5  547.55   35.31
 -13   2   5  611.26   30.26
 -13  -2   5  617.68   29.52
 -13   2   5  639.93   30.88
 -13   2   5  638.33   29.72
 -13  -2   5  586.88   29.52
 -13  -2   5  592.24   29.27
 -12   2   5  135.73   10.12
 -12   2   5  157.01   10.04
 -12  -2   5  167.28    9.51
 -12   2   5  172.77   15.43
 -12   2   5  144.40   13.61
  12   2  -5  176.63   14.66
 -12  -2   5  162.15    9.30
 -12   2   5  158.71    9.54
 -12  -2   5  158.51    9.50
 -11   2   5  372.15   20.16
 -11  -2   5  402.10   19.14
 -11   2   5  337.03   23.67
  11   2  -5  386.54   25.16
 -11  -2   5  377.69   18.92
 -11   2   5  377.04   19.24
 -11  -2   5  372.13   19.20
 -10   2   5  239.38   14.14
 -10  -2   5  262.77   17.51
 -10  -2   5  293.12   21.47
 -10   2   5  278.24   18.30
  10   2  -5  249.56   18.75
 -10   2   5  250.61   13.49
 -10  -2   5  250.46   13.48
  -9   2   5   63.61    5.65
  -9   2   5   77.73    5.77
  -9  -2   5   62.78    5.15
   9   2  -5   74.47    8.94
  -9   2   5   80.22    9.28
  -9   2   5   77.53    7.35
  -9   2   5   67.28    7.89
  -9  -2   5   60.49    9.83
  -8  -2   5  445.04   22.52
  -8   2   5  444.87   22.75
  -8   2   5  514.76   27.84
  -8   2   5  481.96   25.93
  -8   2   5  478.12   26.20
  -8  -2   5  457.07   28.77
   8   2  -5  471.58   27.58
  -7   2   5    0.56    3.21
  -7   2   5   -1.95    3.30
  -7   2   5   -0.52    3.15
  -7  -2   5   -1.58    4.64
   7   2  -5    0.69    3.91
  -6   2   5  870.40   42.44
   6   2  -5  755.62   42.32
  -5   2   5    4.41    3.20
   5   2  -5    0.62    3.43
   4  -2  -5  682.11   34.34
   4   2  -5  679.41   36.34
   3  -2  -5   93.70    8.24
   3   2  -5  119.09   10.28
   2  -2  -5  115.72    9.74
   2   2  -5  124.77   10.57
   1  -2  -5 1636.74   77.58
   1   2  -5 1586.40   77.55
   0   2  -5   39.21    3.48
   0  -2  -5   35.33    6.00
   0   2  -5   40.68    5.44
   0  -2  -5   41.58    5.14
   0   2  -5   42.46    5.91
  -1  -2  -5 1124.97   55.00
  -1   2  -5 1017.20   50.89
  -1   2  -5 1110.57   53.30
  -1  -2  -5 1081.65   52.69
  -1   2  -5 1147.78   53.93
   2   2   5  121.01   10.37
  -2  -2  -5  141.15   11.51
  -2   2  -5  126.96    8.92
  -2   2  -5  134.91   10.43
   3   2   5  769.87   40.00
  -3  -2  -5  805.90   41.71
  -3   2  -5  749.95   38.61
   4   2   5   50.58    6.28
  -4   2  -5   48.29    6.08
  -4  -2  -5   54.34    4.74
  -4   2  -5   43.94    4.32
  -4   2  -5   49.67    4.52
   5   2   5  515.20   29.70
  -5   2  -5  544.49   30.35
  -5  -2  -5  540.16   32.12
  -5   2  -5  549.44   26.84
  -5  -2  -5  556.50   26.69
  -5  -2  -5  553.23   26.46
  -5   2  -5  530.70   26.89
  -5   2  -5  559.06   26.63
  -6   2  -5  414.61   25.83
  -6  -2  -5  436.07   27.25
  -6   2  -5  416.97   21.78
  -6   2  -5  408.20   21.89
  -6  -2  -5  452.46   21.71
  -6   2  -5  446.96   21.71
  -6  -2  -5  432.46   21.40
  -6  -2  -5  421.75   21.76
  -6   2  -5  433.53   21.60
  -7   2  -5  132.35   12.49
  -7  -2  -5  140.82   13.22
  -7   2  -5  142.01    8.94
  -7  -2  -5  139.85    9.10
  -7   2  -5  125.72    9.04
  -7   2  -5  138.88    8.69
  -7  -2  -5  153.74    8.81
  -7  -2  -5  136.10    8.35
  -7  -2  -5  131.92    8.08
  -7   2  -5  133.55    8.61
  -7  -2  -5  143.45    9.02
  -7  -2  -5  124.94    7.99
  -8  -2  -5  293.85   20.87
  -8   2  -5  264.65   19.99
  -8  -2  -5  286.12   15.58
  -8   2  -5  280.26   15.40
  -8  -2  -5  284.18   14.90
  -8  -2  -5  288.16   15.20
  -8   2  -5  269.53   14.83
  -8   2  -5  258.33   15.50
  -8   2  -5  307.52   15.29
  -8  -2  -5  250.67   14.42
  -8  -2  -5  265.37   14.33
  -8   2  -5  291.65   15.26
  -8  -2  -5  301.57   15.58
  -8  -2  -5  276.69   14.63
  -9   2  -5   25.58    6.87
  -9  -2  -5   16.32    3.44
  -9   2  -5   24.84    3.32
  -9   2  -5   22.85    3.96
  -9  -2  -5   20.31    3.32
  -9   2  -5   14.90    3.35
  -9   2  -5   18.43    3.71
  -9  -2  -5   20.18    3.20
  -9  -2  -5   19.82    2.86
  -9  -2  -5   18.50    3.09
 -10   2  -5   96.53   12.62
 -10   2  -5  129.09    8.57
 -10  -2  -5  137.59    8.26
 -10  -2  -5  125.12    8.37
 -10   2  -5  126.73    7.75
 -10  -2  -5  106.04    7.11
 -10  -2  -5  118.99    7.71
 -10  -2  -5  123.65    7.71
 -11  -2  -5   26.14    3.99
 -11   2  -5   30.32    3.40
 -11   2  -5   28.97    4.24
 -11  -2  -5   23.04    3.61
 -11  -2  -5   31.31    3.56
 -11  -2  -5   24.90    3.52
 -11  -2  -5   28.77    3.34
 -12   2  -5   63.89    5.63
 -12   2  -5   55.20    5.42
 -12  -2  -5   62.92    4.99
 -13   2  -5   57.19    4.80
 -13   2  -5   46.70    4.53
 -13  -2  -5   49.45    4.23
 -13  -2  -5   48.90    4.06
 -13   2  -5   41.85    4.60
 -14  -2  -5   69.16    5.02
 -14   2  -5   77.41    5.32
 -14  -2  -5   71.89    4.90
 -14  -2  -5   67.21    4.64
 -14   2  -5   75.29    5.41
 -15  -2  -5   63.37    5.52
 -15   2  -5   71.25    4.63
 -15  -2  -5   68.35    4.54
 -15   2  -5   73.16    4.82
 -18   3   5  117.69    6.23
 -18  -3   5  113.57    6.11
 -18  -3   5   98.95    6.07
 -17  -3   5   17.71    2.57
 -17   3   5   16.03    2.63
 -17  -3   5   21.07    2.62
 -16  -3   5  173.70    9.87
  16   3  -5  181.33    9.64
 -16   3   5  179.40   10.09
 -16  -3   5  184.25    9.97
 -15  -3   5    2.43    2.48
 -15   3   5   -2.68    2.46
 -15  -3   5    0.42    2.49
 -14  -3   5  343.16   16.55
 -14   3   5  316.73   17.72
 -14   3   5  360.50   17.09
 -13   3   5    7.14    3.72
 -13  -3   5   11.68    2.97
 -13   3   5   18.02    5.84
 -13   3   5    8.61    3.18
 -13  -3   5   10.20    2.40
 -12   3   5  245.86   14.76
 -12   3   5  257.24   14.52
 -12   3   5  262.56   20.79
 -12   3   5  228.11   19.00
 -11   3   5  328.74   18.91
  11   3  -5  347.37   17.80
 -11   3   5  365.84   18.86
 -11   3   5  356.20   24.99
 -11  -3   5  333.44   23.30
 -11   3   5  338.52   23.83
 -10   3   5   32.45    4.56
 -10  -3   5   32.42    3.98
 -10   3   5   34.95    3.57
 -10   3   5   36.18    4.54
  10   3  -5   31.61    3.87
  10   3  -5   36.76    7.55
 -10  -3   5   32.52    6.90
 -10   3   5   38.70    6.75
 -10   3   5   27.31    3.51
  -9  -3   5  932.98   45.56
  -9   3   5  931.04   46.11
   9   3  -5  995.86   45.47
  -9   3   5  960.75   46.01
   9   3  -5  931.32   51.86
  -9  -3   5  998.94   52.21
  -9   3   5  902.50   49.46
  -9   3   5 1001.22   51.18
  -9   3   5  956.06   45.26
  -9   3   5 1000.20   45.56
   8   3  -5   25.81    3.68
  -8   3   5   30.76    4.22
  -8   3   5   26.55    3.83
  -8  -3   5   27.70    3.38
   8   3  -5   38.90    6.83
  -8   3   5   22.53    5.28
  -8   3   5   21.62    5.70
  -8   3   5   31.22    6.16
  -8   3   5   25.41    3.47
   7   3  -5 1026.74   47.18
  -7   3   5  992.91   47.35
  -7  -3   5  961.73   46.95
   7   3  -5 1089.75   53.80
  -7   3   5 1088.05   52.74
  -7   3   5 1035.46   51.95
  -7   3   5 1032.00   47.28
   7   3  -5  939.67   46.94
  -7   3   5 1080.24   53.26
  -6   3   5   15.52    3.07
  -6  -3   5   10.18    2.42
   6   3  -5   11.33    2.88
   6   3  -5    7.61    4.75
  -6   3   5    7.66    4.06
  -6   3   5   13.23    4.99
   6   3  -5   11.87    2.75
  -6   3   5   17.17    2.69
  -5   3   5 1178.62   57.75
  -5  -3   5 1181.59   57.61
   5   3  -5 1256.87   57.82
   5   3  -5 1400.71   64.59
  -5   3   5 1396.61   64.13
   5   3  -5 1229.42   57.91
  -5   3   5 1334.24   58.11
   4   3  -5  709.72   34.43
   4   3  -5  765.70   40.35
  -4   3   5  781.63   40.37
   4  -3  -5  696.40   37.37
   4   3  -5  730.23   34.65
   3   3  -5  670.10   31.64
   3   3  -5  661.90   37.13
   3  -3  -5  655.33   35.29
   3   3  -5  656.47   31.85
   2   3  -5 1053.22   53.87
  -2   3   5 1039.22   53.96
   2  -3  -5 1052.57   52.37
   2   3  -5 1004.81   48.03
   1   3  -5  126.70   11.52
  -1   3   5  105.43   11.00
   1  -3  -5  106.88   10.65
   0   3  -5  740.58   37.00
   0   3  -5  837.06   43.11
   0   3   5  871.77   43.36
   0  -3  -5  870.73   43.14
   0   3  -5  790.09   37.46
  -1   3  -5    8.86    2.62
  -1   3  -5   11.07    4.84
  -1   3  -5   13.20    2.64
  -1  -3  -5    6.65    4.11
   1   3   5   17.36    5.05
  -1   3  -5    8.22    2.72
  -2   3  -5  869.57   41.40
  -2   3  -5  835.12   41.50
   2   3   5  985.51   47.77
  -2  -3  -5  994.63   48.79
  -2   3  -5  845.15   43.68
  -2   3  -5  918.34   41.75
  -3   3  -5  137.03    7.74
  -3   3  -5  122.80    7.93
  -3  -3  -5  109.51    7.47
  -3  -3  -5  125.06    7.36
   3   3   5  149.57   12.53
  -3  -3  -5  126.98   12.54
  -3   3  -5  127.53    7.82
  -3   3  -5  118.97    9.81
  -4   3  -5  746.25   35.68
  -4   3  -5  721.56   35.91
  -4  -3  -5  778.41   35.79
  -4   3  -5  754.85   36.32
  -4  -3  -5  737.66   36.16
   4   3   5  822.70   41.78
  -4  -3  -5  807.05   43.29
  -4   3  -5  775.78   39.61
  -4   3  -5  759.55   35.97
  -5   3  -5  291.37   15.47
   5   3   5  313.19   20.48
  -5   3  -5  279.04   19.31
  -5  -3  -5  313.17   16.20
  -5   3  -5  297.69   16.02
  -5  -3  -5  315.49   15.75
  -5   3  -5  311.84   16.33
  -6   3  -5  128.25   12.36
  -6  -3  -5  134.05   14.13
  -6   3  -5  154.38    9.44
  -6  -3  -5  153.52    9.50
  -6  -3  -5  159.62    9.05
  -6   3  -5  144.26    9.48
  -6   3  -5  145.35    9.36
  -6  -3  -5  153.16    9.07
  -7  -3  -5  822.80   47.53
  -7   3  -5  798.94   40.16
  -7  -3  -5  871.75   40.33
  -7  -3  -5  852.16   39.86
  -7  -3  -5  854.56   39.88
  -7   3  -5  879.48   40.31
  -8   3  -5   -5.09    5.28
  -8  -3  -5    1.05    4.77
  -8   3  -5    0.42    2.37
  -8   3  -5    0.28    3.05
  -8  -3  -5    3.08    2.36
  -8  -3  -5    1.65    2.84
  -8   3  -5    6.41    3.18
  -8  -3  -5    5.81    2.55
  -8  -3  -5    3.90    2.49
  -8  -3  -5    2.97    2.50
  -9  -3  -5  606.05   38.09
  -9   3  -5  648.30   31.77
  -9  -3  -5  672.58   31.46
  -9  -3  -5  662.59   31.80
  -9   3  -5  638.25   31.62
  -9   3  -5  582.40   30.75
  -9   3  -5  686.28   32.33
  -9  -3  -5  647.65   30.95
  -9  -3  -5  657.67   31.32
  -9   3  -5  659.30   31.73
  -9  -3  -5  657.72   31.31
 -10  -3  -5    1.17    2.46
 -10   3  -5    1.05    2.71
 -10  -3  -5   -0.53    2.66
 -10   3  -5    1.54    2.91
 -10  -3  -5   -1.94    2.27
 -10  -3  -5   -0.43    2.43
 -10  -3  -5    1.07    2.29
 -11   3  -5  266.96   14.18
 -11  -3  -5  246.48   13.80
 -11  -3  -5  242.99   13.16
 -11  -3  -5  264.60   13.76
 -11  -3  -5  267.89   13.68
 -11   3  -5  267.30   14.32
 -12  -3  -5   18.96    2.95
 -12   3  -5   18.50    3.25
 -12   3  -5   19.94    3.54
 -12  -3  -5   22.87    3.09
 -12  -3  -5   16.69    2.66
 -13   3  -5  156.70    9.27
 -13  -3  -5  165.88    9.23
 -13  -3  -5  168.64    9.05
 -13   3  -5  164.48    9.36
 -13  -3  -5  167.33    8.89
 -14  -3  -5  115.46    7.48
 -14   3  -5  123.85    6.79
 -14  -3  -5  115.57    6.36
 -14   3  -5  113.43    6.75
 -17   4   5   62.95    3.81
  16   4  -5   -0.60    1.64
 -16   4   5    1.09    2.22
 -16  -4   5   -1.10    1.62
 -16   4   5   -2.17    1.85
 -16   4   5    1.40    1.48
 -16  -4   5    0.30    1.47
 -15  -4   5  147.32    8.60
 -15   4   5  172.49    9.91
 -15   4   5  172.33    9.03
 -15  -4   5  165.00    8.78
 -14   4   5   15.50    3.71
 -14  -4   5   21.39    2.86
 -14   4   5   25.23    3.09
 -14  -4   5   19.09    2.77
 -13  -4   5  193.42   11.13
  13   4  -5  209.06   11.25
 -13   4   5  220.31   12.69
 -13   4   5  232.76   11.78
 -12   4   5   41.71    5.24
 -12  -4   5   46.18    4.15
  12   4  -5   45.63    4.29
 -12   4   5   46.81    4.46
 -11   4   5  209.01   13.52
  11   4  -5  238.01   12.67
 -11   4   5  227.78   12.55
 -10   4   5  303.46   17.08
  10   4  -5  311.41   16.31
 -10   4   5  289.27   15.78
 -10   4   5  314.52   16.83
 -10  -4   5  302.01   16.46
 -10   4   5  327.97   22.90
 -10  -4   5  282.29   22.51
 -10   4   5  331.36   22.70
  -9   4   5  288.34   16.54
  -9   4   5  291.09   15.65
  -9   4   5  288.96   16.21
  -9  -4   5  292.73   15.89
   9   4  -5  316.81   16.02
  -9  -4   5  254.92   21.60
  -9   4   5  294.42   21.24
  -8   4   5  757.65   37.70
  -8   4   5  790.67   37.15
  -8   4   5  758.91   37.32
  -8  -4   5  770.57   37.14
   8   4  -5  754.43   37.18
  -8  -4   5  819.58   45.42
  -8   4   5  658.30   42.01
  -8   4   5  814.25   43.50
  -8   4   5  797.97   37.44
  -7  -4   5   -0.26    2.28
  -7   4   5    1.90    3.16
  -7   4   5    4.90    2.92
   7   4  -5   -0.79    3.03
   7   4  -5    4.95    4.74
  -7   4   5    3.76    4.19
  -7   4   5    6.93    4.50
  -7  -4   5    3.39    4.45
  -7   4   5    1.63    2.48
  -7   4   5    1.84    4.27
   7   4  -5    2.51    2.67
  -7   4   5    0.29    2.54
  -6   4   5  512.53   27.06
   6   4  -5  544.62   27.18
  -6   4   5  612.51   27.65
  -6  -4   5  519.42   26.96
   6   4  -5  575.85   35.96
  -6   4   5  557.26   33.62
   6   4  -5  538.24   27.19
  -6   4   5  555.21   27.52
  -6   4   5  617.43   34.20
   5   4  -5  716.93   34.13
  -5   4   5  678.70   33.96
  -5  -4   5  691.36   33.98
  -5   4   5  733.88   41.11
   5   4  -5  691.00   34.30
  -5   4   5  718.06   34.56
  -4  -4   5  487.85   24.79
   4   4  -5  529.45   33.13
  -4   4   5  531.35   32.28
   4   4  -5  481.84   25.22
  -4   4   5  518.99   25.41
  -3  -4   5  791.23   38.68
  -3   4   5  834.57   39.38
   3  -4  -5  744.47   42.92
   3   4  -5  800.13   39.14
  -3   4   5  824.54   39.28
   2   4  -5  317.91   16.76
   2  -4  -5  282.43   21.01
   2   4  -5  322.47   17.32
  -2   4   5  326.37   17.32
  -2   4   5  335.16   17.45
   1   4  -5  655.28   32.18
  -1   4   5  681.63   40.15
   1  -4  -5  663.38   38.38
  -1   4   5  679.72   32.86
  -1   4   5  672.77   32.83
   0   4  -5    6.75    3.05
   0  -4  -5    3.87    5.25
   0   4   5    8.51    4.85
   0   4   5    6.76    2.79
   0   4  -5    9.23    3.19
   0   4   5   10.65    2.86
  -1   4  -5  527.32   26.90
   1   4   5  570.71   27.34
  -1   4  -5  497.55   26.68
   1   4   5  613.05   34.84
  -1  -4  -5  566.73   34.22
  -1   4  -5  564.00   27.42
   1   4   5  603.80   27.52
  -2   4  -5  189.36   10.78
   2   4   5  186.70   10.97
  -2   4  -5  190.64   10.97
   2   4   5  170.62   16.10
  -2  -4  -5  194.03   17.07
  -2   4  -5  182.21   11.12
   2   4   5  200.06   11.02
  -3   4  -5  798.86   38.01
   3   4   5  811.26   38.32
   3   4   5  835.17   45.57
  -3  -4  -5  870.58   46.92
  -3   4  -5  819.67   38.58
   3   4   5  788.15   38.10
  -3   4  -5  767.34   38.36
  -4   4  -5  415.10   21.38
   4   4   5  446.76   28.32
  -4  -4  -5  463.79   30.09
  -4   4  -5  433.98   21.94
  -4   4  -5  413.68   22.06
  -4  -4  -5  460.23   21.59
  -5  -4  -5  432.21   29.01
  -5   4  -5  391.69   20.76
  -5   4  -5  410.57   21.32
  -5  -4  -5  414.51   20.58
  -5   4  -5  436.16   21.75
  -5  -4  -5  416.70   20.70
  -6   4  -5  226.12   12.91
  -6  -4  -5  217.31   12.23
  -6   4  -5  212.39   13.19
  -6  -4  -5  228.13   12.34
  -6   4  -5  226.31   12.79
  -6  -4  -5  241.13   12.53
  -7  -4  -5   17.74    6.71
  -7   4  -5   36.67    4.75
  -7  -4  -5   33.29    3.61
  -7   4  -5   19.22    3.51
  -7   4  -5   25.71    3.91
  -7   4  -5   25.21    3.97
  -7  -4  -5   30.98    3.64
  -7  -4  -5   28.50    3.54
  -8   4  -5  249.73   14.79
  -8  -4  -5  271.94   14.75
  -8   4  -5  292.51   15.34
  -8   4  -5  268.76   15.63
  -8  -4  -5  283.76   14.71
  -8  -4  -5  289.21   14.85
  -8   4  -5  308.39   15.40
  -8  -4  -5  293.43   14.94
  -9   4  -5    2.13    2.93
  -9  -4  -5    0.60    2.14
  -9   4  -5   -0.21    2.52
  -9   4  -5   -1.63    2.71
  -9  -4  -5   -0.92    2.17
  -9  -4  -5    2.45    2.18
  -9  -4  -5    0.81    2.32
 -10   4  -5  306.32   16.99
 -10  -4  -5  320.23   16.98
 -10   4  -5  350.68   17.49
 -10  -4  -5  354.02   17.02
 -10  -4  -5  358.43   16.85
 -11   4  -5   60.36    4.48
 -11  -4  -5   58.27    4.61
 -11   4  -5   64.20    4.83
 -11  -4  -5   51.11    4.00
 -11  -4  -5   67.17    4.47
 -11   4  -5   55.91    4.70
 -12  -4  -5   69.88    6.29
 -12  -4  -5   78.38    4.85
 -12   4  -5   75.82    5.05
 -13  -4  -5   68.79    4.22
  15   5  -5    1.52    1.30
 -15   5   5    3.29    1.19
  14   5  -5   64.27    4.29
 -14   5   5   60.55    4.57
 -13   5   5    6.82    2.47
  13   5  -5    8.35    1.97
  12   5  -5  173.38    9.51
 -12   5   5  173.25   10.16
 -11   5   5   41.39    4.55
  11   5  -5   39.10    3.91
 -11   5   5   30.00    3.30
  10   5  -5  137.96    8.17
 -10  -5   5  125.57    8.12
 -10   5   5  118.93    7.49
 -10   5   5  120.33    8.51
 -10   5   5  130.49    8.03
  -9   5   5  232.90   13.22
   9   5  -5  230.70   12.74
  -9  -5   5  220.05   12.64
  -9   5   5  220.68   12.42
  -8   5   5   17.01    3.73
   8   5  -5   13.81    3.66
  -8  -5   5   15.98    3.11
  -8   5   5   21.28    3.34
  -7   5   5  408.29   22.08
  -7   5   5  448.82   22.08
   7   5  -5  422.95   21.99
  -7  -5   5  431.42   21.81
  -6  -5   5   18.22    3.28
  -6   5   5   16.91    3.70
   6   5  -5   20.54    3.87
   6   5  -5   21.12    7.61
  -6   5   5   12.37    5.64
  -6   5   5   18.66    3.38
  -6   5   5   23.71    6.41
   6   5  -5   16.26    3.28
  -5  -5   5  412.52   21.12
  -5   5   5  396.43   21.36
  -5   5   5  437.07   21.73
   5   5  -5  438.78   29.86
  -5   5   5  471.62   29.61
  -5  -5   5  340.10   27.96
   5   5  -5  386.23   21.27
  -5   5   5  491.89   28.65
  -4  -5   5   46.27    4.65
   4   5  -5   56.05    9.34
  -4   5   5   54.73    9.41
  -4  -5   5   51.04    9.06
   4   5  -5   40.42    5.01
  -3  -5   5   64.52    5.43
   3   5  -5   49.01    4.60
   3   5  -5   54.64    5.49
  -3   5   5   56.09    5.68
   3   5  -5   76.55   11.13
  -3   5   5   60.82   10.12
  -3  -5   5   54.71   10.00
   3   5  -5   66.25    5.95
  -3   5   5   62.77    5.81
   2   5  -5  291.27   15.63
  -2   5   5  309.47   16.41
  -2  -5   5  289.92   15.68
   2   5  -5  283.54   16.14
  -2   5   5  280.89   16.15
   1   5  -5   14.48    3.62
  -1   5   5    6.41    6.63
  -1   5   5    0.63    3.55
  -1   5   5   -0.32    3.26
   0   5   5  826.37   37.65
   0   5  -5  759.87   36.88
   0   5   5  791.29   46.46
  -1   5  -5    1.12    2.75
   1   5   5   -5.91    6.01
  -1  -5  -5    5.44    4.85
   1   5   5    1.94    2.57
  -1   5  -5   -2.31    3.30
   2   5   5  205.11   10.72
  -2   5  -5  159.81    9.82
   2   5   5  160.57   16.00
  -2  -5  -5  128.58   15.47
  -2   5  -5  173.37   10.52
  -3   5  -5   20.99    3.08
   3   5   5   23.14    3.25
  -3   5  -5   22.20    3.61
   4   5   5   37.86    3.74
  -4   5  -5   38.99    4.13
  -4   5  -5   32.01    4.30
  -5   5  -5   54.96    5.24
  -5  -5  -5   43.06    3.82
  -5   5  -5   57.20    4.84
  -5  -5  -5   51.92    4.43
  -6   5  -5   81.67    6.25
  -6  -5  -5   69.39    4.98
  -6   5  -5   76.83    5.71
  -6  -5  -5   78.33    5.46
  -7   5  -5  174.68   10.73
  -7  -5  -5  172.90    9.58
  -7  -5  -5  186.05   10.10
  -7   5  -5  187.06   10.35
  -7  -5  -5  185.77   10.07
  -8   5  -5    2.24    2.55
  -8   5  -5    7.34    2.63
  -8  -5  -5    3.61    2.04
  -8  -5  -5    3.04    1.76
  -8  -5  -5    2.86    1.98
  -9   5  -5  110.53    6.44
  -9  -5  -5  111.71    6.08
  -9  -5  -5  103.12    6.04
 -10  -5  -5   21.44    2.15
 -10   5  -5   22.43    2.57
 -10  -5  -5   19.42    2.25
 -10  -5  -5   13.17    1.92
 -10   5  -5   21.71    2.55
 -11   5  -5   16.84    1.93
  12   6  -5    0.76    1.15
 -12   6   5   -0.07    1.05
  11   6  -5   14.70    2.14
  11   6  -5   17.68    2.14
 -11   6   5   12.86    2.05
 -10   6   5    5.59    1.73
  10   6  -5    4.84    2.11
  10   6  -5    4.37    2.07
  -9   6   5    2.75    1.94
   9   6  -5    2.18    2.04
   9   6  -5    2.55    2.22
  -8   6   5   19.81    2.65
  -8   6   5   18.65    2.83
   8   6  -5   22.21    3.15
   8   6  -5   15.29    2.68
  -8  -6   5   16.96    2.74
  -7   6   5   -0.20    2.10
   7   6  -5    0.81    2.54
   7   6  -5    1.85    2.17
  -7  -6   5    0.77    2.02
  -6   6   5   75.87    5.63
  -6  -6   5   70.84    5.30
  -5   6   5   -0.51    2.50
  -5  -6   5    5.43    2.28
   5   6  -5   -2.96    2.84
  -4   6   5  140.55    8.66
   4   6  -5  127.67    8.29
   4   6  -5  122.95    8.07
  -4  -6   5  133.28    8.02
  -3   6   5    0.28    2.84
   3   6  -5    9.81    3.03
  -3   6   5    2.17    2.80
  -3  -6   5    4.36    2.49
   3   6  -5    0.82    2.68
  -2   6   5   13.08    3.16
  -2   6   5   10.13    3.13
   2   6  -5   10.64    3.30
   2   6  -5    8.92    2.92
  -2  -6   5   15.42    2.79
  -1   6   5   33.89    4.28
   1   6  -5   32.24    4.21
   1   6  -5   41.85    3.86
  -1   6   5   41.71    4.42
  -1  -6   5   37.50    3.79
   0   6   5    7.60    2.54
   0   6   5    5.58    2.41
   0  -6   5    5.22    2.47
   0   6  -5    8.78    2.42
   1   6   5    3.43    2.18
   1   6   5    3.82    2.14
  -1   6  -5    0.92    2.43
   1  -6   5    2.33    2.19
   2  -6   5    3.27    2.20
   2   6   5    1.86    1.94
  -2   6  -5    0.21    2.60
  -2   6  -5    4.95    2.15
  -2  -6  -5    3.76    1.89
   3  -6   5    4.83    2.19
   3   6   5    3.18    1.78
  -3   6  -5   -2.01    2.60
  -3   6  -5    2.24    2.07
  -3  -6  -5    3.48    1.75
  -4   6  -5   16.83    2.92
  -4   6  -5   17.29    2.50
  -4  -6  -5   14.40    2.17
  -5   6  -5    3.53    2.25
  -5   6  -5    2.14    1.88
  -5  -6  -5    1.64    1.88
  -5  -6  -5    1.80    1.59
  -6   6  -5    5.14    2.10
  -6   6  -5    3.80    1.91
  -6  -6  -5    7.69    1.85
  -6  -6  -5    9.66    1.70
   7  -6   5   -1.18    1.14
  -7   6  -5    0.75    1.56
  -7  -6  -5    1.21    1.24
  -8   6  -5    3.08    1.25
   6   7  -5    8.23    1.48
  -6   7   5    8.76    1.48
   5   7  -5   44.04    3.21
  -5  -7   5   55.48    3.36
  -5   7   5   51.77    3.52
  -5   7   5   49.69    3.38
   4   7  -5    9.46    1.60
  -4  -7   5   11.47    1.62
  -4   7   5    8.98    1.82
  -3  -7   5    9.83    1.66
  -3   7   5    4.67    1.77
  -2  -7   5   23.01    2.18
   2   7  -5   25.30    2.42
  -1  -7   5    2.78    1.38
   1   7  -5    0.68    1.57
   0  -7   5   13.82    1.73
   0   7   5   12.42    1.71
   0   7  -5   13.66    1.84
   1  -7   5    0.09    1.13
  -1  -7  -5    0.07    1.06
   2  -7   5    6.15    1.17
  -2  -7  -5    5.66    1.15
 -20   0   6  305.60   14.78
 -19   0   6   20.93    2.75
 -19   0   6   15.67    2.11
 -18   0   6  247.52   12.86
 -18   0   6  262.30   13.44
 -17   0   6    2.19    1.92
 -17   0   6    8.47    2.91
 -17   0   6    4.60    2.36
 -16   0   6  333.01   17.47
 -16   0   6  356.76   18.15
 -16   0   6  341.94   17.67
 -16   0   6  366.44   18.33
 -15   0   6  118.90    8.37
 -15   0   6  121.64    7.82
 -15   0   6  130.51    7.96
 -15   0   6  124.13    8.29
 -15   0   6  131.43    8.54
 -14   0   6  398.35   21.11
 -14   0   6  389.11   21.57
 -14   0   6  465.56   21.81
 -14   0   6  454.10   21.94
 -13   0   6  435.75   29.03
 -13   0   6  392.24   20.60
 -13   0   6  375.26   20.80
 -13   0   6  439.70   20.97
 -13   0   6  427.02   21.20
 -12   0   6  143.90   14.71
 -12   0   6  139.86    8.56
 -12   0   6  128.73    8.54
 -12   0   6  143.93    8.62
 -12   0   6  132.13    8.82
 -11   0   6  751.81   41.38
 -11   0   6  665.20   34.10
 -11   0   6  691.97   34.06
 -11   0   6  777.82   34.27
 -10   0   6    0.19    2.55
 -10   0   6    3.33    2.24
 -10   0   6    6.11    4.80
  -9   0   6  955.96   50.15
  -8   0   6  319.92   20.55
  -7   0   6 3274.23  152.63
  -6   0   6 1040.64   51.89
  -5   0   6 3828.33  176.18
  -4   0   6 2931.74  135.52
  -3   0   6    5.93    3.25
   2   0  -6 2558.35  126.08
  -2   0   6 2846.80  124.90
   1   0  -6   33.27    4.69
   0   0  -6 1281.65   63.61
   0   0  -6 1698.81   66.73
  -1   0  -6  402.15   23.39
  -1   0  -6  397.75   21.65
  -2   0  -6 1782.64   85.92
  -3   0  -6  860.27   45.12
  -5   0  -6  305.61   16.62
  -5   0  -6  323.91   16.34
  -5   0  -6  325.78   16.85
  -5   0  -6  334.77   16.78
  -5   0  -6  322.32   16.71
  -6   0  -6   38.37    4.53
  -6   0  -6   50.24    4.64
  -6   0  -6   49.13    4.08
  -6   0  -6   38.76    3.58
  -7   0  -6  795.06   37.19
  -7   0  -6  801.54   37.03
  -7   0  -6  752.47   36.48
  -7   0  -6  731.71   36.05
  -7   0  -6  776.24   36.95
  -8   0  -6   74.75    6.19
  -8   0  -6   81.76    6.39
  -8   0  -6   66.73    5.82
  -8   0  -6   78.10    5.66
  -8   0  -6   77.49    5.32
  -8   0  -6   72.22    6.29
  -9   0  -6  555.61   27.08
  -9   0  -6  542.09   26.37
  -9   0  -6  522.54   26.71
  -9   0  -6  528.28   25.92
  -9   0  -6  543.03   27.08
 -10   0  -6  411.86   20.89
 -10   0  -6  406.48   20.16
 -10   0  -6  406.17   20.62
 -10   0  -6  378.32   19.72
 -10   0  -6  400.20   20.93
 -11   0  -6  119.48    7.80
 -11   0  -6  117.20    7.18
 -11   0  -6  116.94    8.00
 -11   0  -6  101.93    7.38
 -11   0  -6  102.36    6.72
 -11   0  -6  106.03    7.94
 -12   0  -6  122.05    7.59
 -12   0  -6  130.77    8.44
 -12   0  -6  123.76    7.97
 -12   0  -6  126.45    8.51
 -13   0  -6   30.45    3.38
 -13   0  -6   30.54    3.11
 -13   0  -6   31.59    3.90
 -13   0  -6   31.84    4.11
 -14   0  -6   93.82    6.03
 -14   0  -6   86.58    5.64
 -20   1   6   21.16    2.03
 -20  -1   6   17.80    1.93
 -19   1   6  116.75    6.68
 -19  -1   6  127.68    6.93
 -19   1   6  134.91    7.24
 -19  -1   6  128.46    7.15
 -18  -1   6   -0.98    2.34
 -18   1   6   -1.60    1.95
 -18   1   6    0.18    2.32
 -18  -1   6    0.87    2.22
 -18  -1   6    0.31    2.02
 -17   1   6  143.08   10.06
 -17   1   6  168.61    9.63
 -17  -1   6  187.78    9.83
 -17  -1   6  174.30    9.89
 -17   1   6  178.80   10.10
 -17  -1   6  172.69    9.97
 -16   1   6  136.98    9.64
 -16   1   6  166.09    9.37
 -16  -1   6  158.08    9.25
 -16   1   6  147.95    9.42
 -16  -1   6  158.04    9.49
 -16  -1   6  156.06    9.37
 -15   1   6  300.61   17.84
 -15   1   6  281.70   24.60
 -15   1   6  338.62   17.45
 -15   1   6  343.97   17.72
 -15  -1   6  347.85   17.69
 -15  -1   6  345.47   17.52
 -14  -1   6  230.32   21.16
 -14  -1   6  280.29   14.83
 -14   1   6  277.97   15.01
 -14   1   6  267.12   15.37
 -14   1   6  267.55   14.95
 -14  -1   6  276.01   14.97
 -13  -1   6  177.45   16.85
 -13   1   6  163.07   10.24
 -13  -1   6  169.15    9.97
 -13   1   6  159.39   10.51
 -13   1   6  166.22   10.17
 -13  -1   6  163.44   10.14
 -12   1   6  494.33   32.04
 -12  -1   6  527.75   33.46
 -12   1   6  462.39   25.48
 -12  -1   6  530.67   25.03
 -12   1   6  490.40   25.35
 -12   1   6  538.17   25.35
 -12   1   6  516.05   25.33
 -12  -1   6  490.44   25.21
 -11   1   6  115.91   12.12
 -11  -1   6  103.22   12.49
 -11   1   6  106.72    7.68
 -11   1   6  109.68    7.60
 -11  -1   6  120.11    7.32
 -11   1   6  109.94    7.56
 -10   1   6  934.06   46.50
 -10  -1   6  915.98   47.43
 -10   1   6  788.77   39.91
 -10   1   6  820.19   39.86
 -10  -1   6  826.65   39.37
 -10   1   6  877.14   39.79
  -9   1   6   59.64    5.08
  -9   1   6   59.18    5.02
  -9   1   6   64.03    6.58
  -9   1   6   71.10    8.76
  -9  -1   6   72.22    9.45
  -8   1   6 1056.11   54.84
  -8   1   6 1019.92   52.15
  -7   1   6  355.67   21.33
  -7  -1   6  322.12   21.69
  -7   1   6  346.52   18.77
  -6   1   6  503.02   26.67
  -6  -1   6  480.97   27.04
  -6   1   6  450.51   23.95
  -5   1   6 1095.52   51.43
  -5  -1   6  981.10   51.26
  -4   1   6   63.36    6.30
  -4  -1   6   58.07    6.22
   3   1  -6 2732.52  133.70
  -3  -1   6 2548.76  131.68
   2   1  -6   74.73    8.12
  -2   1   6   90.84    7.13
   1  -1  -6 2945.32  135.63
   1   1  -6 2872.90  137.87
  -1   1   6 3033.95  135.89
   0   1  -6   89.61    8.84
   0   1  -6  102.80    8.05
   0  -1  -6  111.82    7.30
   0   1   6  102.92    7.10
  -1   1  -6  241.58   16.18
  -1   1  -6  235.57   14.17
  -1  -1  -6  254.61   16.25
  -2   1  -6  432.33   25.58
  -2  -1  -6  445.36   25.50
  -3   1  -6  358.61   22.41
  -3  -1  -6  357.34   22.17
  -4  -1  -6  599.68   29.65
  -4  -1  -6  645.73   29.84
  -4   1  -6  656.58   30.28
  -4   1  -6  634.31   29.96
  -4  -1  -6  610.69   29.93
  -4  -1  -6  599.00   30.04
  -5   1  -6   68.66    5.34
  -5   1  -6   74.35    5.85
  -5  -1  -6   74.42    5.85
  -5  -1  -6   76.74    5.65
  -5   1  -6   67.85    5.52
  -5   1  -6   73.17    5.85
  -5  -1  -6   81.37    5.47
  -5  -1  -6   71.40    5.57
  -5  -1  -6   72.11    4.85
  -6   1  -6  790.16   39.11
  -6   1  -6  843.16   38.92
  -6   1  -6  839.93   39.80
  -6   1  -6  856.80   39.50
  -6  -1  -6  837.15   39.67
  -6  -1  -6  884.02   39.58
  -6   1  -6  789.60   39.68
  -6   1  -6  865.77   39.60
  -6  -1  -6  794.18   39.05
  -6  -1  -6  858.95   39.47
  -6  -1  -6  776.84   38.59
  -7  -1  -6    1.73    2.66
  -7   1  -6    4.06    2.64
  -7   1  -6   -1.70    3.02
  -7   1  -6    3.36    3.10
  -7   1  -6    2.11    1.98
  -7  -1  -6    3.54    2.65
  -7  -1  -6    2.39    3.05
  -7   1  -6    1.48    2.99
  -7  -1  -6    5.15    2.92
  -7  -1  -6    1.22    2.05
  -7  -1  -6    4.01    2.43
  -8  -1  -6  387.79   20.53
  -8   1  -6  390.55   19.87
  -8   1  -6  412.12   20.59
  -8   1  -6  419.54   20.68
  -8  -1  -6  383.68   20.23
  -8  -1  -6  404.67   20.08
  -8  -1  -6  414.86   20.78
  -8  -1  -6  385.48   19.71
  -9   1  -6   21.56    3.65
  -9  -1  -6   22.94    3.42
  -9   1  -6   25.33    3.22
  -9   1  -6   27.44    4.16
  -9  -1  -6   18.19    3.90
  -9   1  -6   26.82    4.40
  -9  -1  -6   26.85    3.07
  -9  -1  -6   24.34    3.33
 -10  -1  -6  259.89   14.27
 -10   1  -6  242.39   13.04
 -10  -1  -6  257.95   13.69
 -10   1  -6  233.14   13.62
 -10  -1  -6  260.64   13.38
 -10  -1  -6  260.41   14.31
 -10  -1  -6  227.52   12.96
 -10   1  -6  265.19   14.46
 -11  -1  -6  212.53   13.04
 -11   1  -6  210.45   11.91
 -11  -1  -6  240.62   12.64
 -11   1  -6  231.77   12.66
 -11  -1  -6  231.26   12.32
 -11  -1  -6  253.34   13.47
 -11   1  -6  233.40   13.32
 -12  -1  -6   36.24    4.20
 -12   1  -6   45.21    4.68
 -12  -1  -6   43.64    4.04
 -12   1  -6   36.66    3.83
 -12  -1  -6   42.79    3.83
 -12  -1  -6   36.82    4.49
 -12  -1  -6   42.70    4.78
 -12   1  -6   42.62    4.87
 -13  -1  -6  164.50    9.01
 -13   1  -6  153.05    9.34
 -13   1  -6  150.66    8.71
 -13  -1  -6  163.28    9.24
 -13  -1  -6  150.77    8.69
 -13   1  -6  164.64    9.69
 -14  -1  -6   13.80    2.17
 -14   1  -6   12.32    2.63
 -14   1  -6   11.28    2.76
 -19   2   6   17.32    2.00
 -19  -2   6   18.75    2.08
 -18   2   6  145.42    7.91
 -18  -2   6  144.75    7.91
 -18  -2   6  134.83    7.87
 -18   2   6  139.88    7.75
 -18  -2   6  140.71    7.66
 -17   2   6    7.72    3.07
 -17  -2   6   10.06    2.70
 -17   2   6   15.53    2.70
 -17   2   6    8.78    2.58
 -17  -2   6   12.13    2.56
 -17  -2   6   15.97    2.69
 -16   2   6  127.05    8.73
 -16  -2   6  120.43    7.86
 -16  -2   6  138.43    8.09
 -16   2   6  122.33    7.86
 -16  -2   6  132.41    7.88
 -15  -2   6    2.34    2.71
 -15   2   6    6.37    3.24
  15   2  -6   -0.88    2.36
 -15   2   6    2.23    2.78
 -15  -2   6    0.22    2.68
 -14   2   6   15.75    6.23
 -14   2   6   22.68    4.28
 -14   2   6   21.26    3.81
 -14  -2   6   19.60    3.55
 -14   2   6   14.15    3.26
 -14  -2   6   14.35    3.26
 -13   2   6   -2.41    3.14
 -13   2   6    9.47    3.23
 -13  -2   6    5.02    2.85
  13   2  -6    6.77    4.59
 -13   2   6    0.96    2.82
 -13  -2   6    2.84    2.74
 -12   2   6    8.56    3.25
 -12   2   6    2.03    3.34
 -12  -2   6    8.56    2.96
  12   2  -6    4.02    5.13
 -12   2   6    2.13    2.79
 -12  -2   6    6.80    3.06
 -11   2   6  435.29   22.12
 -11  -2   6  416.20   20.89
 -11   2   6  444.82   28.49
 -11   2   6  381.53   25.56
  11   2  -6  476.51   28.77
 -11   2   6  427.55   21.22
 -11  -2   6  402.17   21.11
 -10   2   6   20.63    3.65
 -10  -2   6   13.68    2.88
  10   2  -6   20.34    5.68
 -10   2   6   17.56    5.72
 -10   2   6   26.78    5.73
 -10   2   6   19.56    2.76
 -10  -2   6   25.20    7.72
  -9   2   6  323.83   17.74
  -9   2   6  335.78   17.62
  -9  -2   6  325.57   17.33
   9   2  -6  348.77   23.39
  -9   2   6  369.98   23.58
  -9   2   6  340.43   20.97
  -9  -2   6  351.64   24.54
  -9   2   6  341.75   20.91
  -9   2   6  339.55   17.06
  -8   2   6   97.54    6.80
  -8  -2   6   94.82    6.45
   8   2  -6   98.65    6.51
   8   2  -6   81.18   10.21
  -8   2   6  116.77   10.96
  -8   2   6   99.00    9.56
  -8   2   6  110.04    9.16
  -8  -2   6  121.20   12.04
  -7   2   6  120.37    8.01
  -7   2   6  147.04   11.92
  -7   2   6  150.39   10.62
   7   2  -6  141.62   12.64
  -6   2   6  115.37   10.27
   6   2  -6  107.32   10.69
  -5   2   6  195.90   14.06
   5   2  -6  202.51   15.23
  -4   2   6  172.31   12.41
   4   2  -6  157.73   13.13
  -3   2   6   16.71    4.60
   3  -2  -6   24.26    4.71
   3   2  -6   22.93    5.76
   2  -2  -6  260.30   16.98
   1  -2  -6  109.72   10.06
   1  -2  -6   98.58    8.71
   1   2  -6  102.38    9.61
   0  -2  -6  218.59   15.72
   0   2  -6  185.82   14.01
   0   2  -6  233.08   15.10
   0  -2  -6  204.80   13.96
  -1  -2  -6  398.75   25.17
  -1   2  -6  405.07   23.77
  -1  -2  -6  385.81   23.07
  -1   2  -6  420.63   23.66
   2   2   6  112.49   10.41
  -2  -2  -6  117.34   11.31
  -2   2  -6  117.03   10.52
  -3   2  -6  233.27   12.25
   3   2   6  238.83   16.20
  -3  -2  -6  231.72   17.62
  -3   2  -6  228.38   12.49
  -3  -2  -6  234.90   12.28
  -3  -2  -6  231.88   12.10
  -3   2  -6  209.51   12.39
  -3   2  -6  224.32   12.20
  -4   2  -6    0.19    2.34
   4   2   6    1.29    3.12
  -4   2  -6    5.35    2.98
  -4   2  -6   -1.68    2.83
  -4  -2  -6    0.41    2.35
  -4   2  -6    2.54    2.63
  -4  -2  -6   -0.97    2.12
  -4   2  -6    1.21    2.39
  -5   2  -6   99.50    6.54
  -5  -2  -6  107.52   11.20
  -5   2  -6   83.28    9.30
  -5  -2  -6   96.26    7.32
  -5   2  -6  102.73    7.19
  -5  -2  -6  101.50    6.78
  -5  -2  -6   92.60    6.55
  -5   2  -6   99.29    7.26
  -5   2  -6  102.23    6.88
  -6   2  -6    2.12    2.46
  -6   2  -6    6.42    3.38
  -6  -2  -6   -2.88    5.05
  -6   2  -6    2.97    3.07
  -6  -2  -6   -2.17    2.60
  -6   2  -6    0.28    2.95
  -6  -2  -6    2.47    2.33
  -6  -2  -6   -0.58    3.36
  -6   2  -6    1.44    2.86
  -6  -2  -6    2.43    2.95
  -6  -2  -6    1.89    2.08
  -7   2  -6  241.02   19.59
  -7   2  -6  302.20   16.04
  -7  -2  -6  297.24   15.64
  -7  -2  -6  310.62   15.49
  -7   2  -6  285.13   16.21
  -7   2  -6  307.23   15.79
  -7   2  -6  294.90   15.60
  -7  -2  -6  264.82   14.67
  -7  -2  -6  296.48   15.79
  -7  -2  -6  278.48   15.00
  -8   2  -6    5.72    3.51
  -8  -2  -6    3.21    2.63
  -8   2  -6    0.25    2.66
  -8   2  -6   -0.60    3.28
  -8  -2  -6    1.71    2.42
  -8   2  -6   -1.34    3.14
  -8  -2  -6   -2.11    2.20
  -8  -2  -6   -0.85    2.31
  -9   2  -6   68.07    6.11
  -9   2  -6   67.95    5.98
  -9  -2  -6   67.38    5.47
  -9   2  -6   63.00    5.35
  -9  -2  -6   67.90    5.80
  -9  -2  -6   56.75    4.51
  -9  -2  -6   69.62    5.46
  -9  -2  -6   71.52    5.25
 -10   2  -6   74.13    6.39
 -10  -2  -6   73.38    5.84
 -10  -2  -6   87.11    6.42
 -10   2  -6   73.86    5.66
 -10   2  -6   83.67    6.41
 -10  -2  -6   81.45    5.82
 -10  -2  -6   69.08    5.42
 -10   2  -6   74.57    6.55
 -11   2  -6   20.51    2.86
 -11   2  -6   21.96    3.69
 -11  -2  -6   18.01    3.17
 -11  -2  -6   15.36    3.30
 -11   2  -6   18.15    3.90
 -11  -2  -6   16.69    3.05
 -11  -2  -6   18.11    2.79
 -12   2  -6   67.64    5.53
 -12  -2  -6   64.88    4.87
 -13  -2  -6   34.83    3.29
 -13  -2  -6   34.48    3.04
 -14  -2  -6   88.28    5.40
 -14   2  -6   84.36    5.51
 -14  -2  -6   87.06    5.16
 -18  -3   6    1.45    1.39
 -18   3   6    2.55    1.55
 -17   3   6   -0.99    2.34
 -17  -3   6    0.23    1.89
 -17   3   6    3.62    1.93
 -16  -3   6    0.88    2.20
  16   3  -6   -0.80    1.98
 -16   3   6    0.55    1.97
 -15  -3   6   23.10    3.08
  15   3  -6   17.78    3.13
 -15   3   6   28.71    3.47
 -14  -3   6   27.86    3.52
 -14   3   6   26.84    3.72
 -13   3   6    2.75    3.06
 -13  -3   6    7.39    2.66
 -13  -3   6    0.51    1.97
 -12   3   6   35.36    7.38
 -12   3   6   37.64    4.72
 -12  -3   6   36.24    3.97
 -12  -3   6   37.07    3.56
 -11  -3   6    3.37    2.58
  11   3  -6    6.71    2.65
 -11   3   6    1.59    2.84
  11   3  -6    5.24    4.78
 -11  -3   6   12.71    4.62
 -11   3   6    6.38    4.72
 -11   3   6    5.39    2.18
 -10   3   6   36.47    4.79
 -10   3   6   40.84    4.72
  10   3  -6   44.65    4.35
 -10  -3   6   33.05    4.04
  10   3  -6   37.79    8.07
 -10   3   6   35.84    3.86
 -10  -3   6   28.34    7.00
 -10   3   6   29.55    7.33
 -10   3   6   37.32    6.70
 -10   3   6   37.54    3.86
  -9   3   6    2.37    2.89
  -9   3   6   -1.27    2.91
   9   3  -6    3.67    2.70
  -9  -3   6    0.25    2.49
   9   3  -6    4.23    5.10
  -9   3   6    3.87    3.74
  -9   3   6   -0.98    5.00
  -9   3   6    2.38    4.17
  -9   3   6    0.24    2.19
  -8   3   6  281.02   16.26
  -8  -3   6  303.62   15.93
   8   3  -6  300.80   16.02
   8   3  -6  310.76   22.31
  -8   3   6  306.66   21.02
  -8   3   6  304.94   20.31
  -8   3   6  312.05   16.13
  -8   3   6  344.46   22.19
   7   3  -6  157.28    9.45
  -7  -3   6  152.62    9.10
  -7   3   6  153.50    9.50
   7   3  -6  157.02   14.62
  -7   3   6  169.96   14.09
  -7   3   6  151.93   12.83
  -7   3   6  152.68    9.42
  -7   3   6  154.18   13.69
  -6   3   6   34.50    4.04
  -6  -3   6   31.71    3.61
   6   3  -6   32.68    4.03
   6   3  -6   50.31    8.09
  -6   3   6   34.37    6.81
  -6   3   6   51.17    7.39
  -6   3   6   34.02    3.95
  -5  -3   6   17.26    2.72
  -5   3   6   17.89    2.95
   5   3  -6   25.31    3.44
   5   3  -6   18.02    5.71
  -5   3   6   30.61    6.15
  -5   3   6   19.76    5.57
   5   3  -6   19.97    3.28
  -4  -3   6    5.21    2.13
   4   3  -6   -1.90    2.84
  -4   3   6    4.32    2.24
   4   3  -6   15.87    5.95
  -4   3   6   10.75    4.86
   4  -3  -6   11.23    3.69
   4   3  -6    3.83    2.59
  -3  -3   6   12.82    2.44
  -3   3   6   13.70    2.69
   3   3  -6   14.43    3.07
   3   3  -6    9.30    4.84
   3   3  -6   15.73    5.86
   3   3  -6   10.40    2.79
   3  -3  -6   10.69    4.01
   2   3  -6   17.98    2.89
   2   3  -6   16.17    5.61
  -2   3   6   26.12    6.25
   2  -3  -6   25.25    5.59
   2   3  -6   21.56    3.51
   1   3  -6    3.76    2.72
   1   3  -6    4.68    2.28
   1   3  -6    5.24    4.30
  -1   3   6    4.53    4.30
   1  -3  -6    3.25    4.47
   0   3  -6   25.16    3.65
   0   3  -6   40.44    6.62
   0   3   6   36.26    6.75
   0   3  -6   26.15    3.60
   0  -3  -6   33.46    7.01
  -1   3  -6   17.02    3.18
   1   3   6   20.90    5.77
  -1   3  -6   15.11    3.26
  -1  -3  -6   20.77    5.93
  -2   3  -6   17.99    3.20
   2   3   6   14.67    5.01
  -2   3  -6   19.30    3.25
  -2  -3  -6    9.82    4.81
  -2  -3  -6   19.73    2.68
  -2   3  -6   18.05    3.35
  -3   3  -6    2.50    2.55
  -3  -3  -6    2.04    4.23
   3   3   6    2.56    3.80
  -3  -3  -6    0.86    2.32
  -3   3  -6    3.43    2.47
  -3  -3  -6   -1.13    2.09
  -3   3  -6    0.25    2.75
  -3   3  -6   -0.42    2.63
  -4   3  -6   27.66    3.51
  -4  -3  -6   25.25    6.69
   4   3   6   33.00    6.51
  -4  -3  -6   31.34    3.84
  -4   3  -6   26.95    4.27
  -4   3  -6   31.74    3.93
  -4  -3  -6   36.18    3.54
  -4   3  -6   28.25    4.00
  -4   3  -6   26.09    3.78
  -5   3  -6   59.01    4.98
  -5   3  -6   47.42    5.26
  -5  -3  -6   70.34    5.46
  -5   3  -6   64.26    5.68
  -5  -3  -6   67.50    5.03
  -5   3  -6   64.72    5.96
  -5   3  -6   57.26    5.28
  -6  -3  -6    5.43    4.95
  -6  -3  -6    5.20    2.84
  -6   3  -6    4.75    3.52
  -6   3  -6    4.90    3.05
  -6  -3  -6    7.87    2.55
  -6   3  -6    3.05    3.23
  -6   3  -6   10.91    3.00
  -6  -3  -6    4.75    2.49
  -6  -3  -6    4.58    2.55
  -7  -3  -6   25.79    6.94
  -7   3  -6   25.73    4.56
  -7   3  -6   26.68    3.61
  -7   3  -6   22.09    3.92
  -7  -3  -6   28.66    3.58
  -7  -3  -6   30.82    4.00
  -7   3  -6   20.88    3.93
  -7  -3  -6   23.26    3.41
  -7  -3  -6   30.68    3.73
  -8   3  -6   -0.22    2.42
  -8   3  -6    0.55    3.03
  -8  -3  -6    2.09    2.46
  -8  -3  -6    0.53    2.71
  -8   3  -6    1.57    2.90
  -8  -3  -6   -0.38    2.19
  -8  -3  -6    0.68    2.40
  -8  -3  -6   -1.79    2.36
  -9   3  -6    4.66    2.20
  -9   3  -6    3.92    2.95
  -9  -3  -6    2.04    2.33
  -9  -3  -6    4.10    2.76
  -9   3  -6    2.78    2.90
  -9  -3  -6    3.79    2.15
  -9  -3  -6    4.31    2.61
  -9  -3  -6    6.26    2.52
 -10  -3  -6    1.49    2.30
 -10   3  -6   -3.10    2.75
 -10  -3  -6   -1.10    1.85
 -10   3  -6    0.70    2.90
 -10  -3  -6    1.58    2.25
 -10  -3  -6   -2.43    2.19
 -11  -3  -6   13.69    2.72
 -11   3  -6   14.18    3.14
 -11   3  -6   10.57    2.93
 -11  -3  -6   13.74    2.66
 -11  -3  -6   15.39    2.55
 -12  -3  -6   26.85    3.04
 -12   3  -6   26.72    3.37
 -12  -3  -6   23.24    2.83
 -12   3  -6   29.62    3.53
 -13  -3  -6   10.65    2.40
 -13  -3  -6   10.52    1.92
 -13   3  -6   12.22    2.34
 -14   3  -6    9.08    1.50
  16   4  -6   39.35    2.97
 -16   4   6   30.38    3.61
 -16   4   6   36.32    2.99
 -16   4   6   39.11    2.83
 -16  -4   6   40.08    2.91
 -15   4   6    4.10    2.57
 -15  -4   6    3.43    1.75
  15   4  -6   -1.11    2.07
 -15   4   6    3.03    1.92
 -15  -4   6    0.26    1.85
 -14   4   6   11.36    3.13
 -14  -4   6    5.25    2.09
 -14   4   6    6.43    2.32
 -13   4   6   12.13    3.49
 -13  -4   6   10.72    2.43
 -13   4   6   14.29    2.80
 -12   4   6   82.94    6.97
  12   4  -6   83.99    5.97
 -12   4   6   88.18    6.16
 -11   4   6   30.09    4.60
 -11   4   6   25.32    4.06
  11   4  -6   28.25    3.78
 -11   4   6   24.97    2.96
 -10   4   6   43.05    5.10
 -10   4   6   41.08    4.85
 -10   4   6   38.29    3.94
  10   4  -6   43.58    4.67
 -10  -4   6   35.22    4.31
 -10  -4   6   35.26    7.64
 -10   4   6   41.43    7.32
  -9   4   6   33.64    4.57
  -9   4   6   22.53    4.00
   9   4  -6   34.44    4.38
  -9  -4   6   25.24    3.79
  -9   4   6   28.90    3.66
  -9   4   6   33.46    6.99
  -9  -4   6   23.27    6.63
  -9   4   6   30.84    6.60
  -9   4   6   28.90    3.86
  -8   4   6   13.66    3.63
  -8   4   6   15.69    3.38
   8   4  -6   21.34    3.97
  -8  -4   6   17.46    3.03
   8   4  -6   34.18    7.67
  -8   4   6    6.55    4.99
  -8  -4   6   20.52    6.14
  -8   4   6   17.26    3.41
  -8   4   6   23.64    6.80
  -8   4   6   21.66    5.92
  -8   4   6   21.98    3.50
  -7   4   6   -1.96    3.04
   7   4  -6    1.89    3.12
  -7  -4   6   -0.26    2.28
   7   4  -6    5.15    5.61
  -7   4   6    1.99    4.33
  -7   4   6    4.06    5.08
  -7   4   6    0.86    2.42
  -7   4   6    0.90    4.11
  -7   4   6    2.66    2.54
  -6   4   6  144.06    9.24
  -6  -4   6  136.22    8.91
   6   4  -6  142.38    9.33
   6   4  -6  149.18   15.73
  -6   4   6  153.37   14.52
  -6   4   6  156.99    9.64
  -6   4   6  142.28    9.44
  -6   4   6  180.84   14.99
  -5   4   6   89.01    6.59
  -5  -4   6   87.88    6.42
   5   4  -6   94.06    6.81
   5   4  -6   94.24   12.48
  -5   4   6   90.06   11.35
  -5   4   6   94.40   10.69
   5   4  -6   85.06    6.90
  -4  -4   6  378.16   19.84
   4   4  -6  389.54   20.07
  -4   4   6  392.32   27.09
   4   4  -6  383.94   20.46
  -4   4   6  412.16   20.60
   3   4  -6  105.04    7.05
  -3  -4   6  111.92    7.30
   3   4  -6  128.20   13.65
   3   4  -6  104.29    8.02
  -3   4   6  107.60    7.95
   2   4  -6  350.66   18.42
   2   4  -6  382.71   19.19
  -2  -4   6  364.03   18.95
   2   4  -6  410.90   26.89
  -2   4   6  416.12   27.64
   2   4  -6  359.34   19.59
   2  -4  -6  386.54   24.62
  -2   4   6  379.54   19.73
   1   4  -6   92.27    6.54
   1   4  -6   79.99    5.56
   1   4  -6   77.93   10.84
  -1   4   6  102.87   12.10
  -1   4   6   82.05    6.69
   1  -4  -6   63.13    9.79
   0   4   6  153.80   15.35
   0   4   6  163.88   10.07
   0  -4  -6  151.80   14.88
   0   4  -6  147.38   10.02
   0   4   6  160.25    9.96
   0   4  -6  163.76    9.69
   1   4   6   -4.30    5.38
   1   4   6   -0.80    2.13
  -1  -4  -6   -1.10    5.00
  -1   4  -6   -2.53    2.68
   1   4   6   -0.79    2.40
  -1   4  -6   -1.90    2.71
   2   4   6   40.44    7.39
   2   4   6   33.63    3.95
  -2  -4  -6   37.18    8.00
  -2   4  -6   33.93    4.38
   2   4   6   35.91    3.89
  -2   4  -6   39.02    4.26
   3   4   6    4.01    4.57
   3   4   6    3.24    2.23
  -3  -4  -6    9.16    5.64
  -3   4  -6    4.54    2.71
  -3   4  -6   12.26    3.06
  -4  -4  -6    1.15    4.90
   4   4   6    6.64    4.23
  -4   4  -6    1.78    2.51
  -4   4  -6    5.65    2.85
  -4  -4  -6    4.61    2.48
  -5  -4  -6  152.73   14.81
  -5  -4  -6  132.42    8.00
  -5  -4  -6  134.93    8.29
  -5   4  -6  127.73    8.47
  -6  -4  -6    4.34    2.21
  -6   4  -6    3.85    3.07
  -6  -4  -6    5.43    2.49
  -7  -4  -6  125.77    7.79
  -7  -4  -6  124.89    7.79
  -7   4  -6  134.08    8.34
  -7  -4  -6  128.75    7.83
  -8   4  -6   43.46    4.88
  -8  -4  -6   46.95    4.09
  -8   4  -6   53.00    4.72
  -8  -4  -6   44.31    4.07
  -8  -4  -6   45.28    4.06
  -9  -4  -6   32.99    3.36
  -9  -4  -6   31.24    3.16
  -9  -4  -6   33.10    3.38
  -9   4  -6   29.67    3.75
 -10   4  -6   50.91    4.21
 -10  -4  -6   46.29    3.87
 -10  -4  -6   48.02    3.49
 -10  -4  -6   43.05    3.72
 -11  -4  -6    2.45    2.29
 -11   4  -6    0.70    1.93
 -11  -4  -6   -0.82    1.73
 -11   4  -6   -0.43    2.02
 -11  -4  -6    0.34    1.53
 -12   4  -6   61.29    3.96
 -12  -4  -6   55.87    3.68
 -12  -4  -6   61.80    3.69
 -12   4  -6   51.43    3.83
  14   5  -6   75.74    4.64
 -14   5   6   71.78    4.95
 -13   5   6   23.96    3.24
  13   5  -6   25.87    2.46
  13   5  -6   30.58    3.14
  12   5  -6  260.30   13.42
 -12   5   6  273.96   14.26
 -11   5   6    6.19    2.88
  11   5  -6    4.23    2.43
 -11   5   6    2.04    2.10
 -10   5   6  146.51    9.16
 -10   5   6  134.79    8.15
  10   5  -6  140.82    8.59
 -10   5   6  141.55    8.56
  -9   5   6   10.27    3.37
   9   5  -6   10.92    3.12
  -9  -5   6    6.72    2.63
  -9   5   6    7.66    2.53
  -8   5   6  244.44   13.62
  -8   5   6  231.26   13.08
  -8  -5   6  229.44   12.96
   8   5  -6  239.18   13.31
   7   5  -6   41.16    4.68
  -7   5   6   38.19    4.53
  -7  -5   6   33.31    3.96
  -7   5   6   38.02    4.23
  -6   5   6  330.82   18.41
   6   5  -6  351.82   18.30
  -6  -5   6  335.68   17.97
  -6   5   6  365.57   18.48
  -5  -5   6  254.46   13.37
  -5   5   6  264.74   14.09
   4   5  -6   77.18    6.19
  -4   5   6   99.14    7.55
  -4  -5   6  107.39    6.98
   4   5  -6  104.76   13.16
  -4  -5   6   94.28   12.34
   4   5  -6  100.30    7.54
  -4   5   6   99.00    7.46
   3   5  -6   82.29    7.01
  -3   5   6   85.11    6.92
  -3   5   6   91.30    7.02
   3   5  -6   78.25    5.59
   3   5  -6   72.97    6.28
  -3  -5   6   97.34    6.53
  -2   5   6   53.27    9.77
   2   5  -6   55.78    5.80
  -2   5   6   55.58    5.61
   2   5  -6   64.40    5.48
  -2   5   6   59.96    5.71
  -2  -5   6   52.38    5.04
  -1   5   6  115.73    8.31
  -1   5   6  122.80    8.42
   1   5  -6  110.48    7.82
  -1  -5   6  122.19    7.94
   0   5  -6  411.34   21.56
   0   5   6  435.47   21.42
   0   5  -6  393.86   20.79
   0   5   6  415.21   21.39
  -1   5  -6  194.85   11.75
   1   5   6  215.03   11.70
  -1   5  -6  188.38   11.09
   2   5   6  261.49   13.76
  -2   5  -6  251.08   13.37
  -2   5  -6  243.53   13.34
  -3   5  -6   44.55    4.04
   3   5   6   51.28    4.36
  -3  -5  -6   48.99    3.87
  -3   5  -6   45.09    4.25
  -4  -5  -6  150.32    8.38
  -4   5  -6  151.04    8.90
  -5   5  -6   36.00    4.36
  -5  -5  -6   34.32    3.26
  -5   5  -6   36.93    3.91
  -5  -5  -6   37.19    3.65
  -6   5  -6  233.32   12.72
  -6  -5  -6  215.27   11.46
  -6   5  -6  219.32   11.96
  -6  -5  -6  237.14   11.99
  -7   5  -6    3.15    2.73
  -7   5  -6    1.61    2.15
  -7  -5  -6   -1.04    1.96
  -7  -5  -6    0.35    1.58
  -7  -5  -6    0.62    1.87
  -8   5  -6  186.65    9.58
  -8   5  -6  179.25    9.82
  -8  -5  -6  163.01    8.95
  -8  -5  -6  183.19    9.23
  -8  -5  -6  174.21    9.31
  -9   5  -6   29.48    2.85
  -9  -5  -6   24.05    2.33
  -9  -5  -6   37.87    2.60
  -9  -5  -6   33.26    2.70
  -9   5  -6   29.55    3.04
 -10   5  -6   43.77    3.09
  11   6  -6   66.26    4.04
  11   6  -6   63.40    4.06
 -11   6   6   75.38    4.16
 -10   6   6    0.46    1.43
  10   6  -6    3.50    1.78
  10   6  -6    2.48    1.74
 -10   6   6    1.25    1.31
  -9   6   6  275.86   13.72
   9   6  -6  268.25   13.80
   9   6  -6  292.33   14.20
  -9   6   6  264.66   13.84
  -9   6   6  309.70   14.22
  -8   6   6   44.41    3.62
  -8  -6   6   45.03    3.80
   8   6  -6   39.12    3.45
   8   6  -6   43.97    4.00
  -8   6   6   47.28    3.84
  -8   6   6   52.48    4.02
  -7   6   6  122.44    7.28
  -7   6   6  122.08    7.37
  -7  -6   6  132.50    7.42
   7   6  -6  108.34    7.41
  -6   6   6  152.31    9.11
  -6  -6   6  179.07    9.38
  -6   6   6  166.28    9.53
  -5   6   6    7.07    2.38
  -5  -6   6    6.34    2.25
  -5   6   6    3.99    2.55
  -4   6   6  543.90   27.01
   4   6  -6  540.94   27.19
  -4   6   6  556.35   27.69
  -4  -6   6  586.42   27.26
  -4   6   6  609.77   27.96
   3   6  -6   42.74    4.65
  -3   6   6   21.38    4.25
   2   6  -6  537.47   27.22
  -2   6   6  597.23   28.02
  -2  -6   6  580.92   27.41
  -1  -6   6   10.52    2.93
   1   6  -6    4.45    2.68
  -1   6   6    0.22    2.79
  -1   6   6    2.82    2.74
   0   6   6  273.07   14.14
   0   6  -6  243.38   13.46
   0  -6   6  289.48   13.97
   0   6   6  274.77   14.00
   1  -6   6   23.99    2.91
   1   6   6   18.93    2.77
   1   6   6   19.98    2.62
  -1   6  -6   26.13    3.47
   2   6   6   80.38    5.30
   2  -6   6   92.08    5.61
  -2   6  -6   80.59    5.78
  -2  -6  -6   82.08    5.19
   3  -6   6  223.62   12.39
  -3   6  -6  260.93   12.95
  -3  -6  -6  250.57   12.28
   4  -6   6    0.48    1.47
  -4   6  -6    2.30    2.30
  -4  -6  -6    0.80    1.55
   5  -6   6   92.63    5.47
  -5   6  -6   99.86    5.45
  -5   6  -6  107.68    6.22
  -5  -6  -6  106.84    5.65
  -6   6  -6    0.40    1.46
  -6  -6  -6    1.32    1.17
  -7  -6  -6   29.48    2.06
  -3  -7   6  113.94    5.89
   3   7  -6  113.42    6.00
  -2   7   6    2.96    1.74
 -20   0   7   -0.99    1.31
 -19   0   7    0.94    1.88
 -18   0   7    1.07    2.20
 -18   0   7    3.08    1.82
 -17   0   7   -0.22    2.54
 -17   0   7    1.56    1.99
 -16   0   7    0.36    2.11
 -16   0   7   -0.49    2.58
 -16   0   7   -2.57    2.38
 -15   0   7    1.20    2.98
 -15   0   7    5.06    3.22
 -15   0   7   -1.62    2.42
 -14   0   7    2.20    3.00
 -14   0   7    1.12    2.34
 -14   0   7   -1.10    3.19
 -13   0   7   -4.76    5.06
 -13   0   7    2.15    2.50
 -13   0   7    0.72    3.16
 -13   0   7    0.24    2.53
 -13   0   7    0.28    3.09
 -12   0   7    2.55    2.86
 -12   0   7    0.47    2.48
 -12   0   7    5.60    4.53
 -11   0   7    0.87    2.65
 -11   0   7   -0.22    2.25
 -11   0   7   -3.09    5.15
 -10   0   7   -2.95    2.68
 -10   0   7    0.21    2.04
 -10   0   7    3.73    4.42
   9   0  -7    0.51    2.22
  -9   0   7   -0.20    2.09
  -9   0   7    1.93    2.32
  -9   0   7   -2.51    3.96
  -8   0   7    3.01    4.13
  -7   0   7   -2.02    3.81
  -6   0   7    1.80    3.53
  -5   0   7   -3.66    3.43
  -4   0   7    0.43    2.73
  -3   0   7    0.68    2.33
   3   0  -7   -2.61    3.03
   2   0  -7    3.52    3.53
   1   0  -7   -0.99    3.23
   0   0  -7    4.05    3.87
   0   0  -7   -1.93    3.30
  -1   0  -7   -1.44    4.06
  -2   0  -7   -1.54    4.23
  -3   0  -7    0.20    2.39
  -3   0  -7   -0.16    2.02
  -3   0  -7   -0.83    4.23
  -3   0  -7    0.20    2.60
  -4   0  -7    0.22    2.51
  -4   0  -7   -0.84    2.19
  -4   0  -7    0.92    2.28
  -4   0  -7   -1.35    2.90
  -5   0  -7    0.17    2.04
  -5   0  -7   -0.21    2.13
  -5   0  -7    1.98    2.69
  -5   0  -7    0.73    3.08
  -6   0  -7    0.52    2.62
  -6   0  -7   -3.09    2.55
  -6   0  -7   -0.52    3.01
  -6   0  -7   -0.73    2.92
  -6   0  -7    0.88    2.00
  -7   0  -7    2.56    2.49
  -7   0  -7    2.18    3.15
  -7   0  -7   -1.05    2.88
  -7   0  -7    0.37    2.10
  -8   0  -7    1.39    2.26
  -8   0  -7   -4.21    3.24
  -8   0  -7    3.29    3.11
  -8   0  -7    2.88    1.99
  -9   0  -7    0.90    2.33
  -9   0  -7   -1.69    3.40
  -9   0  -7    1.40    3.36
  -9   0  -7    0.35    1.86
 -10   0  -7    0.25    2.66
 -10   0  -7   -0.21    2.22
 -10   0  -7    1.37    3.01
 -10   0  -7    1.74    2.02
 -11   0  -7    2.73    2.37
 -11   0  -7   -0.56    2.03
 -11   0  -7   -1.27    3.07
 -12   0  -7   -0.58    2.19
 -12   0  -7    1.68    1.78
 -12   0  -7    0.22    2.72
 -13   0  -7    3.84    1.96
 -13   0  -7   -0.85    2.36
 -13   0  -7    2.70    2.46
 -19   1   7   21.23    2.46
 -19  -1   7   22.68    2.46
 -19  -1   7   20.28    2.20
 -18   1   7   17.38    2.33
 -18   1   7   18.31    2.78
 -18  -1   7   14.14    2.61
 -18  -1   7   13.52    2.41
 -17   1   7  155.62    9.88
 -17   1   7  171.41    9.62
 -17  -1   7  179.19    9.86
 -17  -1   7  177.42    9.65
 -17   1   7  173.55    9.92
 -17  -1   7  181.34    9.97
 -16   1   7   72.57    5.98
 -16   1   7   73.88    5.62
 -16  -1   7   68.59    5.46
 -16  -1   7   79.73    5.84
 -16   1   7   76.72    5.91
 -16  -1   7   82.69    6.05
 -15   1   7  245.13   13.55
 -15   1   7  233.86   13.74
 -15  -1   7  241.27   13.38
 -15   1   7  245.92   13.60
 -15  -1   7  259.34   13.71
 -14   1   7   41.65    8.63
 -14  -1   7   24.79    7.36
 -14   1   7   32.54    4.44
 -14  -1   7   34.80    4.34
 -14   1   7   40.71    4.42
 -14   1   7   33.26    4.44
 -14  -1   7   32.98    4.38
 -13   1   7  130.75   14.40
 -13  -1   7  156.05   15.66
 -13   1   7  114.28    8.42
  13   1  -7  134.21    7.93
 -13   1   7  125.80    8.77
 -13  -1   7  124.60    8.26
 -13   1   7  128.01    8.54
 -13  -1   7  118.92    8.35
 -12   1   7   58.08    9.70
 -12  -1   7   56.61   10.03
 -12   1   7   55.79    5.37
 -12   1   7   53.95    5.48
  12   1  -7   62.99    5.09
 -12  -1   7   63.35    5.28
 -11   1   7  120.22   12.61
 -11  -1   7   74.31   11.23
  11   1  -7  107.62    6.81
 -11   1   7   88.12    6.97
 -11   1   7   93.75    7.03
 -11  -1   7   98.96    6.67
 -10   1   7  303.37   21.48
 -10  -1   7  304.44   22.39
 -10   1   7  295.55   15.98
  10   1  -7  313.49   15.67
 -10  -1   7  282.64   15.30
 -10   1   7  303.10   15.97
  -9   1   7  116.23   11.81
  -9  -1   7  125.59   12.67
  -9   1   7  125.83    8.05
  -9   1   7  130.79    8.09
   9   1  -7  139.40    7.92
  -9  -1   7  109.43    7.30
   8   1  -7  271.09   14.21
  -8   1   7  287.02   19.15
  -8  -1   7  251.28   19.32
   7   1  -7   10.62    2.76
  -7   1   7    5.58    4.12
  -7  -1   7    7.49    4.36
  -6   1   7  219.79   15.53
  -6  -1   7  230.26   15.97
  -5   1   7   34.66    5.46
  -5  -1   7   33.09    5.23
   4   1  -7  770.13   41.33
  -4  -1   7  685.05   38.95
   3   1  -7  156.12   12.60
  -3   1   7  167.78   11.31
   2  -1  -7  657.31   33.11
   2   1  -7  590.54   34.86
  -2   1   7  687.89   33.15
   1  -1  -7  564.27   26.77
   1   1  -7  535.21   29.18
   0   1  -7  157.59   12.83
   0  -1  -7  179.92   13.33
   0   1  -7  142.96   10.53
   0  -1  -7  166.82   10.31
   0   1  -7  159.68   12.55
  -1  -1  -7  528.94   28.95
  -1   1  -7  459.38   28.34
  -2  -1  -7   72.93    5.38
  -2   1  -7   72.19    5.61
  -2  -1  -7   83.87    5.83
  -2   1  -7   77.42    9.10
  -2  -1  -7   83.80    9.24
  -3   1  -7  218.09   12.08
  -3   1  -7  221.66   11.62
  -3  -1  -7  214.97   11.88
  -3   1  -7  219.98   12.44
  -3   1  -7  220.99   12.09
  -3  -1  -7  236.39   12.40
  -3   1  -7  247.79   17.62
  -3  -1  -7  211.13   12.06
  -3   1  -7  227.65   12.38
  -4   1  -7    1.48    2.55
  -4  -1  -7    4.20    2.26
  -4   1  -7    2.29    2.06
  -4  -1  -7    6.14    2.40
  -4   1  -7    6.89    3.08
  -4  -1  -7    8.02    2.72
  -4   1  -7    1.53    2.82
  -4  -1  -7    4.34    2.85
  -4   1  -7   10.38    3.01
  -5   1  -7   35.97    4.18
  -5   1  -7   29.13    4.29
  -5   1  -7   26.99    4.22
  -5  -1  -7   40.75    4.04
  -5  -1  -7   32.28    3.65
  -5  -1  -7   34.06    4.35
  -5   1  -7   35.72    4.18
  -5  -1  -7   29.65    3.88
  -5  -1  -7   36.85    3.26
  -6   1  -7   21.30    3.55
  -6   1  -7   26.88    3.96
  -6  -1  -7   20.72    3.56
  -6   1  -7   20.02    3.60
  -6   1  -7   26.02    4.24
  -6   1  -7   19.48    3.11
  -6  -1  -7   25.07    4.18
  -6   1  -7   22.73    3.77
  -6  -1  -7   24.20    3.70
  -6  -1  -7   23.99    2.86
  -7  -1  -7   18.49    3.47
  -7   1  -7   18.21    3.66
  -7   1  -7   14.77    3.89
  -7   1  -7   16.98    2.90
  -7  -1  -7   14.41    3.90
  -7   1  -7   24.08    3.94
  -7  -1  -7   14.88    3.50
  -7  -1  -7   12.95    2.47
  -7  -1  -7   16.66    2.96
  -8  -1  -7    4.59    2.82
  -8   1  -7    4.89    3.10
  -8   1  -7    1.43    2.14
  -8  -1  -7    2.92    3.21
  -8   1  -7    0.55    3.14
  -8  -1  -7    3.70    3.06
  -8   1  -7   -1.74    3.17
  -8  -1  -7    1.52    1.90
  -8  -1  -7   -0.64    2.43
  -9   1  -7  149.85    9.93
  -9  -1  -7  173.15    9.65
  -9  -1  -7  156.99    9.80
  -9   1  -7  174.17    9.78
  -9   1  -7  150.14    8.91
  -9  -1  -7  161.42    9.19
  -9  -1  -7  159.98    9.98
  -9  -1  -7  134.54    8.53
  -9   1  -7  159.52   10.18
 -10   1  -7   53.19    4.35
 -10  -1  -7   52.68    4.78
 -10   1  -7   52.45    4.87
 -10   1  -7   59.49    5.46
 -10  -1  -7   56.09    4.58
 -10  -1  -7   57.91    5.44
 -10   1  -7   63.25    5.72
 -11  -1  -7   40.78    3.93
 -11   1  -7   38.20    3.93
 -11  -1  -7   41.82    3.70
 -11   1  -7   41.58    4.66
 -11  -1  -7   37.71    4.53
 -11   1  -7   37.34    4.55
 -12  -1  -7  116.37    7.05
 -12   1  -7  114.42    6.96
 -12  -1  -7  109.44    6.70
 -12   1  -7  123.92    7.75
 -13  -1  -7   16.88    2.31
 -13  -1  -7   11.93    2.41
 -13   1  -7   15.07    2.88
 -14   1  -7   43.86    3.32
 -14  -1  -7   34.21    2.86
 -19   2   7  117.43    6.20
 -19  -2   7  118.42    6.26
 -18   2   7   32.72    2.88
 -18  -2   7   32.85    2.91
 -18  -2   7   30.90    2.68
 -17   2   7  139.46    8.39
 -17   2   7  139.28    7.87
 -17  -2   7  126.41    7.73
 -17  -2   7  136.40    7.76
 -17   2   7  137.31    7.73
 -17  -2   7  124.72    7.60
 -16   2   7  135.52    8.80
 -16  -2   7  130.14    8.01
 -16  -2   7  141.35    8.21
 -16   2   7  143.70    8.16
 -16  -2   7  125.44    7.94
  15   2  -7   13.61    2.80
 -15   2   7   14.81    3.65
 -15  -2   7   15.17    3.22
 -15   2   7   15.68    3.13
 -15  -2   7   14.38    3.01
 -14   2   7  515.54   25.28
 -14  -2   7  480.99   24.37
  14   2  -7  526.56   24.50
 -14   2   7  477.47   25.40
 -14   2   7  506.10   24.65
 -14  -2   7  472.06   24.51
 -13   2   7   84.84    7.06
 -13   2   7   90.44    6.95
  13   2  -7   89.09    6.44
 -13  -2   7   72.68    6.09
 -13   2   7   76.28   11.18
  13   2  -7   85.40   11.08
 -13   2   7   82.10    6.32
 -13  -2   7   90.73    6.45
 -12   2   7  870.78   41.76
 -12   2   7  867.35   41.58
 -12  -2   7  854.77   40.49
 -12   2   7  838.07   48.92
  12   2  -7  869.64   49.08
 -12   2   7  870.75   40.90
 -12  -2   7  830.17   40.78
 -11   2   7  326.68   18.14
 -11  -2   7  319.63   17.07
 -11   2   7  376.14   25.17
  11   2  -7  352.20   24.93
 -11   2   7  354.41   17.69
 -10   2   7  285.74   15.37
  10   2  -7  291.28   21.42
 -10   2   7  251.47   20.41
 -10   2   7  253.00   18.25
 -10   2   7  274.92   14.43
  -9   2   7  314.73   16.60
   9   2  -7  299.33   15.83
   9   2  -7  302.38   22.24
  -9   2   7  334.04   22.47
  -9   2   7  298.54   20.24
   8   2  -7   90.99    6.41
  -8   2   7   85.75    6.61
  -8  -2   7   99.18    6.35
   8   2  -7   91.16   10.93
  -8   2   7  113.29   11.05
  -7   2   7  559.07   27.74
   7   2  -7  564.61   27.58
  -7  -2   7  541.36   27.25
   7   2  -7  612.32   34.38
  -7   2   7  567.06   30.33
   6   2  -7   54.32    4.97
   6   2  -7   64.76    8.82
  -6   2   7   74.39    8.34
   5   2  -7 1495.08   70.42
   5   2  -7 1506.74   76.67
  -5   2   7 1664.73   75.42
   4   2  -7    1.56    2.75
   4   2  -7    3.08    2.64
  -4   2   7    3.03    3.74
   3   2  -7 1066.33   47.93
   3   2  -7  944.21   47.52
   2   2  -7  154.16    9.18
   2   2  -7  150.89   12.60
   2   2  -7  157.16   13.75
  -2   2   7  167.67   12.00
   1  -2  -7  239.72   13.08
   1   2  -7  270.71   17.64
   1  -2  -7  284.80   17.48
   1   2  -7  262.31   17.41
   1   2  -7  262.16   18.54
  -1   2   7  238.45   15.89
   0   2  -7  878.86   41.34
   0  -2  -7  854.11   41.14
   0   2  -7  911.12   46.37
   0   2  -7  904.00   45.73
   0  -2  -7  891.11   45.67
   0  -2  -7  881.87   47.19
  -1  -2  -7   45.11    4.01
  -1   2  -7   45.91    4.33
  -1   2  -7   36.84    3.66
  -1   2  -7   26.73    6.09
  -1  -2  -7   47.16    6.67
  -1  -2  -7   46.56    7.66
  -2   2  -7  724.16   34.30
  -2   2  -7  689.78   33.63
  -2  -2  -7  742.94   41.03
   2   2   7  730.85   39.39
  -2  -2  -7  714.22   34.02
  -2   2  -7  736.35   39.97
  -2   2  -7  708.58   34.04
  -2  -2  -7  757.57   34.18
  -2   2  -7  695.37   34.42
  -3   2  -7   31.84    3.97
   3   2   7   46.84    6.82
  -3   2  -7   33.14    4.18
  -3  -2  -7   35.89    3.85
  -3   2  -7   34.18    4.24
  -3  -2  -7   40.55    3.91
  -3   2  -7   35.93    3.90
  -4   2  -7  330.47   16.89
  -4   2  -7  320.62   17.33
  -4  -2  -7  338.90   17.02
  -4   2  -7  316.82   16.89
  -4  -2  -7  331.52   16.87
  -4   2  -7  307.83   17.28
   4   2   7  320.45   21.00
  -5   2  -7   47.96    4.61
  -5   2  -7   43.87    5.36
  -5   2  -7   45.90    4.00
  -5   2  -7   45.67    5.19
  -5   2  -7   57.06    5.04
  -5  -2  -7   54.17    4.86
  -5  -2  -7   48.87    4.52
  -6   2  -7  392.35   20.57
  -6   2  -7  396.79   21.29
  -6   2  -7  444.41   21.16
  -6  -2  -7  447.75   21.15
  -6  -2  -7  422.93   20.82
  -6   2  -7  383.19   20.04
  -6   2  -7  394.22   21.47
  -6  -2  -7  402.59   20.33
  -7   2  -7   61.74    5.36
  -7   2  -7   69.22    6.37
  -7   2  -7   76.24    6.19
  -7  -2  -7   69.50    5.94
  -7  -2  -7   82.34    5.96
  -7   2  -7   77.50    6.66
  -7   2  -7   80.44    6.23
  -7  -2  -7   71.96    5.40
  -8   2  -7  195.64   12.23
  -8  -2  -7  209.70   11.72
  -8  -2  -7  207.65   11.97
  -8   2  -7  207.36   11.81
  -8   2  -7  209.38   12.09
  -8  -2  -7  209.32   11.59
  -8  -2  -7  194.07   11.21
  -9   2  -7   73.65    6.27
  -9  -2  -7   66.90    5.58
  -9  -2  -7   77.73    6.01
  -9   2  -7   73.91    6.18
  -9   2  -7   61.56    5.45
  -9  -2  -7   76.68    5.54
  -9  -2  -7   70.15    5.21
 -10   2  -7   65.75    5.63
 -10   2  -7   59.43    5.46
 -10  -2  -7   73.14    5.36
 -10  -2  -7   55.57    5.28
 -10   2  -7   62.46    5.01
 -10  -2  -7   68.26    5.04
 -10  -2  -7   62.05    4.58
 -10   2  -7   58.46    5.62
 -11   2  -7  113.58    7.29
 -11  -2  -7  101.51    6.84
 -11  -2  -7   99.82    6.97
 -11   2  -7  101.11    6.46
 -11  -2  -7  115.60    6.70
 -11   2  -7  100.11    7.22
 -12  -2  -7   24.03    3.16
 -12   2  -7   25.57    3.40
 -12   2  -7   24.87    3.45
 -12  -2  -7   24.27    2.77
 -13  -2  -7  271.75   13.11
 -13   2  -7  262.19   13.62
 -14  -2  -7    4.55    2.44
 -14   2  -7    5.46    1.46
 -18   3   7  177.40    8.93
 -17   3   7  102.71    6.43
 -17   3   7  111.49    5.95
  16   3  -7  166.63    8.57
 -16   3   7  173.81    9.69
 -16   3   7  173.44    9.02
  15   3  -7  471.30   21.35
 -15   3   7  425.36   22.19
 -15   3   7  455.16   21.60
 -15  -3   7  394.23   20.84
 -14   3   7   -3.06    3.39
 -14  -3   7    2.60    2.40
  14   3  -7    1.84    2.63
 -13  -3   7  449.30   22.69
 -13  -3   7  454.41   22.58
 -12   3   7   -1.11    5.05
 -12   3   7    1.25    3.07
 -12  -3   7    1.41    2.11
  11   3  -7  316.38   15.37
 -11   3   7  322.24   16.51
 -11   3   7  280.65   15.11
 -11   3   7  326.56   23.06
 -11   3   7  264.81   15.11
  11   3  -7  292.99   22.66
 -11  -3   7  271.21   14.78
 -10   3   7  115.00    8.13
  10   3  -7  118.42    7.48
 -10   3   7  113.48   12.70
 -10   3   7   97.20    7.08
  10   3  -7  126.36   13.64
 -10  -3   7  100.23    6.72
  -9   3   7  187.02   11.80
  -9  -3   7  194.22   11.45
   9   3  -7  201.81   11.49
   9   3  -7  170.20   17.21
  -9   3   7  219.65   17.55
  -9   3   7  209.24   16.34
  -9   3   7  195.77   15.41
  -9   3   7  204.72   11.55
  -8  -3   7  687.21   35.30
  -8   3   7  734.60   35.91
   8   3  -7  721.55   35.56
   8   3  -7  815.58   44.42
  -8   3   7  782.13   42.64
  -8   3   7  765.57   42.03
  -8   3   7  759.83   40.30
  -8   3   7  770.87   35.76
  -7   3   7   16.27    3.36
   7   3  -7   23.37    3.75
  -7  -3   7   15.23    2.86
   7   3  -7    7.72    6.02
  -7   3   7   13.12    5.35
  -7   3   7   21.07    5.95
  -7   3   7   16.64    5.47
  -7   3   7   20.40    3.33
  -6   3   7  387.40   19.98
   6   3  -7  392.56   20.02
  -6  -3   7  363.21   19.40
   6   3  -7  381.06   26.64
  -6   3   7  438.63   26.69
  -6   3   7  451.95   26.03
  -5  -3   7    1.61    1.96
  -5   3   7    0.96    2.48
   5   3  -7    2.88    2.92
   5   3  -7    1.95    2.74
   5   3  -7    4.26    5.68
  -5   3   7   -2.95    4.48
  -5   3   7    3.34    4.96
  -4   3   7  560.69   29.29
   4   3  -7  621.37   29.70
   4   3  -7  604.08   29.26
  -4  -3   7  591.96   29.04
   4   3  -7  685.59   37.33
   4   3  -7  669.49   37.37
  -4   3   7  699.99   35.51
   3   3  -7   81.79    6.27
   3   3  -7   78.18    5.84
  -3  -3   7   76.01    5.56
   3   3  -7   71.28   10.11
   2   3  -7  988.20   47.18
   2   3  -7 1097.18   54.77
   2  -3  -7  999.21   53.31
  -2   3   7 1077.37   55.49
   1   3  -7  648.12   30.13
   1   3  -7  578.71   29.33
   1   3  -7  700.37   36.92
   1  -3  -7  624.32   36.11
  -1   3   7  611.02   36.75
   0   3  -7  260.14   14.21
   0   3  -7  306.56   15.18
   0   3  -7  309.04   20.70
   0   3   7  274.17   20.45
   0  -3  -7  276.66   20.88
  -1   3  -7  601.73   28.87
   1   3   7  552.48   34.75
  -1  -3  -7  574.43   28.23
  -2   3  -7   27.25    3.74
  -2  -3  -7   34.23    7.61
   2   3   7   29.87    6.32
  -2  -3  -7   27.29    3.26
  -2   3  -7   29.30    3.63
  -3   3  -7  539.17   25.43
  -3  -3  -7  549.43   33.66
   3   3   7  547.89   31.73
  -3  -3  -7  462.83   25.07
  -3  -3  -7  511.81   25.02
  -3   3  -7  525.44   25.94
  -3   3  -7  512.12   25.29
  -4   3  -7   10.44    2.95
   4   3   7   18.84    5.25
  -4  -3  -7   19.94    6.37
  -4  -3  -7   13.17    3.02
  -4   3  -7   11.13    3.74
  -4  -3  -7   10.69    2.56
  -4   3  -7   12.89    3.20
  -5   3  -7  379.54   20.11
  -5  -3  -7  391.55   20.49
  -5  -3  -7  396.75   20.18
  -5   3  -7  414.73   20.59
  -5   3  -7  402.68   21.17
  -5  -3  -7  421.52   20.39
  -6   3  -7   35.52    3.67
  -6  -3  -7   32.00    4.09
  -6   3  -7   39.19    5.16
  -6   3  -7   30.74    4.32
  -6  -3  -7   37.67    3.98
  -6   3  -7   46.78    4.70
  -6  -3  -7   34.74    3.81
  -6  -3  -7   36.79    4.09
  -7   3  -7   73.81    6.36
  -7  -3  -7   83.18    5.94
  -7  -3  -7   83.50    6.25
  -7   3  -7   79.91    6.93
  -7   3  -7   90.58    6.48
  -7   3  -7   80.34    6.08
  -7  -3  -7   69.58    5.31
  -7  -3  -7   74.02    5.83
  -7  -3  -7   77.53    5.71
  -8   3  -7  137.35    8.52
  -8  -3  -7  141.67    8.24
  -8  -3  -7  137.98    8.53
  -8   3  -7  115.45    7.92
  -8   3  -7  133.93    9.06
  -8  -3  -7  113.46    7.33
  -8  -3  -7  141.21    8.26
  -8  -3  -7  139.26    8.07
  -9  -3  -7   64.15    4.90
  -9  -3  -7   62.74    5.14
  -9   3  -7   48.78    4.43
  -9   3  -7   64.43    5.36
  -9  -3  -7   64.27    4.89
  -9  -3  -7   62.22    4.66
 -10  -3  -7  394.30   19.48
 -10   3  -7  399.90   19.74
 -10  -3  -7  400.80   19.36
 -10  -3  -7  373.79   19.12
 -10   3  -7  390.86   19.92
 -11  -3  -7    6.20    2.07
 -11   3  -7    5.13    2.44
 -12  -3  -7  192.23    9.80
 -12   3  -7  203.06   10.03
 -12  -3  -7  180.11    9.35
 -13  -3  -7    4.91    2.72
 -13   3  -7    5.50    1.46
 -13  -3  -7    5.92    1.27
  16   4  -7  109.94    5.70
 -16   4   7  101.68    6.42
 -16   4   7  103.86    5.75
 -16   4   7  100.28    5.53
 -16  -4   7  103.30    5.66
 -15   4   7   15.14    2.93
  15   4  -7   19.89    2.54
 -15   4   7   17.67    2.38
 -15  -4   7   18.27    2.37
  14   4  -7  166.97    8.98
 -14   4   7  137.36    9.46
 -14   4   7  158.04    8.71
 -13   4   7    7.16    3.28
  13   4  -7   13.96    3.06
 -13   4   7   15.65    2.83
 -12   4   7  261.26   15.42
  12   4  -7  277.49   14.42
 -12   4   7  292.03   14.71
 -11   4   7   51.13    5.52
 -11   4   7   50.34    4.21
 -11   4   7   47.92    5.03
  11   4  -7   51.80    4.73
 -10   4   7  163.69   10.26
 -10   4   7  156.53    9.85
  10   4  -7  154.65    9.44
 -10  -4   7  137.96    9.31
 -10   4   7  150.81    9.16
 -10   4   7  149.39    9.22
  -9   4   7  297.78   16.39
  -9   4   7  294.17   16.01
  -9   4   7  296.74   15.65
  -9  -4   7  263.36   15.40
   9   4  -7  292.14   15.73
   9   4  -7  302.15   23.97
  -9   4   7  284.38   21.95
  -9  -4   7  231.82   21.12
  -9   4   7  308.14   15.82
  -8   4   7  203.27   12.70
  -8   4   7  215.61   12.49
  -8   4   7  218.55   12.43
   8   4  -7  211.06   12.40
  -8  -4   7  207.73   12.00
   8   4  -7  217.88   19.86
  -8   4   7  243.12   18.51
  -8   4   7  196.74   17.21
  -8   4   7  186.09   16.15
  -8   4   7  216.38   12.41
  -7   4   7  277.51   15.55
  -7  -4   7  276.50   15.19
   7   4  -7  272.44   15.54
  -7   4   7  258.95   20.91
  -7   4   7  268.86   19.88
  -7   4   7  299.39   15.89
  -7   4   7  303.78   15.82
  -7   4   7  310.39   21.93
  -6   4   7   51.57    5.05
   6   4  -7   57.14    5.48
   6   4  -7   47.25    4.89
  -6  -4   7   51.13    4.69
  -6   4   7   40.78    8.32
  -6   4   7   56.08    8.53
  -5   4   7  213.57   12.08
   5   4  -7  204.24   11.82
  -5  -4   7  195.68   11.69
   5   4  -7  212.03   12.37
   5   4  -7  219.00   19.04
  -5   4   7  243.33   19.53
  -5   4   7  258.24   18.47
   4   4  -7   48.53    5.23
   4   4  -7   48.75    4.77
  -4  -4   7   52.07    4.73
   4   4  -7   40.02    8.67
  -4   4   7   59.01    9.65
  -4   4   7   54.57    8.71
  -4   4   7   62.84    5.58
  -3  -4   7  225.43   12.40
   3   4  -7  210.44   12.13
   3   4  -7  232.31   19.28
  -3   4   7  228.45   13.29
  -2  -4   7   18.39    3.31
   2   4  -7   28.13    4.09
   2   4  -7   21.06    3.25
   2   4  -7   28.96    7.73
  -2   4   7   11.19    7.08
   2  -4  -7    7.22    5.57
  -2   4   7   17.23    3.89
  -1   4   7  444.93   30.27
  -1   4   7  486.16   22.99
   1  -4  -7  409.18   28.23
   1   4  -7  455.62   22.43
   1   4  -7  393.49   21.28
  -1  -4   7  464.24   22.08
   0   4   7  190.52   16.84
   0   4   7  179.49   10.93
   0   4   7  184.99   11.07
   0  -4  -7  190.96   16.68
   0   4  -7  169.69   10.63
   1   4   7  217.07   18.15
   1   4   7  207.67   11.90
  -1  -4  -7  171.18   17.12
  -1   4  -7  215.41   11.89
   1   4   7  202.16   11.81
   2   4   7  417.23   28.15
   2   4   7  404.82   21.10
  -2  -4  -7  368.09   28.02
  -2   4  -7  448.17   21.31
   2   4   7  428.99   21.25
  -2   4  -7  399.36   20.84
  -3   4  -7   26.78    3.53
   3   4   7   16.63    5.91
  -3  -4  -7   13.63    6.24
   3   4   7   23.86    3.29
  -3   4  -7   31.00    4.40
  -3   4  -7   21.08    3.40
  -4   4  -7  318.73   16.69
  -4   4  -7  339.46   17.81
  -4   4  -7  321.51   16.93
  -4  -4  -7  331.25   16.84
  -5   4  -7   37.04    4.80
  -5  -4  -7   33.62    3.40
  -5   4  -7   27.59    3.82
  -5  -4  -7   27.85    3.59
  -6   4  -7  321.25   16.13
  -6  -4  -7  288.26   15.57
  -6   4  -7  328.74   17.03
  -6   4  -7  287.71   15.74
  -6  -4  -7  323.65   15.86
  -7  -4  -7  106.65    6.87
  -7   4  -7  114.12    7.34
  -7  -4  -7  113.66    7.10
  -7  -4  -7  115.14    6.92
  -7  -4  -7  123.00    7.22
  -8   4  -7   89.01    6.04
  -8  -4  -7   77.22    5.42
  -8  -4  -7   81.56    5.24
  -8  -4  -7   83.27    5.58
  -8  -4  -7   97.34    5.80
  -9  -4  -7  230.55   12.49
  -9   4  -7  246.17   12.89
  -9  -4  -7  253.92   12.61
  -9  -4  -7  262.40   12.68
 -10  -4  -7   20.94    2.38
 -10   4  -7   18.45    2.63
 -10  -4  -7   19.00    2.32
 -10  -4  -7   18.21    2.23
 -11   4  -7  101.77    5.55
 -11  -4  -7   97.65    5.37
 -11   4  -7   93.91    5.62
 -14   5   7    0.82    1.64
  14   5  -7    2.67    1.38
  13   5  -7   84.35    5.31
 -13   5   7   88.60    5.70
 -12   5   7   18.25    3.06
  12   5  -7   17.62    2.40
 -11   5   7   94.44    6.01
 -11   5   7  102.88    6.94
  11   5  -7   99.13    6.28
 -10   5   7   22.97    2.86
 -10   5   7   29.14    3.87
  10   5  -7   24.97    3.36
  10   5  -7   25.53    3.53
  -9  -5   7   51.18    4.58
  -9   5   7   51.46    4.99
  -9   5   7   55.97    4.54
   9   5  -7   50.25    4.80
   9   5  -7   52.55    4.67
  -8   5   7   68.41    5.93
  -8   5   7   76.29    5.77
  -8  -5   7   77.81    5.65
   8   5  -7   76.35    6.05
   8   5  -7   68.24    5.49
  -7   5   7   24.17    3.61
  -7   5   7   15.93    3.67
   7   5  -7   16.27    3.60
   7   5  -7   19.04    3.33
  -7  -5   7   18.60    3.12
  -6   5   7  116.69    8.27
  -6   5   7  129.63    8.31
   6   5  -7  127.71    8.24
   6   5  -7  111.95    7.45
  -6  -5   7  116.73    7.65
  -5   5   7   22.35    3.70
  -5  -5   7   16.06    2.99
   5   5  -7   13.66    2.97
  -4   5   7  310.36   15.99
  -4   5   7  292.69   15.98
   4   5  -7  265.81   14.52
  -4  -5   7  290.22   15.18
  -3   5   7    4.44    3.18
  -3   5   7    2.49    2.91
  -3  -5   7    3.45    2.45
   3   5  -7    3.77    2.26
   3   5  -7    7.45    3.19
  -2   5   7   44.73    4.91
  -2   5   7   50.35    5.10
   2   5  -7   43.35    4.70
  -2  -5   7   52.33    4.61
  -1   5   7   75.64    5.95
  -1   5   7   66.04    5.86
  -1  -5   7   79.32    5.51
   0   5   7   16.46    3.19
   0   5   7   12.54    2.86
   0  -5   7   12.99    2.68
   0   5  -7   10.32    3.12
  -1   5  -7   55.43    4.74
   1   5   7   53.95    4.87
   1  -5   7   59.06    4.72
   2   5   7  230.88   12.57
  -2   5  -7  227.47   12.42
   2  -5   7  238.75   12.55
  -2   5  -7  255.60   13.40
  -2  -5  -7  226.09   12.00
   3   5   7  211.40   11.15
   3  -5   7  192.61   11.13
  -3   5  -7  210.50   11.10
  -3   5  -7  212.67   12.06
  -3  -5  -7  213.46   10.90
   4  -5   7    1.98    1.85
  -4   5  -7    5.22    2.16
  -4  -5  -7    2.25    1.83
  -4  -5  -7    3.47    2.12
  -5   5  -7  291.01   14.68
  -5  -5  -7  279.46   14.35
  -5  -5  -7  308.54   14.83
  -6   5  -7  114.40    6.77
  -6  -5  -7  115.24    6.47
  -6  -5  -7  121.48    6.78
  -6  -5  -7  116.59    6.87
  -7   5  -7   48.91    3.81
  -7   5  -7   60.65    4.47
  -7  -5  -7   48.61    3.44
  -7  -5  -7   55.91    3.68
  -7  -5  -7   57.64    3.89
  -8   5  -7   50.97    3.45
  -8  -5  -7   50.76    3.06
  -8  -5  -7   42.26    2.99
  -9   5  -7   17.99    1.97
  10   6  -7    6.03    1.66
  10   6  -7    5.95    1.45
  -9   6   7    0.09    1.28
  -9   6   7    2.48    1.48
  -9   6   7   -0.31    1.58
   9   6  -7    3.15    1.78
   9   6  -7    3.60    1.63
  -8   6   7    7.13    1.78
  -8   6   7    9.21    2.09
  -8   6   7    6.20    1.96
   8   6  -7    6.74    2.20
  -7   6   7    5.35    2.00
  -7   6   7    6.29    2.04
   7   6  -7    8.20    2.50
  -7  -6   7    6.52    1.98
  -6   6   7    7.85    2.29
  -6   6   7    9.87    2.50
  -6   6   7    6.84    2.22
  -6  -6   7   11.08    2.10
  -5   6   7   79.47    5.73
  -5   6   7   79.80    5.30
  -5  -6   7   78.53    5.17
  -4   6   7   26.89    3.42
  -4   6   7   34.90    3.19
   4   6  -7   27.08    3.31
  -4  -6   7   29.68    3.03
  -3   6   7   44.65    3.70
   3   6  -7   46.30    3.91
  -3  -6   7   43.76    3.66
  -3   6   7   43.95    4.27
  -2   6   7   10.56    2.58
  -2  -6   7   17.43    2.45
  -2   6   7   17.00    2.66
   2   6  -7   16.12    2.66
  -1   6   7   25.40    3.02
  -1   6   7   21.37    2.83
  -1  -6   7   25.01    2.63
   1   6  -7   21.47    2.71
   0   6   7    8.09    2.09
   0   6   7    7.36    1.90
   0  -6   7    7.75    1.90
   1   6   7   34.82    3.16
   1  -6   7   39.18    3.11
  -1  -6  -7   41.69    3.09
   2  -6   7   16.06    1.94
  -2  -6  -7   18.39    2.16
  -3   6  -7   14.23    2.64
  -3  -6  -7   19.06    2.09
  -4   6  -7   14.21    2.30
  -4  -6  -7   15.26    1.87
  -4  -6  -7   14.86    1.79
  -5   6  -7   12.15    1.78
  -5  -6  -7   10.14    1.38
  -5  -6  -7    8.33    1.29
 -19   0   8  429.31   20.50
 -18   0   8    5.13    2.32
 -17   0   8  139.98    8.18
 -17   0   8  176.19    9.23
 -16   0   8    3.71    2.05
 -16   0   8    3.24    2.81
 -16   0   8    1.12    2.01
 -15   0   8  215.58   12.50
 -15   0   8  236.62   12.56
 -14   0   8   31.43    7.75
 -14   0   8   40.74    4.22
 -14   0   8   44.46    4.80
 -13   0   8  489.74   24.56
 -13   0   8  504.30   33.69
 -12   0   8  398.35   20.78
 -12   0   8  470.57   29.66
 -11   0   8   95.66    6.80
 -11   0   8   93.10   11.44
 -10   0   8  335.93   17.65
  10   0  -8  348.80   17.44
 -10   0   8  324.74   23.85
   9   0  -8    2.35    2.45
  -9   0   8    6.35    4.84
   8   0  -8  555.46   26.83
  -8   0   8  541.22   32.26
   7   0  -8  330.55   16.62
  -7   0   8  304.36   21.10
   6   0  -8  813.16   36.67
  -6   0   8  656.27   40.08
   5   0  -8  490.46   23.06
  -5   0   8  415.82   25.96
   4   0  -8  221.64   11.84
   4   0  -8  223.43   15.77
   3   0  -8  496.62   23.93
   3   0  -8  484.22   27.75
   2   0  -8  276.00   17.76
   1   0  -8 2594.81  116.99
   1   0  -8 2487.08  120.61
   0   0  -8  170.10   10.21
   0   0  -8  198.62   10.23
   0   0  -8  175.91   14.70
   0   0  -8  170.70   12.90
  -1   0  -8 1290.85   60.30
  -1   0  -8 1240.44   59.96
  -1   0  -8 1373.41   60.07
  -1   0  -8 1227.44   66.00
  -2   0  -8   22.91    3.11
  -2   0  -8   15.19    3.12
  -3   0  -8 1248.07   58.36
  -3   0  -8 1225.77   57.80
  -3   0  -8 1190.25   58.11
  -3   0  -8 1334.74   58.46
  -4   0  -8  161.08   10.09
  -4   0  -8  159.11    9.44
  -4   0  -8  167.49   10.16
  -4   0  -8  172.83   10.13
  -4   0  -8  161.65    9.68
  -5   0  -8 1098.34   51.58
  -5   0  -8 1135.08   52.10
  -5   0  -8 1110.06   52.06
  -5   0  -8 1063.28   51.65
  -6   0  -8 1421.90   65.80
  -6   0  -8 1479.73   65.82
  -6   0  -8 1395.81   65.35
  -6   0  -8 1349.80   64.70
  -6   0  -8 1410.98   65.50
  -7   0  -8    1.11    2.75
  -7   0  -8    1.93    2.57
  -7   0  -8    2.54    3.27
  -7   0  -8    4.65    3.23
  -7   0  -8    0.72    2.07
  -8   0  -8  528.28   26.01
  -8   0  -8  515.58   25.34
  -8   0  -8  490.67   24.69
  -8   0  -8  533.70   25.81
  -9   0  -8   60.48    5.59
  -9   0  -8   56.77    4.72
  -9   0  -8   48.61    4.10
  -9   0  -8   55.46    5.33
 -10   0  -8  139.65    8.84
 -10   0  -8  133.24    7.95
 -10   0  -8  126.53    8.35
 -10   0  -8  136.01    8.63
 -11   0  -8   61.98    5.09
 -11   0  -8   57.41    4.30
 -11   0  -8   53.81    4.60
 -11   0  -8   55.96    4.89
 -12   0  -8  356.29   17.88
 -12   0  -8  384.70   18.44
 -12   0  -8  392.19   18.65
 -13   0  -8  105.88    5.97
 -19   1   8   54.66    3.40
 -19  -1   8   48.72    3.31
 -18   1   8   58.91    4.10
 -18  -1   8   56.60    4.07
 -18   1   8   67.46    4.49
 -18  -1   8   64.66    4.52
 -17   1   8    2.23    1.96
 -17   1   8    3.84    2.34
 -17  -1   8    4.01    2.35
 -17  -1   8    1.37    2.04
 -16   1   8   86.96    6.14
 -16  -1   8   88.42    6.04
 -16   1   8   94.45    6.48
 -16  -1   8   99.18    6.53
 -15   1   8   89.68    6.45
 -15   1   8   80.59    6.47
 -15  -1   8   82.89    6.39
 -15   1   8   96.03    6.70
 -15  -1   8   97.36    6.67
 -14   1   8   94.35    6.89
 -14   1   8   89.71    6.95
 -14  -1   8   97.54    6.72
 -14   1   8   92.69    6.98
 -14  -1   8   92.66    6.95
 -13   1   8   26.92    7.81
 -13  -1   8   33.95    8.24
 -13   1   8   38.71    4.70
 -13  -1   8   39.37    4.41
 -13   1   8   43.18    4.66
  13   1  -8   38.91    4.09
 -13   1   8   41.30    4.75
 -13  -1   8   40.70    4.65
 -12   1   8  194.89   17.61
 -12  -1   8  164.05   16.98
 -12   1   8  176.25   11.10
 -12   1   8  194.51   11.21
  12   1  -8  208.06   10.87
 -12  -1   8  162.97   10.43
 -11   1   8  525.31   32.95
 -11  -1   8  488.00   33.20
 -11   1   8  502.84   25.74
 -11   1   8  507.27   25.73
  11   1  -8  557.02   25.50
 -11  -1   8  490.47   25.07
 -10   1   8   93.97    6.71
 -10   1   8   81.49    6.54
 -10  -1   8   87.37    6.02
  10   1  -8   92.10    6.54
 -10   1   8  110.30   11.84
 -10  -1   8   85.89   11.29
  -9   1   8  978.61   48.64
  -9   1   8  988.72   48.67
   9   1  -8 1118.23   48.73
  -9   1   8 1158.83   55.77
  -9  -1   8  966.93   55.58
   8  -1  -8   30.97    3.47
   8   1  -8   31.74    3.94
  -8   1   8   41.04    6.77
  -8  -1   8   41.36    7.14
   7   1  -8  419.94   20.42
   7   1  -8  366.25   19.94
   7  -1  -8  425.80   20.05
  -7   1   8  464.43   25.84
  -7  -1   8  375.62   24.76
   6   1  -8   50.72    4.31
   6  -1  -8   50.63    4.20
   6   1  -8   38.10    4.19
   6   1  -8   41.52    7.28
  -6   1   8   50.98    6.96
  -6  -1   8   36.48    6.11
   5   1  -8  850.05   39.79
   5  -1  -8  867.51   39.69
   5   1  -8  824.23   39.81
   5   1  -8  793.88   45.00
  -5   1   8  839.35   43.77
   4   1  -8  231.97   12.39
   4  -1  -8  230.02   12.04
   4   1  -8  202.44   16.15
  -4   1   8  224.34   15.13
   3  -1  -8  322.90   16.69
   3   1  -8  348.83   17.06
   3  -1  -8  328.39   19.60
   3   1  -8  330.32   21.64
   2  -1  -8  502.81   24.25
   2   1  -8  524.76   24.26
   2   1  -8  433.21   23.78
   2  -1  -8  540.00   24.08
   2   1  -8  420.36   26.53
   2  -1  -8  529.11   26.77
   2   1  -8  488.11   28.98
   1   1  -8  219.08   12.00
   1  -1  -8  236.56   12.51
   1   1  -8  240.01   12.38
   1  -1  -8  244.03   12.16
   1   1  -8  202.06   16.39
   1   1  -8  168.31   13.41
   1   1  -8  203.26   16.21
   1  -1  -8  250.06   17.08
   0  -1  -8  409.21   20.06
   0   1  -8  374.47   19.62
   0  -1  -8  429.86   19.70
   0   1  -8  396.86   19.46
   0   1  -8  429.07   25.66
   0  -1  -8  385.33   24.83
   0  -1  -8  346.98   19.35
  -1   1  -8   58.71    4.60
  -1  -1  -8   60.89    5.10
  -1   1  -8   75.86    9.49
  -1  -1  -8   59.40    8.56
  -1  -1  -8   55.48    4.75
  -1   1  -8   55.08    4.78
  -2  -1  -8 1070.67   49.92
  -2   1  -8 1146.26   50.36
  -2   1  -8 1078.67   49.75
  -2  -1  -8 1093.47   50.25
  -2   1  -8 1043.88   49.92
  -2   1  -8 1061.25   56.80
  -2  -1  -8 1088.82   56.59
  -2  -1  -8 1034.12   50.01
  -2   1  -8 1012.82   50.07
  -3   1  -8  507.07   22.47
  -3   1  -8  412.41   21.44
  -3  -1  -8  468.22   21.97
  -3  -1  -8  434.56   22.29
  -3   1  -8  425.80   22.01
  -3  -1  -8  449.78   22.14
  -3   1  -8  390.66   22.01
  -4   1  -8  637.00   30.75
  -4   1  -8  578.53   29.86
  -4  -1  -8  658.76   30.56
  -4  -1  -8  640.91   30.96
  -4   1  -8  625.95   30.65
  -4  -1  -8  668.44   30.78
  -4   1  -8  604.68   30.77
  -5   1  -8  469.16   24.36
  -5   1  -8  442.27   23.33
  -5   1  -8  496.80   23.90
  -5   1  -8  506.79   24.51
  -5  -1  -8  479.01   24.70
  -5  -1  -8  504.63   24.40
  -5   1  -8  487.65   24.54
  -5  -1  -8  503.66   24.24
  -6   1  -8  159.60    9.34
  -6  -1  -8  137.15    9.40
  -6  -1  -8  139.37    8.97
  -6   1  -8  128.29    8.36
  -6  -1  -8  144.88    8.50
  -6  -1  -8  128.27    8.76
  -7   1  -8  515.25   25.61
  -7  -1  -8  526.12   25.86
  -7  -1  -8  524.11   25.52
  -7   1  -8  485.44   24.75
  -7   1  -8  530.42   25.63
  -7  -1  -8  486.37   24.77
  -7  -1  -8  483.43   25.10
  -7   1  -8  512.49   25.62
  -8   1  -8   41.63    4.62
  -8  -1  -8   49.04    5.26
  -8  -1  -8   50.37    4.92
  -8   1  -8   45.10    4.14
  -8  -1  -8   49.57    4.34
  -8   1  -8   41.50    5.08
  -8   1  -8   49.21    5.11
  -8  -1  -8   36.42    4.57
  -9  -1  -8  562.02   26.88
  -9  -1  -8  534.33   26.26
  -9   1  -8  511.11   25.73
  -9  -1  -8  551.83   26.63
  -9   1  -8  549.34   26.49
  -9   1  -8  550.69   26.69
  -9  -1  -8  518.07   25.81
  -9  -1  -8  499.17   26.33
  -9   1  -8  569.13   26.83
 -10  -1  -8   54.89    4.42
 -10   1  -8   52.43    4.99
 -10  -1  -8   54.44    4.70
 -10   1  -8   45.66    4.54
 -10  -1  -8   49.53    4.10
 -10   1  -8   54.60    5.01
 -11   1  -8   81.60    5.85
 -11  -1  -8   75.62    5.27
 -11   1  -8   73.63    5.23
 -11  -1  -8   74.67    4.87
 -11   1  -8   80.74    5.86
 -12   1  -8   43.35    3.88
 -12  -1  -8   45.06    3.40
 -12   1  -8   34.44    3.23
 -12   1  -8   41.51    3.90
 -13  -1  -8   19.28    2.00
 -13   1  -8   24.81    2.61
 -18   2   8   -1.86    1.50
 -18   2   8    0.17    1.43
 -18  -2   8    0.11    1.51
 -17   2   8   62.63    5.15
 -17   2   8   77.94    5.02
 -17  -2   8   76.83    4.93
 -17   2   8   74.09    4.84
 -17  -2   8   72.11    4.75
 -16   2   8   -1.58    2.55
 -16  -2   8    2.84    2.29
 -16   2   8   -2.17    2.25
 -16  -2   8   -1.49    2.16
 -15   2   8  323.92   16.92
  15   2  -8  323.76   16.14
 -15   2   8  322.08   17.08
 -15  -2   8  311.83   16.20
 -15   2   8  333.01   16.49
 -15  -2   8  308.76   16.36
 -14   2   8    3.27    3.05
 -14  -2   8    3.14    2.52
 -14   2   8    3.34    2.95
  14   2  -8    6.74    2.58
 -14   2   8    0.66    2.54
 -14  -2   8    6.56    2.83
 -13   2   8  124.57    8.90
 -13   2   8  130.47    8.85
  13   2  -8  149.24    8.52
 -13  -2   8  116.25    7.93
 -13   2   8  132.48    8.39
 -13  -2   8  131.31    8.32
 -12   2   8    5.76    3.32
  12   2  -8    1.44    3.03
 -12   2   8    1.11    4.63
  12   2  -8    2.33    5.52
 -12   2   8    4.35    2.98
 -12  -2   8    3.17    2.88
 -11   2   8    5.00    3.13
  11   2  -8    3.50    3.12
  11   2  -8    2.37    5.39
 -11   2   8    4.36    5.17
 -11   2   8    2.87    2.05
 -10   2   8   53.56    5.25
  10   2  -8   52.08    5.14
  10   2  -8   45.71    8.62
 -10   2   8   39.10    6.64
 -10   2   8   50.21    8.84
 -10   2   8   43.84    4.23
  -9   2   8  193.63   11.31
   9   2  -8  174.46   10.63
   9   2  -8  205.17   11.37
   9   2  -8  209.79   17.64
  -9   2   8  175.59   16.06
  -9   2   8  177.82   15.07
   8   2  -8  313.93   16.92
  -8   2   8  332.11   17.41
   8   2  -8  321.15   17.16
   8   2  -8  326.37   23.79
  -8   2   8  380.93   23.62
   7   2  -8    5.18    2.80
  -7   2   8    6.14    2.61
   7   2  -8    3.69    2.91
   7   2  -8    2.05    4.67
  -7   2   8    5.99    4.36
   6  -2  -8  349.74   17.69
   6   2  -8  346.12   18.19
   6   2  -8  351.40   24.33
  -6   2   8  388.81   23.34
   5   2  -8  138.20    9.19
   5  -2  -8  160.71    8.84
  -5   2   8  165.52   12.92
   4   2  -8   98.53    6.99
   4  -2  -8  106.50    6.71
   4   2  -8  101.66    6.89
  -4   2   8  112.80   10.00
   3   2  -8   11.85    3.10
   3  -2  -8    7.48    2.55
   3   2  -8    6.24    2.80
   3   2  -8    8.08    4.52
   3   2  -8    2.89    4.99
  -3   2   8   10.03    3.89
   2   2  -8  238.23   12.84
   2  -2  -8  231.49   12.53
   2   2  -8  228.03   12.53
   2   2  -8  229.64   17.02
   2  -2  -8  272.05   17.49
   2   2  -8  228.28   16.83
   2   2  -8  230.99   18.36
   1  -2  -8  398.26   19.11
   1   2  -8  363.38   18.84
   1   2  -8  373.50   24.15
   1  -2  -8  384.69   23.77
   1   2  -8  356.86   22.95
   0  -2  -8   11.47    2.76
   0   2  -8   16.22    2.90
   0   2  -8   20.76    5.18
   0  -2  -8    9.43    4.18
   0   2  -8   15.83    4.29
  -1   2  -8  440.48   20.55
  -1   2  -8  367.31   19.66
  -1  -2  -8  416.07   20.19
  -1  -2  -8  413.42   20.00
  -1   2  -8  412.34   26.03
  -1  -2  -8  384.74   25.09
  -1   2  -8  372.03   20.22
  -2   2  -8   60.77    4.68
  -2   2  -8   65.70    5.40
  -2  -2  -8   63.09    4.91
  -2   2  -8   57.30    4.95
  -2  -2  -8   56.53    4.80
  -2   2  -8   67.67    5.63
   2   2   8   44.14    7.63
  -3   2  -8  195.84   11.22
   3   2   8  204.80   15.53
  -3   2  -8  177.33   10.84
  -3  -2  -8  184.05   10.85
  -3   2  -8  191.52   11.48
  -3  -2  -8  201.75   10.97
  -4   2  -8   -0.73    2.74
  -4   2  -8   -0.90    3.31
  -4  -2  -8    2.14    2.43
  -4  -2  -8    0.48    2.27
  -4   2  -8   -0.48    2.88
  -5   2  -8   25.63    3.79
  -5   2  -8   27.89    4.58
  -5  -2  -8   39.59    4.10
  -5  -2  -8   31.49    3.84
  -5   2  -8   25.56    3.15
  -5   2  -8   23.60    4.06
  -5  -2  -8   31.06    3.31
  -6   2  -8   38.94    4.30
  -6   2  -8   43.79    5.32
  -6   2  -8   44.05    4.88
  -6  -2  -8   49.33    4.73
  -6  -2  -8   38.54    4.34
  -6   2  -8   51.76    5.04
  -6   2  -8   39.27    3.76
  -6  -2  -8   46.29    4.47
  -6  -2  -8   41.24    3.95
  -7  -2  -8   21.70    3.42
  -7   2  -8   11.25    3.39
  -7  -2  -8   16.45    3.09
  -7   2  -8   15.12    2.34
  -7   2  -8   14.68    3.61
  -7  -2  -8   19.08    2.78
  -7  -2  -8   18.14    3.17
  -8   2  -8  158.45    9.66
  -8  -2  -8  146.22    9.12
  -8  -2  -8  155.11    9.48
  -8   2  -8  154.50    9.40
  -8  -2  -8  160.88    9.16
  -8  -2  -8  145.45    8.62
  -9  -2  -8    3.17    2.38
  -9   2  -8    5.13    2.47
  -9  -2  -8    2.69    2.24
  -9   2  -8    4.60    2.84
  -9   2  -8    4.95    3.04
  -9  -2  -8    1.12    1.75
  -9  -2  -8    3.15    2.17
 -10  -2  -8  109.60    6.91
 -10  -2  -8  107.60    7.14
 -10   2  -8  107.38    6.75
 -10   2  -8  115.74    7.39
 -10  -2  -8  104.78    6.64
 -10   2  -8  123.39    7.55
 -11  -2  -8   30.20    3.31
 -11   2  -8   27.88    2.81
 -11  -2  -8   32.68    2.97
 -11   2  -8   31.99    3.43
 -11   2  -8   36.16    3.62
 -12   2  -8   51.32    3.88
 -12  -2  -8   44.67    3.23
 -12   2  -8   48.95    3.88
 -18   3   8    0.41    0.98
 -18  -3   8   -0.19    1.02
 -17   3   8   28.76    3.16
 -17   3   8   30.78    2.79
 -17  -3   8   36.33    2.77
 -16   3   8    0.96    2.26
  16   3  -8    1.73    1.76
 -16   3   8    4.04    1.97
 -16  -3   8    1.98    1.84
 -15   3   8    3.34    2.74
  15   3  -8   -0.15    2.33
 -15   3   8    3.69    2.12
 -14   3   8    3.90    3.03
  14   3  -8    0.38    2.50
 -13   3   8   -0.62    3.14
 -13   3   8    1.12    2.72
  13   3  -8    5.31    2.86
 -12   3   8    6.29    2.09
 -12   3   8    9.40    3.50
 -12   3   8   11.46    3.59
  12   3  -8   12.22    3.33
 -12  -3   8   10.68    2.28
 -11   3   8   30.86    7.64
 -11   3   8   27.79    3.43
 -11   3   8   34.16    4.69
 -11   3   8   34.22    4.54
  11   3  -8   24.90    3.59
  11   3  -8   35.19    4.39
 -11  -3   8   25.58    3.23
 -10   3   8   63.74    6.26
 -10   3   8   78.29    6.38
  10   3  -8   82.88    5.91
  10   3  -8   73.32    6.18
 -10   3   8   68.42   10.31
 -10   3   8   63.56    5.47
  10   3  -8   64.88   10.76
 -10  -3   8   62.85    5.10
  -9   3   8    5.51    3.20
   9   3  -8    3.21    2.94
   9   3  -8    4.05    3.32
   9   3  -8    1.22    6.11
  -9   3   8   10.13    4.20
  -9   3   8    7.55    5.31
  -9   3   8    8.50    2.59
   8   3  -8   88.96    7.10
  -8   3   8  101.35    7.42
  -8  -3   8   96.63    6.77
   8   3  -8   83.11   11.58
  -8   3   8  126.26   12.54
  -8   3   8   96.76   11.19
  -8   3   8   99.63    7.10
  -7   3   8   10.76    3.18
   7   3  -8   13.21    3.45
  -7  -3   8    9.33    2.55
   7   3  -8    5.95    5.66
  -7   3   8    7.10    4.92
  -7   3   8   13.31    5.53
  -7   3   8    9.26    2.86
  -6   3   8   40.95    4.46
   6   3  -8   38.44    4.61
  -6  -3   8   36.12    3.68
   6   3  -8   29.45    4.15
   6   3  -8   49.35    9.02
  -6   3   8   30.33    7.39
  -6   3   8   40.35    7.16
  -5   3   8  202.58   11.75
   5   3  -8  213.85   12.08
   5   3  -8  209.87   11.64
  -5  -3   8  189.94   11.09
   5   3  -8  195.43   17.61
   5   3  -8  246.18   19.26
  -5   3   8  171.32   16.70
  -5   3   8  241.66   17.05
  -4   3   8   59.17    5.21
   4   3  -8   65.07    5.63
   4   3  -8   59.22    5.26
   4   3  -8   52.13    9.31
   4   3  -8   82.84   10.77
  -4   3   8   59.65    8.42
   3   3  -8    4.90    3.21
   3   3  -8    7.29    2.75
   3   3  -8   16.29    5.45
  -3   3   8   17.05    6.17
  -3   3   8   13.12    4.72
   2   3  -8  105.08    6.93
   2   3  -8   96.77   11.31
  -2   3   8  121.06   12.95
   1   3  -8   29.01    3.55
   1   3  -8   30.82    6.51
  -1   3   8   30.94    7.06
   0   3  -8    0.51    2.92
   0   3  -8    2.03    2.25
   0   3   8   -1.04    4.51
  -1   3  -8    2.54    2.77
  -1  -3  -8   -2.17    2.22
   1   3   8    3.02    4.29
  -2   3  -8    2.99    2.83
   2   3   8    1.95    4.25
  -2   3  -8    3.17    3.10
  -2  -3  -8    3.28    2.27
  -3   3  -8   23.23    3.71
   3   3   8   23.11    5.36
  -3  -3  -8   13.51    3.11
  -3   3  -8   19.09    3.97
  -3  -3  -8   20.13    2.99
  -3   3  -8   18.58    3.40
  -4   3  -8    2.29    2.90
  -4  -3  -8    1.38    2.46
  -4   3  -8    2.18    3.47
  -4  -3  -8   -0.22    2.25
  -4   3  -8    4.36    2.83
  -5   3  -8    1.69    2.52
  -5  -3  -8    5.56    2.76
  -5   3  -8   -1.60    3.45
  -5  -3  -8    3.46    2.39
  -5  -3  -8    8.21    2.83
  -5   3  -8    4.43    2.87
  -5  -3  -8    8.55    2.36
  -6   3  -8    0.18    2.34
  -6   3  -8    0.31    3.45
  -6   3  -8   -0.25    2.75
  -6  -3  -8    0.85    2.16
  -6  -3  -8    1.60    2.52
  -6   3  -8    3.00    2.67
  -6  -3  -8    0.90    1.76
  -6  -3  -8    1.79    2.11
  -6  -3  -8   -0.22    2.37
  -7   3  -8    1.12    3.06
  -7   3  -8   -1.10    2.49
  -7  -3  -8   -3.24    2.30
  -7  -3  -8    2.40    2.32
  -7   3  -8   -0.22    2.77
  -7  -3  -8    0.56    2.08
  -7  -3  -8    0.82    2.31
  -8  -3  -8   46.17    4.07
  -8   3  -8   42.94    4.36
  -8  -3  -8   44.07    4.24
  -8   3  -8   43.76    3.99
  -8  -3  -8   47.04    4.10
  -8  -3  -8   42.37    3.72
  -9  -3  -8   14.39    2.53
  -9   3  -8   15.40    2.97
  -9   3  -8   19.84    3.30
  -9  -3  -8   11.67    2.19
 -10  -3  -8    1.38    1.61
 -10   3  -8    0.60    1.99
 -10   3  -8    3.86    2.32
 -11  -3  -8   40.45    3.00
 -11   3  -8   32.98    3.19
 -11   3  -8   39.76    3.39
 -16   4   8    0.57    1.06
 -16  -4   8    4.24    1.19
  15   4  -8   18.64    2.30
 -15   4   8   17.90    2.14
 -15  -4   8   18.47    2.19
  14   4  -8   11.44    2.47
 -14   4   8   10.70    2.12
 -13   4   8   20.53    3.53
  13   4  -8   23.06    3.28
 -13   4   8   23.72    2.85
 -12   4   8   41.60    4.78
 -12   4   8   48.25    4.65
  12   4  -8   46.10    3.96
  12   4  -8   50.63    4.54
 -11   4   8   55.27    4.51
 -11   4   8   61.40    5.66
 -11   4   8   52.72    5.16
  11   4  -8   61.21    4.97
  11   4  -8   65.91    5.38
 -10   4   8   48.32    5.18
 -10   4   8   50.55    4.99
  10   4  -8   52.96    4.82
 -10   4   8   48.29    4.50
 -10   4   8   50.03    4.54
  -9   4   8    9.26    3.43
  -9   4   8   13.07    3.24
   9   4  -8   13.41    3.46
  -9  -4   8   10.90    2.74
  -9   4   8   12.27    3.05
  -9   4   8    9.82    2.86
  -8   4   8   31.47    4.59
  -8   4   8   29.37    4.04
   8   4  -8   24.07    4.07
   8   4  -8   26.00    3.99
  -8  -4   8   21.71    3.55
  -8   4   8   23.35    3.85
  -8   4   8   30.40    3.81
  -7   4   8    3.30    2.88
   7   4  -8    0.27    3.16
   7   4  -8   -0.24    2.99
  -7  -4   8    0.47    2.19
   7   4  -8   -2.50    5.69
  -7   4   8    0.99    4.86
  -7   4   8   -0.59    2.58
   6   4  -8    3.60    3.02
  -6   4   8    1.85    2.64
   6   4  -8    3.05    2.85
  -6  -4   8    0.69    2.18
   6   4  -8   12.35    6.29
  -6   4   8   -1.12    4.78
  -6   4   8    7.72    4.30
  -5   4   8   46.54    4.61
   5   4  -8   42.74    5.07
   5   4  -8   49.69    4.60
  -5  -4   8   50.72    4.43
   5   4  -8   62.85    9.49
  -5   4   8   35.44    8.03
  -5   4   8   33.79    7.28
  -5   4   8   44.66    4.87
  -4  -4   8   -0.22    2.18
  -4   4   8    2.14    2.56
   4   4  -8    2.19    3.07
   4   4  -8    2.58    2.70
   4   4  -8    2.36    5.49
  -4   4   8    3.67    4.08
  -4   4   8    0.32    2.81
  -3  -4   8    4.88    2.30
   3   4  -8    6.08    2.69
   3   4  -8    1.15    5.25
  -3   4   8    1.27    5.16
  -3   4   8    3.55    4.52
  -3   4   8    6.06    2.88
  -2  -4   8    7.43    2.30
   2   4  -8   12.77    3.50
   2   4  -8    5.45    2.60
  -2   4   8   13.57    6.08
  -2   4   8   10.55    3.34
   1   4  -8    5.99    3.01
   1   4  -8    3.38    2.16
  -1   4   8    1.18    4.78
  -1   4   8    4.53    2.96
   0   4  -8   53.65    5.06
   0   4   8   47.04    8.39
   0   4   8   50.81    4.96
   0   4   8   54.78    5.13
  -1   4  -8  203.43   11.50
   1   4   8  184.49   11.36
   1   4   8  208.88   11.59
  -2   4  -8   11.59    3.09
   2   4   8   12.59    2.68
   2   4   8   16.97    2.81
  -2   4  -8   15.59    3.62
  -3   4  -8  197.12   10.99
  -3   4  -8  185.20   10.75
  -3   4  -8  197.89   11.77
  -3  -4  -8  197.53   10.89
  -4   4  -8   46.86    4.25
  -4   4  -8   39.78    4.99
  -4   4  -8   46.89    4.35
  -4  -4  -8   51.90    4.33
  -5   4  -8   37.84    4.70
  -5   4  -8   38.13    3.85
  -5  -4  -8   31.19    3.29
  -5  -4  -8   38.84    3.78
  -5  -4  -8   40.03    3.72
  -6   4  -8   59.63    4.69
  -6   4  -8   63.64    5.58
  -6  -4  -8   54.17    4.33
  -6   4  -8   63.63    4.87
  -6  -4  -8   64.21    4.66
  -6  -4  -8   63.05    4.40
  -6  -4  -8   69.61    4.77
  -7   4  -8   38.22    4.09
  -7  -4  -8   31.72    3.00
  -7   4  -8   36.30    3.56
  -7  -4  -8   36.16    3.32
  -7  -4  -8   34.54    3.30
  -8   4  -8   34.73    3.32
  -8  -4  -8   28.77    2.79
  -8  -4  -8   33.45    2.97
  -8  -4  -8   38.52    3.04
  -9  -4  -8   -0.58    1.40
  -9   4  -8   -0.95    1.60
  -9   4  -8   -0.13    2.01
  -9  -4  -8    2.20    1.46
  -9  -4  -8    1.98    1.35
 -10  -4  -8    3.40    1.12
 -13   5   8   13.95    2.24
  13   5  -8   15.25    2.06
  12   5  -8   50.14    3.38
 -12   5   8   49.50    4.23
 -11   5   8   65.59    4.52
 -11   5   8   69.40    5.28
  11   5  -8   68.93    4.65
  11   5  -8   68.92    4.88
 -10   5   8   41.38    4.24
  10   5  -8   35.05    3.68
  10   5  -8   40.85    3.85
 -10   5   8   39.23    3.36
  -9   5   8  202.55   11.17
  -9   5   8  188.14   10.51
   9   5  -8  205.99   10.79
   9   5  -8  174.52   10.38
  -8   5   8    9.86    2.45
  -8   5   8    5.30    2.93
   8   5  -8    5.55    2.83
   8   5  -8    7.53    2.60
  -8  -5   8    7.75    2.35
  -7   5   8  216.26   12.02
   7   5  -8  210.58   11.73
  -7  -5   8  203.09   11.31
   7   5  -8  186.64   11.06
  -7   5   8  227.22   11.85
  -6   5   8   16.47    3.48
   6   5  -8    8.37    3.20
   6   5  -8    9.32    2.67
  -6  -5   8   10.93    2.57
  -5   5   8  169.29    9.86
   5   5  -8  156.81    9.60
  -5   5   8  161.62    9.90
   5   5  -8  140.13    8.71
  -5  -5   8  165.73    9.15
  -4   5   8   91.77    6.85
  -4  -5   8   95.04    6.21
  -4   5   8   81.59    6.76
  -3   5   8  236.55   13.60
   3   5  -8  236.76   13.17
  -3   5   8  241.33   13.67
  -3  -5   8  249.55   12.83
  -2   5   8   76.34    6.15
   2   5  -8   76.85    5.87
  -2   5   8   71.84    5.99
  -2  -5   8   76.50    5.32
  -1   5   8   51.95    4.71
  -1   5   8   52.04    4.75
   1   5  -8   47.06    4.52
  -1  -5   8   46.60    4.02
   0   5   8   92.31    6.34
   0   5  -8   91.58    6.29
   0   5   8   89.77    6.30
   0  -5   8  100.68    5.95
   0  -5  -8   85.91    5.54
  -1   5  -8   12.15    2.67
   1   5   8    7.11    2.36
  -1   5  -8   15.04    3.30
  -1  -5  -8    9.19    2.02
   2   5   8  158.14    9.12
  -2   5  -8  166.72    9.22
  -2   5  -8  191.38   10.23
  -2  -5  -8  164.91    8.89
  -3   5  -8    3.55    2.60
  -3  -5  -8    0.71    1.65
  -3  -5  -8    1.41    1.94
  -4   5  -8  125.06    7.88
  -4  -5  -8  124.03    6.76
  -5   5  -8  155.00    8.87
  -5  -5  -8  146.06    7.77
  -5  -5  -8  154.25    8.00
  -6  -5  -8   16.99    1.81
  -6  -5  -8   14.24    1.75
   9   6  -8   14.45    1.78
  -9   6   8   12.50    1.57
  -8   6   8  240.98   12.07
   8   6  -8  249.09   12.24
  -8   6   8  232.83   12.00
  -8   6   8  262.83   12.33
  -7   6   8    3.93    1.79
   7   6  -8    5.88    1.97
  -7   6   8    2.37    1.65
  -6   6   8  213.30   10.82
  -6  -6   8  208.15   10.61
  -6   6   8  213.74   11.18
  -5   6   8   30.18    2.91
  -5  -6   8   30.35    2.71
  -5   6   8   25.60    3.07
  -5   6   8   31.12    3.21
  -4   6   8  164.89    9.16
   4   6  -8  172.40    9.32
  -4   6   8  160.64    9.52
  -4   6   8  164.03    9.57
  -3   6   8  209.86   10.05
  -3  -6   8  203.37    9.75
   3   6  -8  170.11    9.89
  -3   6   8  192.43   10.34
  -3   6   8  177.00   10.29
  -2   6   8  117.55    6.28
   2   6  -8   97.19    6.20
  -2   6   8   89.00    6.39
  -2  -6   8  126.65    6.11
   2   6  -8  124.78    6.77
  -2   6   8   89.73    6.33
   1   6  -8  240.41   13.41
  -1   6   8  290.76   13.89
  -1  -6   8  268.00   13.25
  -1   6   8  292.01   13.71
   1   6  -8  321.76   14.18
   0   6   8   -0.32    1.43
   0   6  -8   -0.43    2.06
   0  -6  -8    1.18    1.41
  -1   6  -8  281.69   13.96
  -1  -6  -8  276.37   13.45
  -2  -6  -8   38.62    2.75
  -3  -6  -8  137.44    7.12
  -3  -6  -8  148.77    7.21
 -19   0   9   -0.93    1.44
 -18   0   9   -1.51    1.91
 -17   0   9    4.58    2.39
 -16   0   9   -0.15    1.89
 -16   0   9    0.42    2.66
 -15   0   9    0.48    2.75
 -15   0   9   -2.94    2.05
 -14   0   9   -0.64    2.33
 -14   0   9   -0.26    2.92
 -13   0   9    2.87    2.51
 -13   0   9    1.16    5.06
 -12   0   9    0.25    2.33
 -12   0   9   -3.41    5.49
 -11   0   9    2.48    2.36
  11   0  -9   -1.40    2.40
 -11   0   9   -1.09    5.45
 -10   0   9   -0.73    2.68
  10   0  -9    2.75    2.64
 -10   0   9    3.07    5.21
   9   0  -9   -0.44    2.38
  -9   0   9    1.90    4.67
   8   0  -9    3.05    2.59
  -8   0   9    0.87    3.88
   7   0  -9    0.21    2.51
  -7   0   9   -0.76    4.16
   6   0  -9   -0.63    2.58
   6   0  -9    2.46    3.73
   5   0  -9   -2.23    2.65
   5   0  -9    0.63    2.41
   5   0  -9   -6.27    4.37
   4   0  -9   -0.63    2.51
   4   0  -9    3.32    2.32
   4   0  -9    0.75    3.93
   3   0  -9   -0.86    2.55
   3   0  -9   -1.04    2.30
   3   0  -9    0.73    3.58
   2   0  -9   -2.00    2.56
   2   0  -9   -2.81    4.24
   1   0  -9   -0.92    2.71
   1   0  -9    5.93    3.57
   0   0  -9   -0.24    2.69
   0   0  -9    0.85    2.46
  -1   0  -9    2.28    2.67
  -1   0  -9    0.21    2.35
  -1   0  -9    0.62    2.53
  -2   0  -9   -1.07    2.74
  -2   0  -9    3.84    2.74
  -2   0  -9    0.23    2.78
  -3   0  -9   -1.06    2.48
  -3   0  -9   -1.90    2.84
  -3   0  -9    3.75    3.04
  -4   0  -9   -0.42    2.25
  -4   0  -9    1.70    2.47
  -4   0  -9   -3.07    3.01
  -4   0  -9    0.27    2.97
  -5   0  -9    2.52    2.97
  -5   0  -9    1.97    2.44
  -5   0  -9    0.28    3.26
  -5   0  -9   -0.45    2.66
  -5   0  -9   -1.09    2.01
  -6   0  -9    3.31    2.71
  -6   0  -9   -1.46    2.69
  -6   0  -9    1.39    3.25
  -6   0  -9    0.23    2.64
  -6   0  -9   -0.70    2.06
  -7   0  -9    0.26    2.66
  -7   0  -9    1.83    2.30
  -7   0  -9   -2.44    3.13
  -7   0  -9    0.23    2.93
  -7   0  -9    1.73    1.93
  -8   0  -9   -2.45    2.52
  -8   0  -9   -0.62    2.30
  -8   0  -9    2.04    3.00
  -8   0  -9   -0.66    2.69
  -9   0  -9   -0.89    1.87
  -9   0  -9    3.00    2.93
  -9   0  -9    2.00    2.64
 -10   0  -9   -1.58    1.85
 -10   0  -9   -2.89    2.39
 -11   0  -9    1.72    1.89
 -11   0  -9   -1.33    1.49
 -12   0  -9   -1.42    1.33
 -19   1   9   18.39    1.95
 -19  -1   9   23.66    2.02
 -18   1   9    2.82    1.38
 -18   1   9    4.55    1.88
 -18  -1   9    3.74    1.81
 -18  -1   9    3.46    1.46
 -17   1   9    4.12    1.88
 -17   1   9   -1.11    2.12
 -17  -1   9    1.44    2.05
 -17  -1   9    6.46    1.89
 -16  -1   9  114.83    6.93
 -16   1   9  118.62    7.35
 -16  -1   9  115.81    7.33
 -15   1   9   -0.44    2.23
 -15   1   9    0.22    2.51
 -15  -1   9   -1.36    2.65
 -14   1   9    3.77    2.61
 -14   1   9    3.57    2.71
  14   1  -9    5.23    2.38
 -14   1   9    8.17    3.12
 -14  -1   9    6.74    2.95
 -13   1   9   35.63    4.20
 -13   1   9   37.53    4.33
  13   1  -9   35.44    3.84
 -13   1   9   30.54    4.32
 -12   1   9    8.94    3.07
 -12   1   9    5.35    2.88
  12   1  -9    1.53    2.83
  12   1  -9   13.10    6.46
 -12   1   9    7.84    5.61
 -12  -1   9    9.19    5.23
 -11   1   9   38.37    4.38
 -11  -1   9   36.09    3.84
 -11   1   9   36.76    4.52
  11   1  -9   49.19    4.58
  11   1  -9   43.09    8.70
 -11   1   9   45.07    8.65
 -11  -1   9   40.37    8.33
 -10   1   9  175.74   10.54
 -10   1   9  179.73   10.78
 -10  -1   9  173.21   10.08
  10   1  -9  190.26   10.67
  10   1  -9  162.44   16.13
 -10   1   9  195.11   16.81
 -10  -1   9  139.63   15.49
  -9   1   9    1.53    2.63
  -9   1   9    3.47    2.76
   9  -1  -9   -1.14    2.41
   9   1  -9   -0.24    2.87
  -9   1   9   -0.93    4.32
  -9  -1   9   -0.97    4.68
   8  -1  -9  248.17   13.42
   8   1  -9  255.06   13.84
  -8   1   9  253.22   18.78
   7   1  -9   19.53    3.30
   7  -1  -9   29.04    3.55
   7   1  -9   24.20    3.75
   7   1  -9   26.26    6.91
  -7   1   9   27.44    6.02
   6   1  -9   44.04    4.70
   6  -1  -9   63.68    4.96
   6   1  -9   55.76    5.01
   6   1  -9   70.37    9.23
  -6   1   9   59.54    7.49
   5   1  -9  276.72   15.04
   5  -1  -9  300.64   14.93
   5   1  -9  278.51   15.01
   5  -1  -9  272.05   18.75
   5   1  -9  258.58   19.87
   4  -1  -9    5.15    2.89
   4   1  -9   11.98    3.29
   4  -1  -9    7.54    2.87
   4  -1  -9    4.45    3.56
   4   1  -9    1.81    4.21
   3  -1  -9  736.56   35.26
   3   1  -9  766.60   35.30
   3  -1  -9  740.40   34.99
   3  -1  -9  703.90   38.22
   3   1  -9  642.08   40.23
   2  -1  -9    0.24    3.00
   2   1  -9   -0.93    2.80
   2  -1  -9   -1.26    2.54
   2   1  -9    0.43    2.70
   2  -1  -9    2.74    4.16
   2   1  -9   -1.74    4.28
   2   1  -9   -0.94    4.46
   1  -1  -9  371.69   19.19
   1   1  -9  383.61   19.15
   1  -1  -9  368.76   18.78
   1   1  -9  344.80   18.58
   1   1  -9  376.10   24.97
   1  -1  -9  406.94   25.35
   0   1  -9  376.40   18.25
   0   1  -9  361.93   17.68
   0   1  -9  310.18   23.26
   0  -1  -9  309.48   17.46
   0  -1  -9  346.56   24.00
  -1   1  -9   15.50    2.86
  -1  -1  -9   13.26    3.00
  -1   1  -9   17.65    6.22
  -2   1  -9  586.52   28.96
  -2   1  -9  585.66   28.40
  -2  -1  -9  611.26   28.75
  -2   1  -9  588.03   36.25
  -2  -1  -9  621.64   28.84
  -2   1  -9  532.29   28.54
  -2   1  -9  581.65   28.53
  -3   1  -9    4.54    3.25
  -3  -1  -9   -0.23    2.78
  -3   1  -9    3.32    2.27
  -3   1  -9    5.48    2.96
  -3  -1  -9    2.17    2.50
  -3  -1  -9    5.45    2.82
  -3  -1  -9    3.21    3.18
  -3   1  -9    2.89    2.71
  -4   1  -9  127.89    8.63
  -4   1  -9  112.17    7.58
  -4  -1  -9  124.77    8.77
  -4  -1  -9  135.70    8.49
  -4   1  -9  140.34    8.91
  -4  -1  -9  133.23    8.32
  -4   1  -9  124.89    8.45
  -5   1  -9   74.10    6.07
  -5   1  -9   57.26    5.10
  -5  -1  -9   62.96    6.09
  -5  -1  -9   71.98    5.76
  -5  -1  -9   62.46    5.53
  -5   1  -9   63.25    5.91
  -5   1  -9   66.32    5.92
  -6  -1  -9  122.40    8.51
  -6  -1  -9  127.01    8.06
  -6   1  -9  114.90    8.15
  -6  -1  -9  114.77    7.86
  -6   1  -9  114.91    7.46
  -6  -1  -9  113.88    7.38
  -6   1  -9  121.60    8.19
  -7  -1  -9   10.75    3.10
  -7   1  -9    7.38    2.46
  -7   1  -9    6.11    3.13
  -7   1  -9    7.69    3.19
  -7  -1  -9    8.71    2.60
  -8   1  -9  147.10    9.05
  -8  -1  -9  146.62    8.77
  -8   1  -9  133.80    7.98
  -8   1  -9  136.21    8.73
  -8  -1  -9  141.32    8.05
  -8  -1  -9  118.47    8.29
  -8   1  -9  153.20    8.95
  -9   1  -9  213.67   11.64
  -9   1  -9  190.78   10.59
  -9  -1  -9  213.01   11.20
  -9  -1  -9  212.54   11.50
  -9   1  -9  214.61   11.42
  -9  -1  -9  195.04   10.67
  -9   1  -9  200.31   11.40
 -10  -1  -9   19.21    2.83
 -10   1  -9   16.97    2.66
 -10  -1  -9   14.52    2.44
 -10   1  -9   14.82    3.08
 -10   1  -9   12.92    2.82
 -11   1  -9   73.75    5.09
 -11  -1  -9   70.79    4.67
 -11  -1  -9   76.08    4.98
 -11   1  -9   70.25    4.74
 -11   1  -9   80.06    5.10
 -12  -1  -9    0.85    1.08
 -18   2   9   70.57    4.11
 -18  -2   9   64.79    3.98
 -17   2   9    0.91    1.68
 -17   2   9    1.96    1.66
 -17  -2   9    0.84    1.70
 -17  -2   9    3.22    1.77
 -16   2   9  135.29    8.13
 -16   2   9  139.57    7.93
 -16   2   9  125.79    7.59
 -16  -2   9  141.23    7.71
 -15   2   9   33.29    4.05
 -15   2   9   35.02    3.98
  15   2  -9   41.65    3.61
 -15  -2   9   34.54    3.65
 -15   2   9   38.26    3.71
 -14   2   9   25.53    3.94
 -14   2   9   29.78    3.93
  14   2  -9   29.49    3.60
 -14   2   9   30.19    3.58
 -14  -2   9   27.38    3.56
 -13   2   9   74.14    6.36
 -13   2   9   79.56    6.45
  13   2  -9   82.69    6.04
 -13   2   9   83.23    6.01
 -13  -2   9   72.04    5.80
 -12   2   9    2.41    3.11
  12   2  -9    1.43    2.94
 -12   2   9    1.88    2.71
 -11   2   9   76.09    6.36
  11   2  -9   81.13    6.21
  11   2  -9   81.46   11.61
 -11   2   9   64.70    5.33
 -10   2   9   39.39    4.66
 -10   2   9   34.75    4.54
  10   2  -9   34.89    4.42
  10   2  -9   26.48    7.41
 -10   2   9   22.07    6.25
 -10   2   9   46.62    8.37
  -9   2   9  493.04   24.48
   9   2  -9  467.43   23.76
   9   2  -9  508.58   24.40
   9   2  -9  495.24   32.12
  -9   2   9  441.64   30.05
  -9   2   9  420.81   29.49
  -8   2   9   43.44    5.06
   8   2  -9   56.86    4.98
   8   2  -9   59.33    5.43
   8   2  -9   51.59    9.15
  -8   2   9   46.00    8.51
   7   2  -9  863.62   41.00
   7   2  -9  858.11   41.05
  -7   2   9  840.44   47.09
   6   2  -9  625.99   31.22
   6  -2  -9  655.33   30.83
  -6   2   9  617.97   36.29
   5   2  -9  378.15   20.84
   5  -2  -9  436.37   20.67
   5   2  -9  423.72   28.10
   4   2  -9 1452.38   68.60
   4  -2  -9 1591.19   68.42
   4   2  -9 1442.59   68.42
   4   2  -9 1318.07   73.75
   4   2  -9 1415.01   75.88
   3   2  -9   30.34    4.37
   3  -2  -9   15.26    3.43
   3   2  -9   22.27    3.69
   3   2  -9   10.13    5.39
   3  -2  -9   -0.85    5.12
   3   2  -9   23.64    5.71
   3   2  -9    7.42    5.44
   2   2  -9 1328.14   60.63
   2  -2  -9 1310.47   60.27
   2   2  -9 1245.29   60.14
   2   2  -9 1362.76   67.35
   2  -2  -9 1548.49   67.73
   2   2  -9 1114.44   64.30
   1   2  -9  309.94   16.38
   1  -2  -9  310.48   15.99
   1   2  -9  315.59   15.93
   1   2  -9  279.77   21.41
   1  -2  -9  316.78   21.50
   1   2  -9  281.98   15.94
   0  -2  -9  368.52   17.96
   0   2  -9  338.14   17.58
   0   2  -9  357.67   24.42
   0  -2  -9  319.64   22.95
   0   2  -9  333.14   17.94
  -1   2  -9  219.27   12.42
  -1   2  -9  205.40   11.60
  -1  -2  -9  217.25   11.89
  -1   2  -9  230.77   18.04
  -1   2  -9  216.43   12.33
   1   2   9  187.33   16.71
  -2   2  -9  221.82   12.44
  -2   2  -9  206.91   11.48
  -2  -2  -9  211.78   11.84
  -2   2  -9  203.00   12.37
  -2  -2  -9  233.58   12.11
   2   2   9  189.79   16.54
  -3   2  -9  187.75   10.95
  -3   2  -9  221.80   12.25
  -3   2  -9  204.19   11.85
  -3  -2  -9  218.54   11.79
  -3  -2  -9  211.55   11.83
  -3   2  -9  219.19   12.46
  -4   2  -9   11.45    3.35
  -4   2  -9    5.85    3.40
  -4   2  -9    9.99    2.52
  -4  -2  -9    7.28    2.68
  -4  -2  -9    9.75    2.81
  -4   2  -9   10.28    3.22
  -4  -2  -9    6.63    2.08
  -5   2  -9  533.18   26.24
  -5   2  -9  539.59   26.34
  -5  -2  -9  527.58   26.12
  -5  -2  -9  554.50   26.22
  -5   2  -9  531.72   26.67
  -5   2  -9  560.21   26.73
  -5   2  -9  499.75   25.50
  -5  -2  -9  566.95   26.07
  -5  -2  -9  482.37   25.32
  -6   2  -9  106.93    7.44
  -6  -2  -9  122.49    7.45
  -6  -2  -9  110.62    7.23
  -6   2  -9  105.60    6.57
  -6   2  -9  108.43    7.58
  -6  -2  -9  103.49    7.05
  -6  -2  -9   98.20    6.49
  -7   2  -9  415.25   20.15
  -7  -2  -9  397.49   19.97
  -7  -2  -9  384.90   19.84
  -7   2  -9  382.86   20.12
  -7  -2  -9  388.96   19.70
  -8  -2  -9  100.73    6.58
  -8  -2  -9  100.12    6.67
  -8   2  -9   99.33    6.68
  -8   2  -9   94.86    6.80
  -8  -2  -9  100.11    6.36
  -8   2  -9  103.50    7.02
  -9  -2  -9  169.08    9.57
  -9  -2  -9  163.39    9.69
  -9   2  -9  168.57    9.80
  -9   2  -9  177.86    9.61
  -9  -2  -9  179.03    9.36
  -9   2  -9  180.74   10.01
 -10  -2  -9  144.42    7.93
 -10   2  -9  140.51    8.11
 -10  -2  -9  143.97    8.09
 -10   2  -9  130.46    7.69
 -10  -2  -9  146.42    7.68
 -10   2  -9  149.98    8.22
 -11   2  -9   12.98    2.11
 -11  -2  -9    9.89    1.51
 -11   2  -9    9.74    2.13
 -17   3   9  161.99    7.39
 -17  -3   9  145.44    7.28
  16   3  -9   57.79    3.67
 -16   3   9   56.73    4.35
 -16   3   9   57.63    4.00
 -16  -3   9   54.70    3.92
  15   3  -9  118.72    6.84
 -15   3   9  115.46    7.38
 -15   3   9  115.57    6.92
  14   3  -9  128.62    7.56
 -14   3   9  117.12    7.98
 -13   3   9  115.31    8.12
 -13   3   9  115.58    7.93
  13   3  -9  124.24    7.69
 -12   3   9  478.55   26.01
 -12   3   9  524.78   26.15
  12   3  -9  543.27   25.70
 -11   3   9   25.26    3.44
 -11   3   9   29.56    4.32
  11   3  -9   34.91    3.61
 -11   3   9   40.61    4.62
  11   3  -9   33.47    4.30
 -11  -3   9   30.19    3.29
 -10   3   9  453.66   23.17
 -10   3   9  454.15   23.10
  10   3  -9  446.85   22.29
  10   3  -9  434.92   22.73
 -10   3   9  439.06   22.39
  -9   3   9    0.32    3.09
   9   3  -9   -0.73    2.94
  -9   3   9   -0.30    3.06
   9   3  -9    1.33    3.24
   9   3  -9    1.24    5.87
  -9   3   9   -6.23    6.47
  -9   3   9    4.53    2.42
  -8   3   9  702.82   33.86
   8   3  -9  690.63   33.50
   8   3  -9  654.87   41.93
  -8   3   9  660.17   40.58
  -8   3   9  588.27   39.61
  -8   3   9  716.34   33.75
   7   3  -9  100.23    7.56
  -7   3   9  101.23    7.44
   7   3  -9  105.89   12.67
   7   3  -9   97.37   12.74
  -7   3   9  108.23   11.97
  -7   3   9   99.98   12.07
  -6   3   9 1110.85   54.14
   6   3  -9 1195.07   54.39
   6   3  -9 1161.10   54.04
   6   3  -9 1093.28   61.92
   6   3  -9 1233.15   63.85
  -6   3   9 1148.63   60.65
  -6   3   9 1059.30   61.73
  -5   3   9  975.87   47.87
   5   3  -9 1059.78   48.18
   5   3  -9 1031.75   47.78
   5   3  -9  992.30   55.59
   5   3  -9 1012.93   56.65
  -5   3   9  898.71   55.39
  -4   3   9   46.01    4.77
   4   3  -9   53.55    5.52
   4   3  -9   56.04    5.12
   3   3  -9  936.41   45.90
   3   3  -9  850.09   52.06
  -3   3   9  887.14   54.13
   2   3  -9   96.04    6.80
   2   3  -9  110.23   11.52
  -2   3   9   88.98   11.84
   1   3  -9  558.89   26.84
  -1   3   9  514.14   34.76
   0   3  -9  192.93   10.78
   0   3  -9  160.98    9.66
   0  -3  -9  170.33    9.74
   0   3  -9  182.62   10.72
   0   3   9  154.85   15.57
  -1   3  -9  621.76   29.92
  -1  -3  -9  609.30   29.14
  -1   3  -9  603.57   29.96
   1   3   9  526.31   35.80
  -2   3  -9  472.50   23.10
  -2  -3  -9  445.27   22.41
  -2   3  -9  474.07   23.35
  -3   3  -9  109.85    7.32
   3   3   9   94.17    6.66
  -3   3  -9   87.63    6.76
  -3  -3  -9  121.89    7.01
  -3   3  -9  110.47    7.82
  -4   3  -9  413.81   21.08
  -4   3  -9  386.90   20.80
  -4  -3  -9  401.23   20.78
  -4  -3  -9  440.34   20.89
  -4   3  -9  431.92   21.86
  -4  -3  -9  434.01   20.67
  -5   3  -9    4.48    2.56
  -5   3  -9    7.49    3.29
  -5   3  -9    6.14    2.96
  -5  -3  -9    5.08    2.29
  -5  -3  -9    7.30    2.59
  -5   3  -9    8.32    2.71
  -5  -3  -9    3.73    2.19
  -5  -3  -9    6.74    2.58
  -6   3  -9  391.90   20.36
  -6  -3  -9  431.43   20.24
  -6  -3  -9  396.46   20.24
  -6   3  -9  426.48   21.05
  -6   3  -9  395.84   20.47
  -6  -3  -9  418.88   20.38
  -6  -3  -9  399.55   19.95
  -7   3  -9    3.63    2.29
  -7  -3  -9    1.50    1.96
  -7  -3  -9    3.75    2.23
  -7   3  -9    4.38    2.47
  -7  -3  -9    2.97    1.87
  -7  -3  -9    3.23    2.19
  -8  -3  -9  184.93    9.51
  -8   3  -9  156.58    9.30
  -8   3  -9  180.01    9.72
  -8   3  -9  185.93    9.98
  -9  -3  -9   95.62    5.74
  -9   3  -9   99.97    5.91
  -9   3  -9   96.65    6.13
 -10  -3  -9   24.95    2.28
 -10   3  -9   25.48    2.47
 -10   3  -9   28.37    2.61
  15   4  -9   79.10    4.34
 -15   4   9   70.29    4.76
 -15   4   9   71.01    4.19
 -15  -4   9   68.34    4.21
  14   4  -9   76.22    5.01
 -14   4   9   79.80    4.79
  13   4  -9  255.59   12.99
 -13   4   9  246.34   12.68
 -12   4   9   60.27    4.79
  12   4  -9   51.35    3.88
  12   4  -9   55.99    4.62
 -11   4   9  338.75   17.86
 -11   4   9  369.96   18.60
  11   4  -9  358.51   17.98
  11   4  -9  388.01   18.50
 -10   4   9   17.39    3.65
 -10   4   9   23.45    3.55
  10   4  -9   18.19    3.31
 -10   4   9   24.37    3.06
 -10   4   9   24.22    3.14
  -9   4   9  559.25   27.51
  -9   4   9  525.47   26.97
   9   4  -9  545.16   26.79
  -9   4   9  560.14   26.97
   9   4  -9  536.06   26.77
  -9   4   9  551.76   26.96
  -8   4   9  238.83   13.47
  -8   4   9  214.33   12.85
   8   4  -9  232.45   12.99
   8   4  -9  231.72   12.74
  -8   4   9  244.13   13.07
  -8   4   9  219.98   12.82
  -7   4   9  224.09   12.68
   7   4  -9  228.52   12.94
  -7  -4   9  215.90   12.17
   7   4  -9  221.20   12.47
  -7   4   9  238.05   12.99
  -6   4   9  320.43   17.14
   6   4  -9  340.37   17.54
  -6  -4   9  321.79   16.69
   6   4  -9  325.52   16.94
  -5   4   9   90.61    6.56
   5   4  -9   81.27    6.96
   5   4  -9   86.79    6.41
  -5   4   9  103.04    7.26
  -4   4   9  386.36   21.08
   4   4  -9  454.28   21.84
   4   4  -9  423.59   21.06
  -4   4   9  446.02   22.15
   3   4  -9  120.94    7.56
  -3   4   9  124.71    8.63
   2   4  -9  809.06   40.03
  -2   4   9  953.93   41.68
   1   4  -9   16.42    3.75
  -1   4   9   25.47    3.72
   0   4  -9  290.99   15.37
   0   4  -9  295.24   15.61
   0   4   9  277.13   15.24
   0   4   9  281.10   15.28
   1   4   9  140.58    9.23
  -1   4  -9  169.78    9.62
  -1   4  -9  168.90    9.92
   1   4   9  156.09    9.38
   2   4   9   77.87    5.51
  -2   4  -9   90.78    5.92
   2   4   9   71.12    5.36
  -2   4  -9   76.97    6.37
  -3   4  -9  204.13   11.76
  -3   4  -9  236.04   12.73
  -3  -4  -9  223.48   11.75
  -4   4  -9   31.88    4.12
  -4  -4  -9   25.50    3.00
  -4  -4  -9   27.67    3.19
  -5   4  -9  265.99   14.60
  -5  -4  -9  272.81   14.42
  -5   4  -9  308.96   15.73
  -5   4  -9  300.33   15.06
  -5  -4  -9  343.22   15.08
  -5  -4  -9  307.90   14.88
  -6   4  -9   -0.63    1.79
  -6  -4  -9    0.10    1.39
  -6   4  -9    2.80    2.43
  -6   4  -9   -0.69    1.83
  -6  -4  -9    0.66    1.64
  -6  -4  -9   -1.01    1.63
  -7  -4  -9   67.85    4.37
  -7   4  -9   65.81    4.55
  -7  -4  -9   90.45    4.84
  -7  -4  -9   88.93    4.75
  -8   4  -9   11.53    2.17
  -8  -4  -9   12.79    1.68
  -8  -4  -9   12.69    1.53
 -13   5   9   29.31    2.46
 -12   5   9  156.34    8.46
 -11   5   9    5.82    2.28
  11   5  -9    5.94    1.63
  11   5  -9    3.39    1.97
 -10   5   9  133.90    7.65
  10   5  -9  130.11    7.10
  10   5  -9  120.34    7.07
 -10   5   9  112.68    6.79
  -9   5   9   99.81    6.73
  -9   5   9  101.12    6.24
   9   5  -9  102.36    6.43
   9   5  -9  103.44    6.26
  -8   5   9   62.51    5.00
   8   5  -9   57.23    4.71
  -8   5   9   59.06    4.55
   8   5  -9   53.40    4.30
  -7   5   9   78.04    5.75
   7   5  -9   71.22    5.52
   7   5  -9   71.62    5.03
  -7   5   9   78.22    5.57
   6   5  -9   66.55    4.94
  -6   5   9   76.32    5.83
   6   5  -9   76.08    5.70
  -6  -5   9   68.38    4.98
  -5   5   9  123.86    7.94
   5   5  -9  123.04    7.84
  -5   5   9  134.11    8.17
  -5  -5   9  120.59    7.14
  -4   5   9    5.09    2.68
  -4   5   9    6.00    2.73
  -4  -5   9    6.49    2.13
  -3   5   9   78.30    6.01
   3   5  -9   82.34    5.82
  -3   5   9   80.69    6.02
  -2   5   9   -1.52    2.31
  -2   5   9   -1.33    2.48
   2   5  -9    1.32    2.41
   1   5  -9   74.45    5.34
  -1   5   9   73.78    5.35
  -1   5   9   73.55    5.42
   1   5  -9   83.92    5.69
   1  -5  -9   72.59    4.59
   0   5  -9   31.43    3.34
   0   5   9   29.07    3.09
   0   5  -9   30.71    3.68
   0  -5  -9   29.47    2.71
   1   5   9  149.08    8.43
  -1   5  -9  152.85    8.54
  -1   5  -9  178.43    9.35
  -1  -5  -9  152.02    8.11
  -2   5  -9  134.63    7.81
  -2  -5  -9  120.34    6.64
  -3   5  -9   23.54    3.12
  -3  -5  -9   19.82    2.01
  -4   5  -9   23.76    3.00
  -4  -5  -9   27.66    2.16
  -4  -5  -9   25.54    2.50
  -5  -5  -9    1.24    1.22
  -6   5  -9   50.97    3.36
   7   6  -9   13.86    1.79
  -7   6   9    9.27    1.45
   6   6  -9    0.18    1.45
  -6   6   9    1.80    1.37
  -5   6   9   51.72    3.70
   5   6  -9   57.09    3.65
  -5   6   9   50.45    3.70
   4   6  -9    0.66    1.39
  -4   6   9   -1.05    1.59
  -4   6   9   -2.64    1.70
   3   6  -9    2.34    1.56
   3   6  -9   -0.11    1.65
  -3   6   9    0.22    1.43
  -3   6   9    2.99    1.38
   2   6  -9   15.32    1.80
  -2   6   9   18.91    1.94
  -2   6   9   14.92    1.77
   2   6  -9   19.96    2.24
   1   6  -9    3.40    1.60
   1  -6  -9    4.42    1.20
   0   6  -9   -0.29    1.31
   0  -6  -9    0.07    0.88
 -18   0  10   -1.97    1.69
 -17   0  10  505.68   24.21
 -16   0  10  420.97   20.80
 -15   0  10   20.83    3.46
 -14   0  10  619.92   30.66
 -14   0  10  669.10   31.34
 -13   0  10  114.81    7.48
 -12   0  10  443.62   22.88
  12   0 -10  467.30   22.46
 -11   0  10  190.46   11.15
  11   0 -10  193.18   10.87
 -10   0  10  408.02   21.15
  10   0 -10  419.82   20.99
  10   0 -10  422.65   28.28
   9   0 -10  817.26   38.93
   9   0 -10  802.13   46.26
   8   0 -10   75.60    5.98
   8   0 -10   57.89    9.57
   7   0 -10 1143.99   52.62
   7   0 -10 1015.54   59.02
   6   0 -10    3.01    2.82
   6   0 -10    6.13    3.22
   6   0 -10    3.59    4.72
   5   0 -10 1173.44   56.74
   5   0 -10 1273.78   56.93
   5   0 -10 1172.80   62.47
   4   0 -10    1.45    3.23
   4   0 -10    9.37    3.41
   4   0 -10    5.89    4.63
   3   0 -10  153.40    9.67
   3   0 -10  161.30    9.46
   3   0 -10  144.34   13.08
   2   0 -10  728.95   33.81
   2   0 -10  606.21   37.46
   1   0 -10   21.71    3.82
   0   0 -10 1600.50   72.83
   0   0 -10 1523.92   72.23
  -1   0 -10    8.72    3.53
  -1   0 -10   10.63    3.09
  -1   0 -10   17.60    3.42
  -2   0 -10 1140.13   52.16
  -2   0 -10 1109.90   52.25
  -2   0 -10 1073.71   52.40
  -3   0 -10  114.85    7.46
  -3   0 -10  108.04    7.90
  -3   0 -10  114.78    7.93
  -4   0 -10  350.20   17.85
  -4   0 -10  323.86   18.02
  -4   0 -10  344.31   18.06
  -5   0 -10  268.26   15.08
  -5   0 -10  290.71   15.04
  -5   0 -10  300.35   14.86
  -5   0 -10  249.29   13.85
  -6   0 -10   17.88    3.38
  -6   0 -10   19.15    3.17
  -6   0 -10   20.25    3.75
  -7   0 -10   54.58    4.99
  -7   0 -10   42.18    4.09
  -7   0 -10   47.46    4.45
  -7   0 -10   40.08    4.06
  -8   0 -10   82.70    6.16
  -8   0 -10   88.04    5.58
  -8   0 -10   84.49    5.90
  -8   0 -10   74.38    5.48
  -9   0 -10   69.14    4.64
  -9   0 -10   72.63    5.05
 -10   0 -10   10.85    1.69
 -11   0 -10   60.12    3.79
 -18   1  10  145.46    7.71
 -18  -1  10  151.33    7.73
 -17   1  10  103.34    5.98
 -17  -1  10   98.98    5.77
 -17   1  10  121.21    6.41
 -17  -1  10  110.56    6.31
 -16  -1  10  104.49    6.28
 -16   1  10  119.37    6.88
 -16  -1  10  108.55    6.80
 -15   1  10  256.01   13.59
 -15   1  10  269.87   13.74
 -15  -1  10  247.41   13.61
 -14   1  10   42.45    4.46
  14   1 -10   45.75    3.91
 -14   1  10   47.46    4.63
 -14  -1  10   51.34    4.73
 -13   1  10  773.10   38.05
  13   1 -10  806.51   37.50
 -12   1  10   92.22    6.88
 -12   1  10   98.96    7.13
  12   1 -10  101.96    6.87
 -11   1  10  234.05   13.10
 -11   1  10  225.30   13.33
 -11  -1  10  225.51   12.62
 -10   1  10  294.76   15.90
 -10   1  10  317.63   16.36
 -10  -1  10  288.39   15.53
  10   1 -10  304.91   16.06
 -10   1  10  261.06   21.79
  -9   1  10  103.73    7.27
  -9   1  10  100.00    7.45
   9  -1 -10  112.23    7.06
   9   1 -10  101.13    7.45
   9   1 -10  113.37   12.89
   8   1 -10  293.73   16.08
   8  -1 -10  318.10   16.37
   8   1 -10  331.91   16.81
   8   1 -10  301.83   22.71
   7   1 -10    1.12    2.57
   7  -1 -10   -0.89    2.73
   7   1 -10    4.51    2.96
   7  -1 -10   -2.50    4.09
   7   1 -10    6.35    5.11
   6   1 -10  732.00   36.49
   6   1 -10  766.44   36.65
   6  -1 -10  654.22   41.04
   6   1 -10  681.68   42.71
   5   1 -10  363.32   19.12
   5  -1 -10  405.89   19.08
   5   1 -10  347.42   18.99
   5  -1 -10  351.94   23.02
   5   1 -10  354.27   25.12
   4   1 -10 1018.20   47.73
   4  -1 -10 1016.97   47.46
   4   1 -10  933.78   53.80
   3   1 -10  349.59   17.47
   3  -1 -10  331.09   17.01
   3   1 -10  302.18   16.94
   3   1 -10  321.75   23.47
   3  -1 -10  336.85   23.27
   3   1 -10  307.37   22.55
   2   1 -10 1015.86   46.70
   2  -1 -10 1011.71   46.39
   2   1 -10  908.54   46.19
   2   1 -10  956.33   53.77
   2  -1 -10 1103.53   54.84
   1   1 -10  677.83   32.05
   1  -1 -10  662.89   31.75
   1   1 -10  621.03   31.49
   1   1 -10  624.12   38.88
   1  -1 -10  669.56   39.09
   0   1 -10  312.57   15.83
   0   1 -10  283.96   15.12
   0   1 -10  262.96   21.57
   0  -1 -10  301.86   22.28
   0  -1 -10  268.73   15.05
  -1   1 -10  466.69   22.11
  -1   1 -10  440.94   29.77
  -1  -1 -10  386.79   28.62
  -1  -1 -10  423.50   22.06
  -2  -1 -10   92.57    6.46
  -2   1 -10   87.52    6.16
  -2  -1 -10   77.42    6.20
  -2  -1 -10   81.25    6.22
  -3   1 -10   79.07    6.39
  -3   1 -10   68.19    5.40
  -3  -1 -10   82.35    6.05
  -3   1 -10   61.36    5.82
  -3  -1 -10   77.15    5.94
  -3   1 -10   79.13    6.41
  -4   1 -10  100.66    7.24
  -4   1 -10   83.91    6.25
  -4   1 -10  101.74    6.65
  -4   1 -10   93.66    7.09
  -4  -1 -10   94.54    6.89
  -4   1 -10  102.26    7.37
  -4  -1 -10   98.88    6.91
  -4   1 -10   99.27    6.82
  -5   1 -10  112.79    7.92
  -5  -1 -10  115.06    7.76
  -5  -1 -10  120.02    7.75
  -5   1 -10  116.29    8.06
  -5   1 -10  112.08    7.38
  -5  -1 -10  119.53    7.27
  -5   1 -10  112.45    7.64
  -6   1 -10  101.66    7.29
  -6  -1 -10  103.14    7.14
  -6  -1 -10  105.48    7.05
  -6   1 -10  112.58    7.45
  -6   1 -10  116.65    6.91
  -6  -1 -10  104.17    6.63
  -6   1 -10   91.32    6.92
  -7  -1 -10   33.69    3.82
  -7   1 -10   33.52    3.32
  -7  -1 -10   32.14    3.26
  -7   1 -10   35.47    4.03
  -7   1 -10   36.83    3.89
  -8   1 -10  168.14   10.11
  -8   1 -10  180.85    9.45
  -8  -1 -10  194.79   10.15
  -8  -1 -10  180.32    9.37
  -8   1 -10  169.30    9.87
  -9  -1 -10    5.78    2.16
  -9   1 -10    9.86    2.21
  -9  -1 -10    9.12    1.97
  -9   1 -10    5.59    2.48
  -9   1 -10   10.46    2.35
 -10  -1 -10   79.18    4.45
 -10  -1 -10   77.03    4.69
 -10   1 -10   66.54    4.47
 -10   1 -10   61.15    4.28
 -17   2  10   23.91    2.33
 -17  -2  10   22.22    2.18
 -16   2  10   76.17    4.82
 -16  -2  10   68.94    4.62
 -16   2  10   72.99    4.59
 -16  -2  10   69.66    4.53
 -15   2  10    4.60    2.30
  15   2 -10    0.89    1.94
 -15   2  10    1.00    2.03
 -15  -2  10    1.19    2.01
 -14   2  10  133.06    7.95
  14   2 -10  129.34    7.36
 -14   2  10  117.24    7.72
 -14   2  10  107.70    7.16
 -14  -2  10  115.38    7.30
 -13   2  10    1.25    2.56
 -13   2  10    0.26    2.75
  13   2 -10    3.79    2.68
 -13   2  10    0.99    2.48
 -13  -2  10   -3.05    2.76
 -12   2  10  126.38    8.81
 -12   2  10  131.65    8.49
 -11   2  10   98.73    7.09
  11   2 -10   99.76    6.99
 -11   2  10   81.55    6.09
 -10   2  10  190.70   11.55
 -10   2  10  190.92   11.53
  10   2 -10  190.82   11.38
  10   2 -10  190.84   18.11
   9   2 -10  576.13   28.91
  -9   2  10  614.53   29.71
   9   2 -10  648.36   29.71
   9   2 -10  585.55   37.58
   8   2 -10   53.39    5.09
  -8   2  10   58.32    5.53
   8   2 -10   57.92    5.50
   7   2 -10  109.85    7.83
  -7   2  10  118.85    8.01
   7  -2 -10  110.09    7.25
   7   2 -10  112.95    7.87
   7   2 -10  100.89   13.12
   6   2 -10   44.41    4.97
   6  -2 -10   47.82    4.58
   6   2 -10   39.91    8.62
   5   2 -10  271.87   15.34
   5  -2 -10  304.38   15.06
   5   2 -10  288.72   15.24
   5   2 -10  280.14   21.93
   4   2 -10    4.54    3.34
   4  -2 -10    9.19    3.10
   4   2 -10    0.98    2.93
   4   2 -10    2.01    4.86
   4  -2 -10    6.56    4.77
   4   2 -10   10.17    6.13
   3   2 -10  508.55   25.36
   3  -2 -10  506.27   24.91
   3   2 -10  484.57   24.89
   3   2 -10  456.51   30.79
   2   2 -10  305.56   15.83
   2  -2 -10  286.16   15.37
   2   2 -10  278.49   15.28
   2   2 -10  247.77   20.70
   2  -2 -10  313.10   21.24
   1   2 -10   12.31    3.59
   1  -2 -10   21.80    3.41
   1   2 -10   17.73    3.23
   1   2 -10   28.18    6.83
   1  -2 -10    9.52    5.14
   0   2 -10  136.03    8.31
   0  -2 -10  133.40    8.25
   0   2 -10  136.91   13.90
   0   2 -10  132.17    8.52
   0   2  10  110.79   13.04
  -1   2 -10    2.17    2.99
  -1   2 -10    1.98    2.30
  -1   2 -10    0.77    2.84
  -1  -2 -10    5.71    2.47
   1   2  10    2.86    3.66
  -2   2 -10  191.92   11.24
  -2   2 -10  167.97   10.09
  -2  -2 -10  173.04   10.42
  -2   2 -10  192.22   11.19
  -3   2 -10    0.26    2.83
  -3   2 -10    1.80    2.95
  -3  -2 -10   -0.42    2.23
  -3  -2 -10    1.41    2.49
  -3   2 -10    1.67    2.50
  -3  -2 -10   -1.52    1.83
  -4   2 -10  432.20   21.99
  -4  -2 -10  439.52   21.54
  -4   2 -10  399.43   21.53
  -4  -2 -10  454.47   21.77
  -4   2 -10  443.91   22.06
  -4   2 -10  423.38   21.16
  -5  -2 -10    2.46    2.29
  -5  -2 -10    0.85    2.27
  -5   2 -10   -1.79    1.96
  -5   2 -10    1.63    2.64
  -5  -2 -10    0.81    2.30
  -6  -2 -10   63.27    4.95
  -6   2 -10   57.23    4.99
  -6  -2 -10   63.21    4.88
  -6   2 -10   59.61    5.16
  -6  -2 -10   64.24    4.82
  -6   2 -10   59.27    5.18
  -7  -2 -10    0.52    2.01
  -7   2 -10    4.80    2.41
  -7  -2 -10    2.60    2.15
  -7   2 -10    1.72    2.42
  -7   2 -10    4.60    2.62
  -7  -2 -10   -0.62    2.04
  -8   2 -10   20.04    2.64
  -8  -2 -10   18.06    2.48
  -8  -2 -10   10.80    2.39
  -8   2 -10   10.38    2.61
  -8   2 -10   17.06    2.73
  -8  -2 -10   16.90    2.26
  -9   2 -10   41.00    3.58
  -9  -2 -10   47.22    3.47
  -9  -2 -10   45.38    3.56
  -9   2 -10   47.48    3.45
  -9  -2 -10   51.75    3.28
  -9   2 -10   44.00    3.56
 -10  -2 -10    6.11    1.36
 -16   3  10   14.18    1.95
 -16   3  10   13.64    1.89
 -16  -3  10   12.69    1.80
 -15   3  10   -2.54    2.05
  15   3 -10    3.91    1.65
 -15   3  10   -0.13    1.70
 -14   3  10    6.00    2.45
  14   3 -10    5.78    2.16
 -13   3  10   24.31    3.55
 -13   3  10   26.72    3.56
  13   3 -10   28.79    3.41
 -12   3  10    2.33    2.84
 -12   3  10    2.73    2.82
  12   3 -10   -0.21    2.60
 -11   3  10    4.95    3.05
  11   3 -10    3.72    2.18
 -11   3  10    2.42    2.88
  11   3 -10   -2.98    2.78
 -11   3  10    2.95    1.96
 -10   3  10   23.43    3.81
  10   3 -10   25.21    3.41
 -10   3  10   22.56    3.81
  10   3 -10   27.39    3.98
 -10   3  10   22.37    3.25
  -9   3  10   23.59    3.98
   9   3 -10   20.03    3.43
  -9   3  10   25.92    3.99
   9   3 -10   25.65    4.04
  -9   3  10   19.24    3.26
   8   3 -10    2.47    2.90
  -8   3  10   -0.28    2.82
  -8   3  10   -0.54    2.30
   7   3 -10   32.24    4.35
  -7   3  10   33.32    4.18
   7   3 -10   34.37    4.30
  -7   3  10   37.20    4.33
  -6   3  10  124.75    8.54
   6   3 -10  127.40    8.79
   6   3 -10  146.36    8.71
   5   3 -10   20.06    3.94
  -5   3  10   23.18    3.76
   5   3 -10   25.71    3.77
   5   3 -10   19.80    6.51
  -5   3  10   16.20    5.77
   4   3 -10   25.00    4.11
  -4   3  10   23.45    3.53
   4   3 -10   25.42    3.66
  -4   3  10   19.03    6.72
   3   3 -10   -1.63    3.07
  -3   3  10   -0.49    2.59
   3   3 -10    0.22    2.74
  -3   3  10   -1.17    4.46
   2   3 -10    1.08    2.89
   2   3 -10   -1.04    2.41
   2   3 -10   -0.48    2.77
  -2   3  10   -1.12    5.21
   1   3 -10   -0.96    2.33
   1   3 -10   -1.47    2.86
   0   3 -10   72.92    6.05
   0   3 -10   64.47    4.98
   0  -3 -10   69.80    5.02
   0   3 -10   72.98    5.86
  -1   3 -10    1.74    2.83
  -1   3 -10    0.78    2.87
  -1  -3 -10    1.67    2.12
  -2   3 -10   58.28    4.98
   2   3  10   42.28    4.12
  -2  -3 -10   50.54    4.20
  -2   3 -10   46.88    5.10
  -3   3 -10    3.92    2.65
  -3   3 -10    2.52    2.89
  -3  -3 -10    0.54    2.01
  -3  -3 -10   -0.16    1.85
  -4   3 -10   11.51    2.92
  -4   3 -10    9.10    3.20
  -4   3 -10   17.35    3.31
  -4  -3 -10   13.32    2.42
  -4  -3 -10   10.00    2.21
  -4  -3 -10   20.12    2.94
  -5   3 -10   20.13    3.21
  -5  -3 -10   23.19    2.75
  -5  -3 -10   18.64    2.62
  -5   3 -10   14.02    2.67
  -5  -3 -10   21.11    2.46
  -5  -3 -10   26.18    2.99
  -6   3 -10   17.71    2.69
  -6  -3 -10   16.06    2.32
  -7   3 -10   16.51    2.31
  -7  -3 -10   15.44    2.15
  -7   3 -10   11.70    2.23
  -7   3 -10   19.40    2.72
  -8   3 -10   37.20    2.96
  -8  -3 -10   44.03    3.04
  -8   3 -10   37.63    2.90
  -9  -3 -10    7.74    1.25
  14   4 -10  151.46    7.72
 -14   4  10  159.48    8.10
 -14   4  10  138.87    7.44
 -13   4  10    9.27    2.46
  13   4 -10   11.27    2.22
 -13   4  10    8.95    1.75
 -12   4  10  205.37   11.09
  12   4 -10  210.45   11.03
 -11   4  10   89.46    5.85
 -11   4  10  109.58    6.56
  11   4 -10   96.31    5.85
  10   4 -10   11.56    2.67
 -10   4  10   13.34    2.70
 -10   4  10   10.95    2.55
 -10   4  10    9.74    2.37
   9   4 -10   24.38    3.49
  -9   4  10   29.75    3.68
   9   4 -10   31.56    3.79
  -9   4  10   30.84    3.61
  -9   4  10   31.31    3.53
   8   4 -10    0.65    2.59
  -8   4  10    1.98    2.46
   8   4 -10    0.20    2.47
  -8   4  10    0.70    2.43
  -8   4  10   -0.23    2.15
  -7   4  10   43.76    4.20
   7   4 -10   38.29    4.37
   7   4 -10   37.84    4.05
   6   4 -10    1.19    2.90
  -6   4  10    2.80    2.33
   6   4 -10    1.36    2.59
  -5   4  10   76.40    5.81
   5   4 -10   86.61    6.41
   5   4 -10   82.64    5.80
  -5   4  10   95.89    6.71
   4   4 -10   51.41    4.86
   4   4 -10   43.05    4.13
  -4   4  10   44.56    4.62
   3   4 -10  115.02    6.80
  -3   4  10  104.08    7.67
   2   4 -10   67.68    5.49
  -2   4  10   67.64    5.55
  -2   4  10   63.06    5.50
   1   4 -10   46.88    4.54
   1   4 -10   52.26    4.76
  -1   4  10   42.64    4.30
  -1   4  10   48.51    4.47
   0   4  10   44.94    4.40
   0   4 -10   59.85    4.87
   0   4 -10   63.21    5.17
   0   4  10   57.92    4.68
  -1   4 -10    5.54    2.58
   1   4  10    3.59    2.02
   1   4  10    4.24    1.98
  -1   4 -10    6.67    2.73
  -2   4 -10   49.84    4.32
  -2   4 -10   53.20    4.84
  -2  -4 -10   48.44    4.08
  -2  -4 -10   59.15    4.08
  -3   4 -10   17.24    2.57
  -3   4 -10   13.67    3.04
  -3  -4 -10   15.29    2.30
  -3  -4 -10   19.22    2.68
  -4   4 -10    4.85    2.31
  -4   4 -10    5.59    2.15
  -4  -4 -10    5.11    1.83
  -4  -4 -10    3.81    1.71
  -5   4 -10   29.58    2.78
  -5  -4 -10   34.66    2.77
  -5  -4 -10   28.67    2.53
  -6   4 -10    1.75    1.71
  -6  -4 -10    3.17    1.40
  -6  -4 -10    3.65    1.06
  -7  -4 -10   12.99    1.43
  11   5 -10   53.27    3.79
 -11   5  10   78.30    4.35
  10   5 -10  114.03    5.94
  10   5 -10  115.09    6.10
 -10   5  10  102.76    6.02
  -9   5  10   29.46    3.17
  -9   5  10   26.61    2.72
   9   5 -10   32.59    2.90
   9   5 -10   30.79    2.77
  -8   5  10  348.13   16.64
   8   5 -10  324.10   16.25
  -8   5  10  351.23   16.33
   8   5 -10  305.49   15.83
  -7   5  10   23.06    3.01
   7   5 -10   24.51    2.96
   7   5 -10   16.07    2.47
  -6   5  10  356.67   17.29
   6   5 -10  325.27   16.94
  -5   5  10    4.71    2.53
   5   5 -10   -1.14    2.73
  -5   5  10    1.31    2.46
  -5   5  10    1.50    2.22
  -4   5  10  224.52   12.05
   4   5 -10  233.93   11.74
  -4   5  10  211.66   11.89
   3   5 -10   82.58    5.62
  -3   5  10   81.20    5.62
  -3   5  10   69.09    5.50
   2   5 -10  136.45    7.68
  -2   5  10  124.23    7.63
  -2   5  10  126.39    7.66
   2   5 -10  149.50    7.86
   1   5 -10  170.26    9.04
  -1   5  10  166.70    9.00
   1   5 -10  187.49    9.36
   1  -5 -10  157.12    8.32
   0   5 -10   11.57    2.22
   0   5  10    9.38    1.84
   0   5 -10   14.04    2.52
   0  -5 -10   10.14    1.55
  -1   5 -10  255.64   12.43
  -1  -5 -10  264.71   11.98
  -2   5 -10    5.05    1.85
  -2   5 -10    4.56    1.48
  -2  -5 -10    3.16    1.12
  -2  -5 -10    6.18    1.50
  -3   5 -10  148.61    8.03
  -3  -5 -10  157.32    7.75
 -18   0  11   -0.82    1.18
 -17   0  11   -0.12    1.73
 -16   0  11    1.06    2.04
 -15   0  11    2.40    2.40
 -14   0  11   -1.07    2.77
 -13   0  11    3.03    2.24
 -12   0  11    2.70    2.44
  12   0 -11   -1.36    2.17
 -11   0  11    1.45    2.46
  11   0 -11    1.98    2.37
 -10   0  11    0.25    2.46
  10   0 -11   -2.87    2.72
   9   0 -11   -1.43    2.77
   9   0 -11   -1.02    3.68
   8   0 -11    0.73    2.82
   8   0 -11    2.97    4.70
   7   0 -11   -2.23    2.70
   7   0 -11   10.63    5.31
   6   0 -11    4.83    2.90
   6   0 -11    0.75    2.77
   6   0 -11   -1.88    3.81
   5   0 -11   -0.25    2.75
   5   0 -11   -0.25    2.71
   5   0 -11   -0.90    4.59
   4   0 -11    3.66    3.04
   4   0 -11   -0.75    2.85
   3   0 -11   -1.35    2.98
   3   0 -11    0.74    2.82
   2   0 -11    4.15    3.04
   1   0 -11    3.11    3.20
   1   0 -11   -0.24    2.77
   1   0 -11    1.47    2.50
   0   0 -11   -1.71    2.98
   0   0 -11   -1.43    2.71
   0   0 -11    1.52    2.68
  -1   0 -11    1.38    2.57
  -1   0 -11   -1.54    2.92
  -2   0 -11    0.22    2.46
  -2   0 -11    2.05    2.68
  -3   0 -11   -1.50    2.48
  -4   0 -11   -3.10    2.72
  -4   0 -11   -2.69    2.54
  -5   0 -11   -0.22    2.51
  -5   0 -11    1.65    2.23
  -6   0 -11    1.19    2.27
  -6   0 -11    0.89    2.05
  -7   0 -11   -0.52    2.05
  -7   0 -11   -0.29    1.79
  -8   0 -11    2.52    1.74
  -8   0 -11    2.44    1.53
  -9   0 -11   -0.31    1.35
  -9   0 -11    0.83    1.04
 -17   1  11   -0.22    1.15
 -17   1  11   -0.76    1.50
 -17  -1  11   -0.20    1.49
 -16   1  11   15.40    2.17
 -16   1  11   19.64    2.48
 -16  -1  11   20.02    2.52
 -16  -1  11   15.02    1.83
 -15   1  11   -0.95    1.93
 -15   1  11    2.64    2.21
 -15  -1  11    2.54    2.19
 -14   1  11   89.70    6.22
  14   1 -11   92.97    5.70
 -14   1  11   93.27    6.33
 -14  -1  11   97.15    6.42
 -13   1  11   18.76    3.23
  13   1 -11   15.03    2.85
 -13   1  11   21.30    3.41
 -12   1  11   16.83    3.21
  12   1 -11    8.97    2.79
 -11   1  11   70.52    5.97
 -11  -1  11   67.18    5.18
  11   1 -11   80.99    5.88
 -10   1  11    7.21    2.34
 -10   1  11    1.37    2.54
 -10  -1  11    0.21    2.30
  10  -1 -11    3.60    2.29
  10   1 -11    2.19    2.72
  -9   1  11  180.78   11.16
  -9   1  11  210.35   11.91
   9  -1 -11  205.83   11.16
   9   1 -11  221.96   11.84
   9  -1 -11  157.58   16.17
   9   1 -11  174.03   17.35
   8   1 -11    1.45    2.34
   8  -1 -11    3.55    2.61
   8   1 -11    1.29    3.00
   8  -1 -11    1.74    4.13
   8   1 -11   -3.32    5.91
   7   1 -11  110.34    7.89
   7  -1 -11  138.36    8.23
   7   1 -11  135.87    8.57
   7   1 -11   96.82   12.51
   6   1 -11    3.98    2.83
   6  -1 -11   -1.18    2.89
   6   1 -11   -1.03    2.96
   6   1 -11    4.28    4.87
   5   1 -11    1.81    2.83
   5  -1 -11    3.35    2.76
   5   1 -11    1.27    3.06
   5   1 -11    1.04    4.74
   4   1 -11   18.29    3.76
   4  -1 -11   26.90    3.72
   4   1 -11   13.38    5.76
   4  -1 -11   28.48    7.04
   4   1 -11   23.05    6.78
   3   1 -11    0.54    3.00
   3  -1 -11   -1.45    2.77
   3   1 -11   -1.24    2.72
   3  -1 -11    2.19    4.98
   2   1 -11   64.22    5.74
   2  -1 -11   66.16    5.54
   2   1 -11   65.68    5.49
   2   1 -11   46.53    8.84
   2  -1 -11   69.57   10.04
   1   1 -11   54.19    5.49
   1  -1 -11   48.59    4.89
   1   1 -11   54.61    4.91
   1   1 -11   51.42    8.92
   1  -1 -11   37.68    8.29
   0   1 -11    4.51    3.14
   0   1 -11    6.82    2.81
   0  -1 -11    2.74    2.36
   0   1 -11    9.16    5.53
   0  -1 -11    1.10    4.82
  -1   1 -11    7.70    2.80
  -1  -1 -11   10.12    2.80
  -1  -1 -11   14.92    2.88
  -2   1 -11   15.06    2.73
  -2  -1 -11    8.53    2.69
  -2  -1 -11   13.39    2.97
  -3   1 -11   33.72    3.59
  -3   1 -11   40.76    3.95
  -3  -1 -11   32.91    3.88
  -3   1 -11   39.67    4.54
  -3  -1 -11   41.58    4.19
  -4   1 -11   52.60    4.86
  -4  -1 -11   50.66    4.69
  -4   1 -11   63.46    5.38
  -4  -1 -11   64.57    5.07
  -4   1 -11   62.73    4.77
  -4  -1 -11   58.09    4.53
  -5   1 -11   58.09    5.13
  -5  -1 -11   64.54    5.11
  -5  -1 -11   69.20    5.05
  -5   1 -11   64.73    5.38
  -5   1 -11   67.73    4.88
  -5  -1 -11   65.62    4.70
  -6  -1 -11   24.00    3.02
  -6   1 -11   23.05    3.27
  -6  -1 -11   20.63    2.86
  -6   1 -11   24.14    2.72
  -6   1 -11   21.72    3.17
  -6  -1 -11   23.66    2.55
  -7   1 -11   34.86    2.96
  -7  -1 -11   37.95    3.45
  -7   1 -11   40.30    3.61
  -8  -1 -11    2.76    1.67
  -9  -1 -11   55.99    3.33
  -9  -1 -11   45.51    3.39
  -9   1 -11   50.34    3.41
 -16   2  11   15.10    2.05
 -16  -2  11   16.48    1.88
 -15   2  11  105.43    6.42
  15   2 -11  102.97    5.86
 -15   2  11  109.87    6.02
 -15  -2  11  105.00    6.05
 -14   2  11   65.06    5.05
  14   2 -11   70.33    4.57
 -14   2  11   60.78    4.42
 -14  -2  11   56.66    4.48
 -13   2  11  151.12    8.76
 -13   2  11  134.36    8.90
  13   2 -11  157.88    8.69
 -13   2  11  144.87    8.47
 -13  -2  11  151.64    8.58
 -12   2  11  151.96    9.21
  12   2 -11  153.31    9.11
 -12   2  11  152.31    8.88
 -11   2  11  105.43    7.19
 -11   2  11   89.01    6.41
 -10   2  11  180.60   10.85
 -10   2  11  203.02   11.22
  10   2 -11  186.14   10.95
 -10   2  11  169.81   10.31
  -9   2  11    0.27    2.72
   9   2 -11    1.20    2.47
  -9   2  11   -0.56    2.85
   9   2 -11    9.33    3.33
   8   2 -11  138.29    8.92
  -8   2  11  152.35    9.51
   8  -2 -11  146.21    8.46
   8   2 -11  145.13    9.29
   7   2 -11  131.59    9.06
  -7   2  11  151.02    9.50
   7  -2 -11  152.62    8.84
   7   2 -11  152.58    9.48
   6   2 -11  215.15   12.07
   6  -2 -11  216.91   11.59
   6   2 -11  176.44   16.42
   6  -2 -11  182.54   16.94
   6   2 -11  184.19   17.66
   5   2 -11  333.30   17.29
   5  -2 -11  349.75   16.89
   5   2 -11  303.81   16.90
   5   2 -11  308.88   22.83
   5  -2 -11  343.54   23.25
   4   2 -11   24.50    4.12
   4  -2 -11   31.23    3.90
   4   2 -11   27.79    3.95
   4   2 -11   22.53    6.00
   4  -2 -11   38.02    7.44
   3   2 -11  149.32    9.47
   3  -2 -11  153.18    9.15
   3   2 -11  139.41    8.99
   3   2 -11  135.50   14.21
   3  -2 -11  174.21   14.54
   2   2 -11    7.32    3.27
   2  -2 -11    7.00    2.77
   2   2 -11    6.56    2.92
   2   2 -11    4.16    4.64
   1   2 -11   85.16    6.56
   1   2 -11   80.35    5.94
   1  -2 -11   78.32    5.77
   0   2 -11   39.59    3.93
   0  -2 -11   35.48    3.83
  -1   2 -11  310.11   16.71
  -1  -2 -11  361.82   17.27
  -2   2 -11    3.00    3.03
  -2   2 -11    1.04    1.84
  -2  -2 -11    1.92    2.31
  -3   2 -11  297.98   16.10
  -3   2 -11  301.50   15.37
  -3  -2 -11  289.22   15.33
  -3  -2 -11  316.89   15.77
  -3   2 -11  315.35   16.31
  -4  -2 -11   43.24    3.94
  -4  -2 -11   51.91    4.27
  -4   2 -11   48.46    3.81
  -4   2 -11   47.33    4.60
  -4  -2 -11   57.06    4.33
  -4   2 -11   46.00    4.28
  -5   2 -11   61.22    4.84
  -5  -2 -11   72.71    4.96
  -5  -2 -11   71.66    5.00
  -5  -2 -11   75.75    4.99
  -5   2 -11   71.03    4.99
  -6  -2 -11  132.33    7.35
  -6  -2 -11  147.74    7.52
  -6  -2 -11  137.41    7.30
  -6   2 -11  132.42    7.36
  -7   2 -11    3.81    1.81
  -7  -2 -11    4.11    1.61
  -7  -2 -11    2.75    1.60
  -7   2 -11   -1.14    1.76
  -7   2 -11   -1.19    1.73
  -7  -2 -11    2.46    1.41
  -8  -2 -11  113.06    6.04
  -8   2 -11  113.44    6.08
  -8  -2 -11  107.02    5.70
  15   3 -11   26.98    2.26
 -15   3  11   30.71    2.50
 -14   3  11  126.91    7.64
  14   3 -11  144.29    7.41
 -14   3  11  132.31    7.54
 -13   3  11  180.12   10.26
 -13   3  11  190.85   10.41
  13   3 -11  193.16   10.14
 -12   3  11   53.71    4.65
 -12   3  11   56.25    4.67
  12   3 -11   57.13    4.53
 -11   3  11  430.83   21.27
 -11   3  11  430.94   21.28
  11   3 -11  446.53   21.08
 -11   3  11  388.49   20.43
 -10   3  11   18.96    3.45
  10   3 -11   22.15    3.00
 -10   3  11   22.96    3.48
  10   3 -11   16.33    3.34
 -10   3  11   18.46    2.77
  -9   3  11  634.45   30.75
   9   3 -11  615.87   30.09
  -9   3  11  632.40   30.67
  -9   3  11  628.21   30.38
   8   3 -11  119.93    7.89
  -8   3  11  124.40    8.14
  -8   3  11  122.37    7.98
   7   3 -11  380.21   20.50
  -7   3  11  394.85   20.53
   7   3 -11  416.86   20.51
  -7   3  11  417.68   20.69
   6   3 -11  287.36   15.40
  -6   3  11  276.70   15.24
   6   3 -11  286.72   15.10
   5   3 -11  219.12   11.73
  -5   3  11  188.62   11.17
   5   3 -11  184.57   10.98
   4   3 -11  105.23    7.20
  -4   3  11   96.78    6.73
   4   3 -11   88.23    6.42
   3   3 -11  205.36   11.26
  -3   3  11  186.95   10.79
   3   3 -11  174.32   10.41
   2   3 -11  313.24   15.57
  -2   3  11  273.63   15.02
   2   3 -11  288.20   14.69
   2   3 -11  268.68   14.84
  -1   3  11    2.53    2.24
   1   3 -11   -0.16    2.22
   1   3 -11   -1.04    2.53
   0  -3 -11  289.87   15.33
   0   3 -11  302.39   16.07
  -1   3 -11   43.49    4.44
  -1  -3 -11   39.94    3.59
  -1   3 -11   45.60    4.41
   1   3  11   42.70    3.94
  -2   3 -11  325.25   15.64
  -2  -3 -11  297.09   14.84
  -2   3 -11  315.12   15.50
  -3   3 -11   37.13    3.92
  -3  -3 -11   41.57    3.46
  -3  -3 -11   48.32    3.89
  -4  -3 -11  246.72   12.81
  -4   3 -11  255.99   13.41
  -4  -3 -11  270.94   13.17
  -5  -3 -11  230.70   12.02
  -5   3 -11  257.62   12.51
  -5   3 -11  244.18   12.28
  -6  -3 -11   32.18    2.64
  -6   3 -11   40.93    3.01
  -6   3 -11   35.51    2.92
  -7  -3 -11  278.13   13.22
  13   4 -11   78.64    4.61
 -13   4  11   79.34    4.75
 -12   4  11  243.48   12.07
  12   4 -11  235.19   11.78
 -12   4  11  228.13   11.35
 -11   4  11   23.16    3.10
 -11   4  11   26.89    2.81
 -10   4  11  549.28   25.05
 -10   4  11  544.14   24.67
  10   4 -11  500.63   24.20
 -10   4  11  519.66   24.46
 -10   4  11  469.11   24.31
   9   4 -11   14.52    2.59
  -9   4  11   16.26    2.66
   9   4 -11   15.78    2.73
  -9   4  11   17.11    2.56
  -9   4  11   15.01    2.45
  -8   4  11  208.97   11.18
  -8   4  11  196.96   10.94
   8   4 -11  198.77   11.04
   8   4 -11  202.68   10.92
  -8   4  11  212.21   11.18
   7   4 -11   18.59    3.22
  -7   4  11   25.59    3.04
   7   4 -11   17.25    2.89
  -6   4  11  157.44    9.27
   6   4 -11  172.11    9.86
   6   4 -11  163.16    9.24
  -6   4  11  174.45    9.94
  -6   4  11  177.32    9.90
  -5   4  11  153.51    8.91
   5   4 -11  177.90    9.70
   5   4 -11  156.20    8.88
   5   4 -11  168.84    9.03
  -5   4  11  161.89    9.66
  -5   4  11  160.72    9.57
   4   4 -11  102.96    6.66
   4   4 -11  105.39    6.27
  -4   4  11  101.08    6.71
  -4   4  11   88.13    6.50
   3   4 -11  543.85   25.06
  -3   4  11  506.99   25.40
  -3   4  11  501.19   25.47
  -2   4  11   39.12    3.89
   2   4 -11   40.17    3.90
  -2   4  11   37.40    3.85
   1   4 -11  464.06   22.42
  -1   4  11  434.65   22.16
   1   4 -11  464.34   22.32
  -1   4  11  465.68   22.36
   0   4 -11    4.10    2.19
   0   4  11    1.70    1.82
   0   4  11    8.15    1.99
   0   4 -11    5.92    2.45
  -1   4 -11  328.62   15.94
  -1   4 -11  320.24   16.00
  -1  -4 -11  348.58   15.81
  -1  -4 -11  346.82   15.58
  -2   4 -11   62.84    4.52
  -2   4 -11   68.18    4.69
  -2   4 -11   70.48    4.78
  -2  -4 -11   75.94    4.55
  -2  -4 -11   65.60    4.16
  -3   4 -11   91.24    5.91
  -3  -4 -11  112.38    5.81
  -4   4 -11   85.41    5.28
  -4   4 -11   93.10    5.30
  -5  -4 -11   27.70    2.00
  -9   5  11   25.29    2.33
  -8   5  11    1.67    1.52
   8   5 -11   -0.87    1.41
  -8   5  11    0.38    1.18
  -7   5  11  223.41   10.29
   7   5 -11  174.43    9.89
   6   5 -11   57.99    4.11
  -6   5  11   52.87    4.03
   5   5 -11   99.30    5.96
  -5   5  11   92.23    5.92
  -4   5  11   60.80    4.37
   4   5 -11   63.88    4.03
   3   5 -11   22.16    2.49
   3   5 -11   19.54    2.23
  -3   5  11   18.72    2.28
  -2   5  11   99.44    5.82
   2   5 -11  107.25    5.98
   2   5 -11  111.05    5.85
   1   5 -11   -0.42    1.36
   1  -5 -11    1.40    1.14
   0   5 -11   77.01    4.79
   0  -5 -11   91.64    4.61
 -17   0  12   81.73    4.58
 -16   0  12  118.33    6.59
 -15   0  12   33.65    3.29
 -14   0  12   41.19    3.88
 -13   0  12  145.44    8.33
 -12   0  12    2.14    2.14
  12   0 -12    1.44    1.94
 -11   0  12  211.37   12.23
  11   0 -12  236.71   12.06
 -10   0  12    3.26    2.58
  10   0 -12    2.40    2.54
  -9   0  12  266.17   14.14
   9   0 -12  249.64   13.85
   8   0 -12   32.78    3.99
   7   0 -12  641.48   31.27
   6   0 -12  842.27   42.52
   6   0 -12  972.01   42.99
   5   0 -12  394.74   20.90
   5   0 -12  426.90   20.99
   4   0 -12 1685.63   78.09
   4   0 -12 1684.96   77.94
   3   0 -12  140.77    9.30
   3   0 -12  136.68    8.85
   2   0 -12  369.25   18.84
   1   0 -12    7.11    2.91
   1   0 -12   11.17    2.93
   0   0 -12  329.81   16.05
   0   0 -12  277.62   15.77
  -1   0 -12  245.21   12.87
  -1   0 -12  223.90   12.81
  -1   0 -12  235.91   12.88
  -2   0 -12  225.44   12.33
  -3   0 -12  350.72   17.80
  -4   0 -12    2.35    2.14
  -4   0 -12   -0.72    2.09
  -5   0 -12  377.24   18.91
  -5   0 -12  391.16   18.84
  -6   0 -12   67.34    4.32
  -6   0 -12   62.14    4.46
  -7   0 -12  160.20    7.95
  -7   0 -12  149.81    8.18
 -16   1  12   79.85    4.42
 -16  -1  12   81.58    4.47
 -15   1  12   18.47    2.29
 -15   1  12   20.35    2.56
 -15  -1  12   23.09    2.61
 -14   1  12  183.67    9.92
  14   1 -12  167.70    9.25
 -14   1  12  198.31   10.02
 -14  -1  12  198.47   10.10
 -13   1  12    2.31    2.16
  13   1 -12    0.68    2.09
 -13   1  12    1.45    2.45
 -13  -1  12    2.62    2.33
 -12   1  12  213.89   11.94
  12   1 -12  217.91   11.57
 -11   1  12    5.41    2.76
  11   1 -12    9.04    2.96
 -10   1  12  384.85   19.66
 -10  -1  12  348.52   18.87
  10  -1 -12  392.00   18.84
  10   1 -12  404.39   19.55
  -9   1  12   26.62    3.79
   9  -1 -12   25.68    3.33
   9   1 -12   21.80    3.76
   8  -1 -12  440.87   21.61
   8   1 -12  474.20   22.07
   7   1 -12   33.99    4.27
   7  -1 -12   48.15    4.48
   7   1 -12   42.58    4.65
   6  -1 -12  156.95    8.91
   6   1 -12  150.47    9.02
   5   1 -12  230.40   13.84
   5  -1 -12  273.34   13.81
   4   1 -12   16.40    3.81
   4  -1 -12   21.78    3.63
   3   1 -12  861.36   40.84
   3  -1 -12  884.70   40.52
   3   1 -12  807.09   40.33
   2   1 -12   69.16    6.08
   2  -1 -12   72.23    5.71
   2   1 -12   67.69    5.57
   1   1 -12  518.99   26.34
   1  -1 -12  527.66   25.92
   1   1 -12  522.38   25.72
   0   1 -12  271.99   14.45
   0   1 -12  258.89   13.77
   0  -1 -12  265.27   13.87
   0   1 -12  235.67   13.94
  -1   1 -12  266.46   13.22
  -1  -1 -12  232.01   12.94
  -1   1 -12  245.92   13.67
  -1  -1 -12  251.50   13.42
  -2   1 -12  196.51   11.04
  -2   1 -12  209.36   11.34
  -2  -1 -12  189.70   11.04
  -2   1 -12  218.87   11.76
  -2  -1 -12  230.38   11.64
  -3  -1 -12   61.24    4.92
  -3   1 -12   76.00    5.61
  -3  -1 -12   82.85    5.40
  -3   1 -12   71.74    5.10
  -3  -1 -12   70.22    4.82
  -4  -1 -12  320.82   16.56
  -4  -1 -12  340.49   16.81
  -4   1 -12  353.78   17.06
  -4   1 -12  327.99   16.55
  -4  -1 -12  332.78   16.31
  -5  -1 -12    2.41    1.82
  -5   1 -12    2.08    1.96
  -5  -1 -12    1.46    1.79
  -5   1 -12    1.94    1.64
  -6  -1 -12  215.12   11.54
  -6   1 -12  228.49   11.26
  -6   1 -12  252.77   11.89
  -7   1 -12   16.58    1.99
  -7  -1 -12   13.14    1.77
 -15  -2  12   21.64    1.97
 -14   2  12   17.39    2.54
  14   2 -12   15.97    2.18
 -14   2  12   19.60    2.12
 -14  -2  12   24.83    2.34
 -13   2  12   46.70    4.12
  13   2 -12   46.56    3.81
 -13   2  12   49.74    3.65
 -13  -2  12   45.74    3.72
  12   2 -12   15.03    2.76
 -12   2  12   16.13    2.55
 -12  -2  12   15.94    2.71
  11   2 -12   16.38    2.96
 -11   2  12    8.85    2.05
 -10   2  12   65.82    5.15
 -10   2  12   73.49    5.66
  10   2 -12   68.52    5.49
 -10   2  12   63.72    5.03
   9   2 -12   25.42    3.32
  -9   2  12   32.57    3.64
  -9   2  12   38.82    4.04
   9   2 -12   28.52    3.92
  -8   2  12  262.78   14.35
   8   2 -12  252.76   13.95
  -8   2  12  261.50   14.43
   8  -2 -12  274.56   13.64
   8   2 -12  269.61   14.34
  -7   2  12  117.09    7.54
   7  -2 -12  110.55    6.75
   6   2 -12  188.09   11.75
  -6   2  12  223.97   12.06
   6  -2 -12  211.04   11.43
   5   2 -12    6.34    3.15
   5  -2 -12    4.29    2.75
   5   2 -12    0.90    2.74
   4   2 -12  143.18    9.18
   4  -2 -12  160.19    8.96
   4   2 -12  134.00    8.72
   3   2 -12    8.50    3.00
   3   2 -12    4.40    2.78
   3  -2 -12    1.27    2.10
   2   2 -12  163.06    9.42
   2   2 -12  133.40    8.46
   2  -2 -12  144.22    8.41
   1   2 -12   22.72    3.78
   1   2 -12   22.11    3.05
   1  -2 -12   22.94    3.08
   0   2 -12  156.89    9.02
   0  -2 -12  172.88    9.37
  -1  -2 -12  100.09    6.48
  -1   2 -12  105.90    7.09
  -2   2 -12   13.39    2.97
  -2   2 -12   10.21    2.81
  -2  -2 -12    9.22    2.29
  -2   2 -12    6.15    2.00
  -3  -2 -12   86.17    5.45
  -3   2 -12   77.60    5.04
  -3   2 -12   91.12    5.99
  -3  -2 -12   85.26    5.47
  -4   2 -12   -0.98    2.03
  -4  -2 -12   -0.27    1.67
  -4  -2 -12   -0.87    1.65
  -5  -2 -12   94.94    5.62
  -5   2 -12   96.09    5.95
  -5  -2 -12  101.59    5.55
  -6  -2 -12    2.01    1.29
  -6  -2 -12    1.02    1.03
  14   3 -12   13.14    1.64
 -14   3  12   16.00    1.75
 -13   3  12   53.40    3.95
  13   3 -12   54.02    3.74
 -12   3  12   36.33    3.36
 -12   3  12   37.55    3.46
  12   3 -12   38.65    3.35
 -11   3  12    2.18    2.04
 -11   3  12    2.13    2.08
  11   3 -12    2.61    2.25
 -11   3  12    0.13    1.54
  10   3 -12   18.36    2.42
 -10   3  12   18.36    2.97
 -10   3  12   22.90    3.10
  10   3 -12   16.89    2.98
 -10   3  12   17.61    2.56
  -9   3  12    5.94    2.48
   9   3 -12   11.93    2.35
  -9   3  12    6.49    2.50
  -9   3  12    6.93    2.09
  -8   3  12    2.64    2.47
   8   3 -12    3.51    2.43
  -8   3  12    2.29    2.32
  -8   3  12   -0.20    2.21
   7   3 -12   31.47    3.73
  -7   3  12   28.87    3.52
   7   3 -12   27.28    3.48
  -7   3  12   24.63    3.36
   6   3 -12   45.67    4.61
  -6   3  12   52.05    4.59
   6   3 -12   57.31    4.49
   5   3 -12    8.10    2.91
  -5   3  12    5.86    2.52
   5   3 -12    8.38    2.54
  -5   3  12    9.58    2.73
   4   3 -12   36.24    3.91
  -4   3  12   29.63    3.38
   4   3 -12   26.12    3.16
  -4   3  12   23.81    3.46
   3   3 -12    1.91    2.58
  -3   3  12    3.45    2.32
   3   3 -12   -0.31    2.03
  -3   3  12   -0.23    2.26
   2   3 -12   -1.04    2.49
  -2   3  12    1.32    1.98
   2   3 -12   -0.69    1.92
  -2   3  12    0.43    2.07
  -1   3  12    6.48    2.22
   0   3 -12    1.49    2.42
   0   3  12    0.16    1.70
  -1   3 -12    4.39    2.33
   1   3  12    0.13    1.38
  -1   3 -12    0.91    2.16
  -1  -3 -12    4.20    1.54
  -2   3 -12   -1.01    2.00
  -2   3 -12    0.98    2.09
  -2  -3 -12    1.13    1.33
  -2  -3 -12    2.91    1.78
  -3  -3 -12   -1.38    1.31
  -4  -3 -12   22.19    1.87
  -4   3 -12   25.71    2.47
  -5   3 -12    3.56    1.15
  -5  -3 -12    4.17    1.10
 -11   4  12    7.24    1.65
 -10   4  12   22.77    2.47
 -10   4  12   18.56    2.01
  10   4 -12   21.68    2.33
  -9   4  12   75.33    4.91
   9   4 -12   76.31    4.77
  -9   4  12   77.19    4.79
   9   4 -12   78.52    4.96
  -9   4  12   80.97    4.98
  -8   4  12   10.27    2.05
  -8   4  12    7.98    1.88
  -8   4  12    6.82    2.16
   8   4 -12    2.63    1.91
  -8   4  12    6.71    1.63
   8   4 -12    9.81    1.99
   7   4 -12   72.17    4.91
  -7   4  12   66.43    4.39
   7   4 -12   64.76    4.50
  -6   4  12   58.23    4.32
  -6   4  12   57.68    4.48
   6   4 -12   52.70    4.22
  -6   4  12   55.35    4.31
   6   4 -12   50.16    3.74
  -5   4  12   20.71    2.83
  -5   4  12   16.41    2.61
   5   4 -12   21.79    2.83
  -4   4  12   15.25    2.48
  -4   4  12   20.07    2.58
   4   4 -12   14.93    2.63
  -3   4  12    0.15    1.70
  -3   4  12    3.29    1.84
  -2   4  12  112.57    6.65
  -2   4  12  116.32    6.58
  -1   4  12    7.12    1.60
  -1   4  12   12.55    1.83
   1   4 -12    9.52    2.18
   1  -4 -12   14.75    1.90
   0   4 -12   56.72    4.04
   0  -4 -12   60.04    3.78
  -1   4 -12   33.96    2.80
  -1  -4 -12   33.44    2.51
  -2   4 -12    1.35    1.13
  -2  -4 -12    0.45    0.96
 -15   0  13   -0.10    1.45
 -14   0  13    0.64    1.83
 -13   0  13    0.16    2.09
 -12   0  13    0.15    1.76
  12   0 -13    0.11    1.60
 -11   0  13    1.40    2.06
  11   0 -13   -1.38    1.97
 -10   0  13    1.37    2.09
  10   0 -13   -1.65    2.18
  -9   0  13    3.79    2.27
   9   0 -13    1.31    2.28
   8   0 -13   -3.22    2.49
   7   0 -13    2.51    2.57
   6   0 -13   -1.71    2.56
   5   0 -13    3.22    2.58
   4   0 -13    0.43    2.51
   1   0 -13   -2.28    2.44
   1   0 -13   -1.61    2.12
   0   0 -13    3.72    2.15
   0   0 -13    0.38    2.14
   0   0 -13   -0.80    1.99
  -1   0 -13   -1.07    1.91
  -1   0 -13    0.71    2.05
  -2   0 -13   -0.57    1.92
  -3   0 -13    0.89    1.69
  -4   0 -13   -0.43    1.57
  -4   0 -13   -0.34    1.45
  -5   0 -13    0.17    1.23
  -5   0 -13    1.26    1.11
 -15   1  13   43.41    2.99
 -15  -1  13   49.09    3.12
 -14   1  13    5.81    1.63
 -14   1  13    8.10    1.81
 -14  -1  13    5.25    1.80
 -13   1  13  180.13   10.04
  13   1 -13  183.90    9.61
 -13   1  13  204.04   10.11
 -13  -1  13  200.62   10.18
 -12   1  13    0.85    2.03
  12   1 -13    5.43    1.90
 -11   1  13  118.78    7.58
  11   1 -13  125.78    7.36
 -10   1  13  138.38    8.39
  10  -1 -13  139.63    7.63
  10   1 -13  136.25    8.21
  -9  -1  13    0.17    1.96
   9  -1 -13    0.30    2.10
   9   1 -13    2.73    2.55
   8  -1 -13  238.63   12.40
   8   1 -13  228.45   12.66
   7   1 -13   -1.82    2.60
   7  -1 -13    1.13    2.44
   7   1 -13    0.21    2.58
   6  -1 -13  272.43   13.28
   6   1 -13  260.19   13.37
   5   1 -13   11.27    3.21
   5  -1 -13   10.94    2.89
   4   1 -13  274.28   13.69
   4  -1 -13  282.91   13.35
   3   1 -13   71.78    5.85
   3  -1 -13   87.22    5.65
   3   1 -13   75.49    5.49
   3   1 -13   59.82    5.25
   2   1 -13  127.37    7.86
   2  -1 -13  133.86    7.52
   2   1 -13  106.07    7.05
   2  -1 -13  117.46    7.18
   2   1 -13   96.27    7.09
   1   1 -13  174.06    9.66
   1  -1 -13  174.43    9.65
   1   1 -13  164.30    9.73
   0   1 -13    3.99    2.13
   0   1 -13    3.65    2.38
   0  -1 -13    6.74    2.23
  -1   1 -13   32.82    3.25
  -1   1 -13   32.60    3.52
  -1  -1 -13   37.19    3.48
  -2   1 -13    2.01    2.00
  -2  -1 -13    4.25    1.94
  -2   1 -13    2.27    1.76
  -2  -1 -13    3.00    1.60
  -3  -1 -13   18.56    2.10
  -3   1 -13   23.14    2.63
  -3  -1 -13   28.44    2.67
  -3   1 -13   23.68    2.47
  -4  -1 -13    0.36    1.12
  -4   1 -13    0.45    1.54
  -4  -1 -13    0.54    1.41
  -4   1 -13   -2.14    1.31
  -5  -1 -13   53.65    3.34
  -5   1 -13   52.08    3.44
 -14   2  13  180.93    9.14
 -13   2  13   43.75    3.43
  13   2 -13   41.86    3.09
 -13  -2  13   43.44    2.97
  12   2 -13  240.85   12.30
 -12   2  13  239.13   11.88
 -12  -2  13  250.42   12.10
  11   2 -13  106.03    6.30
 -11   2  13   98.74    5.87
 -10   2  13  312.23   14.70
  10   2 -13  299.88   14.43
  -9   2  13  231.02   12.27
   9   2 -13  233.87   12.14
  -9   2  13  213.44   11.85
   8   2 -13   92.74    5.94
  -8   2  13   92.65    6.33
   8   2 -13   89.23    6.22
   7   2 -13  425.42   22.31
  -7   2  13  498.18   22.81
   6   2 -13   14.21    3.28
  -6   2  13   14.73    2.95
   5   2 -13  372.83   18.73
   5   2 -13  361.67   18.37
   5  -2 -13  338.66   17.76
   4   2 -13   94.01    6.61
   4   2 -13   98.52    6.15
   4  -2 -13   88.41    5.70
   3   2 -13  143.17    8.18
   3  -2 -13  127.73    7.79
   2   2 -13  286.59   14.58
   2   2 -13  271.70   13.82
   2  -2 -13  266.54   13.73
   1   2 -13   51.19    4.57
   1   2 -13   48.03    3.84
   1  -2 -13   51.96    3.89
   1   2 -13   54.32    4.45
   0   2 -13  298.19   15.80
   0  -2 -13  342.49   15.97
   0   2 -13  335.13   16.40
   1   2  13    2.83    1.57
  -1   2 -13    5.34    2.21
  -1  -2 -13    7.19    1.84
  -1   2 -13   10.67    1.85
  -1  -2 -13    5.35    1.80
  -2  -2 -13  243.45   12.03
  -2   2 -13  251.19   12.44
  -2  -2 -13  234.77   12.00
  -3  -2 -13   28.05    2.32
  -3   2 -13   27.83    2.65
  -3  -2 -13   25.79    2.27
  -4  -2 -13   88.45    4.83
  -4   2 -13   90.49    5.08
 -12   3  13   45.45    3.11
  12   3 -13   42.72    2.99
 -11   3  13   61.87    3.79
  11   3 -13   59.99    3.67
 -10   3  13  170.51    8.25
  10   3 -13  162.07    8.12
 -10   3  13  139.39    7.86
 -10   3  13  125.44    7.61
  -9   3  13   74.76    4.63
   9   3 -13   60.07    4.14
  -9   3  13   74.96    4.83
  -9   3  13   63.85    4.48
  -8   3  13  290.99   13.79
   8   3 -13  249.02   13.38
  -8   3  13  283.11   13.81
   8   3 -13  264.93   13.57
  -8   3  13  267.81   13.66
   7   3 -13   12.21    2.56
  -7   3  13   12.68    2.44
  -7   3  13    7.98    2.38
   6   3 -13  573.87   27.08
  -6   3  13  581.90   26.97
   6   3 -13  548.40   26.74
   5   3 -13  112.81    6.92
  -5   3  13  110.74    6.46
   5   3 -13   98.43    6.21
  -5   3  13  110.70    6.76
   4   3 -13  446.97   19.85
  -4   3  13  432.76   19.43
   4   3 -13  361.34   19.04
  -4   3  13  378.61   19.67
   3   3 -13  218.89   11.50
  -3   3  13  221.73   11.04
  -3   3  13  205.37   11.39
   2   3 -13  163.10    8.37
  -2   3  13  128.22    7.95
  -1   3  13  165.16    9.29
  -1   3  13  183.39    9.60
   0   3 -13   29.46    2.80
   0  -3 -13   25.76    2.43
  -1   3 -13  325.58   15.81
  -2   3 -13   25.96    2.30
  -8   4  13   13.76    1.65
  -7   4  13  120.47    6.47
   6   4 -13   -0.88    1.65
  -6   4  13    2.73    1.47
  -6   4  13    1.38    1.43
  -6   4  13    0.30    1.38
   5   4 -13  176.50    9.30
  -5   4  13  168.36    9.25
  -5   4  13  163.41    9.25
   4   4 -13   34.20    2.93
  -4   4  13   25.67    2.54
  -4   4  13   34.11    2.73
  -3   4  13  158.49    8.59
   3   4 -13  189.04    8.77
   2   4 -13  187.47    9.32
 -14   0  14   85.64    4.70
 -13   0  14   52.89    3.63
 -12   0  14  169.06    8.99
 -11   0  14   19.43    2.37
  11   0 -14   19.89    2.07
 -10   0  14  420.78   20.11
  10   0 -14  409.76   19.84
  -9   0  14   45.38    3.73
   9   0 -14   35.91    3.41
  -8   0  14  704.34   31.44
   8   0 -14  622.89   31.11
   7   0 -14  260.36   13.47
   6   0 -14  287.41   14.65
   5   0 -14  382.35   18.86
   4   0 -14   77.03    5.36
   2   0 -14   16.07    2.49
   1   0 -14  406.63   19.72
   0   0 -14   48.28    3.67
  -3   0 -14   97.90    5.18
 -13   1  14  163.29    8.27
 -13  -1  14  168.75    8.40
 -12   1  14   25.57    2.64
  12   1 -14   29.97    2.39
 -12   1  14   30.58    2.66
 -12  -1  14   34.42    2.88
 -11   1  14  309.04   14.81
  11   1 -14  287.26   14.47
 -10   1  14    2.13    1.80
  10   1 -14    2.64    1.91
   9  -1 -14  315.77   15.19
   9   1 -14  307.55   15.62
  -8  -1  14   41.01    3.43
   8  -1 -14   40.38    3.47
   8   1 -14   43.83    3.82
  -7   1  14  294.28   14.23
   7  -1 -14  278.87   13.73
   7   1 -14  247.87   13.81
   6  -1 -14  118.59    7.13
   6   1 -14  112.96    7.21
   5  -1 -14  100.34    6.01
   5  -1 -14   86.18    5.60
   4   1 -14  367.62   17.79
   4  -1 -14  354.74   17.57
   3   1 -14   59.34    4.32
   3  -1 -14   55.24    4.14
   2   1 -14  433.68   20.15
   2   1 -14  386.32   19.77
   2  -1 -14  438.91   20.11
   1   1 -14    0.21    1.54
   1  -1 -14   -0.38    1.59
   1   1 -14    2.07    1.62
   0   1 -14  131.83    7.16
   0  -1 -14  138.41    7.31
   0   1 -14  129.87    7.25
  -1   1 -14   32.69    2.72
  -1  -1 -14   37.26    2.89
  -1   1 -14   38.42    2.84
  -2  -1 -14   49.98    3.20
  -2   1 -14   48.76    3.09
  -2   1 -14   47.32    3.03
  11   2 -14    7.22    1.60
 -10   2  14   33.28    2.89
  10   2 -14   34.26    2.81
  -9   2  14    6.60    2.09
   9   2 -14    9.79    2.10
  -9   2  14    4.39    1.52
  -8   2  14   40.85    3.44
   8   2 -14   40.17    3.34
  -7   2  14   12.12    2.30
  -7   2  14   10.69    2.08
   6   2 -14   97.90    6.79
   6   2 -14  119.48    6.84
   5   2 -14   44.18    4.05
   5   2 -14   40.89    3.42
  -4   2  14   19.20    2.54
   4   2 -14   18.96    2.34
   4   2 -14   11.52    2.09
  -3   2  14   85.66    5.01
   3   2 -14   80.03    4.58
   3   2 -14   71.26    4.60
  -2   2  14    6.24    1.84
   2   2 -14    7.08    1.51
  -2   2  14    6.09    1.78
   2   2 -14    4.87    1.59
   2   2 -14    6.28    1.70
   2  -2 -14    8.16    1.41
  -1   2  14   20.76    2.24
  -1   2  14   22.57    2.28
   1  -2 -14   26.51    2.07
   1   2 -14   23.74    2.35
   1   2 -14   22.14    2.15
   1  -2 -14   28.45    2.33
   0  -2 -14   26.80    1.99
   0   2 -14   26.61    2.34
   0  -2 -14   24.80    2.19
  -1   2 -14   39.40    2.71
  -8   3  14    5.50    1.27
   8   3 -14    7.77    1.42
  -7   3  14    1.83    1.33
   7   3 -14    0.07    1.25
  -6   3  14    8.08    1.76
  -6   3  14   10.96    1.76
   6   3 -14    9.20    1.73
   6   3 -14    9.69    1.49
  -5   3  14    0.51    1.23
  -5   3  14   -1.60    1.35
   5   3 -14    3.02    1.50
  -4   3  14    1.32    1.14
  -4   3  14    1.00    1.26
  -3   3  14    0.51    1.04
   2  -3 -14    2.01    1.06
 -11   0  15   -0.44    1.09
  -9   0  15   -0.63    1.31
   9   0 -15   -0.30    1.28
  -8   0  15    0.11    1.37
   8   0 -15   -1.10    1.43
  -7   0  15    2.31    1.53
   7   0 -15   -1.63    1.57
  -6   0  15   -0.12    1.51
   6   0 -15    2.12    1.55
   5   0 -15    1.30    1.41
   4   0 -15   -0.10    1.38
   3   0 -15    0.09    1.24
   2   0 -15   -1.04    1.17
   1   0 -15   -0.07    0.99
 -10   1  15   27.39    2.36
   9   1 -15   21.70    2.05
  -9   1  15   18.30    2.16
   8   1 -15   19.92    2.11
  -8   1  15   13.58    1.79
  -7  -1  15   45.45    3.37
   7   1 -15   54.24    3.76
  -6   1  15    4.21    1.65
  -6  -1  15    1.15    1.29
  -5  -1  15   77.53    4.63
   5  -1 -15   62.45    4.18
   4   1 -15    7.58    1.69
   4  -1 -15    8.63    1.38
  -3   1  15   85.75    4.67
   3  -1 -15   63.29    3.96
  -2   1  15   13.53    1.75
   2   1 -15   13.02    1.54
   7   2 -15   18.64    1.84
  -5   2  15    2.04    1.14
   0   0   0    0.00    0.00


TITL tf-38 in P2/c
REM P2/c (#13 in standard setting)
CELL 1.54184  16.226238   6.037351  12.339987  90.0000 106.9254  90.0000
ZERR    4.00   0.000267   0.000091   0.000225   0.0000   0.0018   0.0000
LATT  1
SYMM -x, y,-z+1/2
SFAC C H N O Se
UNIT 56.00 44.00 4.00 4.00 4.00
TREF
HKLF 4
END
_computing_structure_solution     'SHELXT 2018/2 (Sheldrick, 2018)'
;
_shelx_hkl_checksum                34882
_olex2_submission_special_instructions  'No special instructions were received'
_oxdiff_exptl_absorpt_empirical_details
;
Empirical correction (ABSPACK) includes:
- Absorption correction using spherical harmonics
- Frame scaling
;
_oxdiff_exptl_absorpt_empirical_full_max  1.407
_oxdiff_exptl_absorpt_empirical_full_min  0.782
