data_tf-42-smart-twin-abs_twin1_hklf4
_audit_creation_date               2020-09-30
_audit_creation_method
;
Olex2 1.3
(compiled 2020.07.31 svn.rc2a77460 for OlexSys, GUI svn.r6145)
;
_shelx_SHELXL_version_number       '2018/3'
_audit_contact_author_address      ?
_audit_contact_author_email        ?
_audit_contact_author_name         ''
_audit_contact_author_phone        ?
_publ_contact_author_id_orcid      ?
_publ_section_references
;
Dolomanov, O.V., Bourhis, L.J., Gildea, R.J, Howard, J.A.K. & Puschmann, H.
 (2009), J. Appl. Cryst. 42, 339-341.

Sheldrick, G.M. (2015). Acta Cryst. A71, 3-8.

Sheldrick, G.M. (2015). Acta Cryst. C71, 3-8.
;
_chemical_name_common              ?
_chemical_name_systematic          ?
_chemical_formula_moiety           'Cl6 Sn, 2(H2 O), C13 H13 N3'
_chemical_formula_sum              'C13 H17 Cl6 N3 O2 Sn'
_chemical_formula_weight           578.68
_chemical_melting_point            ?
_chemical_oxdiff_formula           C13H17Cl6N3O2Sn
loop_
  _atom_type_symbol
  _atom_type_description
  _atom_type_scat_dispersion_real
  _atom_type_scat_dispersion_imag
  _atom_type_scat_source
 'C' 'C' 0.0181 0.0091 'International Tables Vol C Tables 4.2.6.8 and 6.1.1.4'
 'H' 'H' 0.0000 0.0000 'International Tables Vol C Tables 4.2.6.8 and 6.1.1.4'
 'Cl' 'Cl' 0.3639 0.7018 'International Tables Vol C Tables 4.2.6.8 and 6.1.1.4'
 'N' 'N' 0.0311 0.0180 'International Tables Vol C Tables 4.2.6.8 and 6.1.1.4'
 'O' 'O' 0.0492 0.0322 'International Tables Vol C Tables 4.2.6.8 and 6.1.1.4'
 'Sn' 'Sn' 0.0259 5.4591 'International Tables Vol C Tables 4.2.6.8 and 6.1.1.4'

_shelx_space_group_comment
;
The symmetry employed for this shelxl refinement is uniquely defined
by the following loop, which should always be used as a source of
symmetry information in preference to the above space-group names.
They are only intended as comments.
;
_space_group_crystal_system        'monoclinic'
_space_group_IT_number             14
_space_group_name_H-M_alt          'P 1 21/c 1'
_space_group_name_Hall             '-P 2ybc'
loop_
  _space_group_symop_operation_xyz
 'x, y, z'
 '-x, y+1/2, -z+1/2'
 '-x, -y, -z'
 'x, -y-1/2, z-1/2'

_cell_length_a                     6.93400(10)
_cell_length_b                     24.1777(4)
_cell_length_c                     12.2079(3)
_cell_angle_alpha                  90
_cell_angle_beta                   97.186(2)
_cell_angle_gamma                  90
_cell_volume                       2030.56(7)
_cell_formula_units_Z              4
_cell_measurement_reflns_used      5167
_cell_measurement_temperature      99.98(10)
_cell_measurement_theta_max        76.5200
_cell_measurement_theta_min        6.4120
_shelx_estimated_absorpt_T_max     ?
_shelx_estimated_absorpt_T_min     ?
_exptl_absorpt_coefficient_mu      17.403
_exptl_absorpt_correction_T_max    0.688
_exptl_absorpt_correction_T_min    0.196
_exptl_absorpt_correction_type     analytical
_exptl_absorpt_process_details
;
CrysAlisPro 1.171.40.67a (Rigaku Oxford Diffraction, 2019)
Analytical numeric absorption correction using a multifaceted crystal
			model based on expressions derived by R.C. Clark & J.S. Reid.
(Clark, R. C. & Reid, J. S. (1995). Acta Cryst. A51, 887-897)
Empirical absorption correction using spherical harmonics,
 implemented in SCALE3 ABSPACK scaling algorithm.
;
_exptl_absorpt_special_details     ?
_exptl_crystal_colour              'light brown'
_exptl_crystal_colour_modifier     light
_exptl_crystal_colour_primary      brown
_exptl_crystal_density_diffrn      1.893
_exptl_crystal_density_meas        ?
_exptl_crystal_density_method      ?
_exptl_crystal_description         needle
_exptl_crystal_F_000               1136
loop_
  _exptl_crystal_face_index_h
  _exptl_crystal_face_index_k
  _exptl_crystal_face_index_l
  _exptl_crystal_face_perp_dist
 0 1 -1 0.0148
 0 -1 1 0.0109
 0 2 1 0.0166
 0 -2 -1 0.0115
 1 2 0 0.0998
 -1 -2 0 0.1128
 0 1 0 0.0137

_exptl_crystal_size_max            0.267
_exptl_crystal_size_mid            0.032
_exptl_crystal_size_min            0.026
loop_
  _exptl_oxdiff_crystal_face_indexfrac_h
  _exptl_oxdiff_crystal_face_indexfrac_k
  _exptl_oxdiff_crystal_face_indexfrac_l
  _exptl_oxdiff_crystal_face_x
  _exptl_oxdiff_crystal_face_y
  _exptl_oxdiff_crystal_face_z
 0.0010 1.0018 -1.0014 -0.1125 0.0814 -0.0315
 -0.0010 -1.0018 1.0014 0.1125 -0.0814 0.0315
 -0.0003 1.9999 1.0018 -0.0538 -0.1310 0.1113
 0.0003 -1.9999 -1.0018 0.0538 0.1310 -0.1113
 0.9999 1.9984 -0.4387 -0.0786 0.1184 0.2150
 -0.9999 -1.9984 0.4387 0.0786 -0.1184 -0.2150
 0.0002 1.0006 0.0001 -0.0555 -0.0166 0.0266

_exptl_transmission_factor_max     ?
_exptl_transmission_factor_min     ?
_diffrn_reflns_av_R_equivalents    ?
_diffrn_reflns_av_unetI/netI       0.0276
_diffrn_reflns_Laue_measured_fraction_full  0.992
_diffrn_reflns_Laue_measured_fraction_max  0.971
_diffrn_reflns_limit_h_max         8
_diffrn_reflns_limit_h_min         -7
_diffrn_reflns_limit_k_max         30
_diffrn_reflns_limit_k_min         -30
_diffrn_reflns_limit_l_max         15
_diffrn_reflns_limit_l_min         -15
_diffrn_reflns_number              7450
_diffrn_reflns_point_group_measured_fraction_full  0.992
_diffrn_reflns_point_group_measured_fraction_max  0.971
_diffrn_reflns_theta_full          67.684
_diffrn_reflns_theta_max           77.029
_diffrn_reflns_theta_min           5.169
_diffrn_ambient_environment        N~2~
_diffrn_ambient_temperature        99.98(10)
_diffrn_detector                   'Hybrid Pixel Array Detector'
_diffrn_detector_area_resol_mean   10.0000
_diffrn_detector_type              HyPix
_diffrn_measured_fraction_theta_full  0.992
_diffrn_measured_fraction_theta_max  0.971
_diffrn_measurement_details
;
List of Runs (angles in degrees, time in seconds):

  # Type    Start    End  Width  t~exp~   \w     \q     \k     \f   Frames
--------------------------------------------------------------------------
  1  \w    -71.00 -37.00   0.50    0.36    --  -48.32  89.00  74.00   68
  2  \w    -36.00  24.00   0.50    0.36    --  -48.32  89.00  74.00  120
  3  \w    -48.00 -14.00   0.50    1.45    --  -86.25  45.00 -90.00   68
  4  \w    -68.00 -42.00   0.50    1.45    --  -86.25  89.00  74.00   52
  5  \w   -119.00 -82.00   0.50    0.36    --  -48.32 -57.00   0.00   74
  6  \w   -104.00 -79.00   0.50    1.45    --  -86.25 -89.00 -40.00   50
  7  \w   -118.00 -85.00   0.50    0.36    --  -48.32 -57.00 -30.00   66
  8  \w   -156.00-131.00   0.50    1.45    --  -86.25 -89.00 -40.00   50
  9  \w    -19.00  77.00   0.50    0.36    --   48.32 -89.00 -40.00  192
 10  \w     61.00 105.00   0.50    1.45    --  107.75 -89.00 -40.00   88
 11  \w     37.00  64.00   0.50    1.45    --  107.75 -61.00   0.00   54
 12  \w     36.00 109.00   0.50    1.45    --  107.75 -77.00 -30.00  146
 13  \w    124.00 172.00   0.50    1.45    --  107.75  15.00   0.00   96
 14  \w    103.00 178.00   0.50    1.45    --  107.75  89.00  74.00  150
 15  \w     95.00 178.00   0.50    1.45    --  107.75  45.00  60.00  166
 16  \w     98.00 134.00   0.50    1.45    --  107.75 125.00 -90.00   72
 17  \w    153.00 178.00   0.50    1.45    --  107.75 125.00 -90.00   50
 18  \w     94.00 119.00   0.50    1.45    --  107.75  15.00   0.00   50
 19  \w     35.00  68.00   0.50    1.45    --  107.75 -61.00 120.00   66
 20  \w     35.00  69.00   0.50    1.45    --  107.75 -61.00 150.00   68
 21  \w     49.00 112.00   0.50    1.45    --  107.75-125.00 120.00  126
 22  \w     35.00 106.00   0.50    1.45    --  107.75 -94.00-150.00  142
;
_diffrn_measurement_device         'four-circle diffractometer'
_diffrn_measurement_device_type    'XtaLAB Synergy, Dualflex, HyPix'
_diffrn_measurement_method         '\w scans'
_diffrn_orient_matrix_type        
 'CrysAlisPro convention (1999,Acta A55,543-557)'
_diffrn_orient_matrix_UB_11        0.0571873000
_diffrn_orient_matrix_UB_12        -0.0554442000
_diffrn_orient_matrix_UB_13        0.0569654000
_diffrn_orient_matrix_UB_21        0.1086713000
_diffrn_orient_matrix_UB_22        -0.0165608000
_diffrn_orient_matrix_UB_23        -0.0977034000
_diffrn_orient_matrix_UB_31        0.1875233000
_diffrn_orient_matrix_UB_32        0.0265372000
_diffrn_orient_matrix_UB_33        0.0581560000
_diffrn_radiation_monochromator    mirror
_diffrn_radiation_probe            x-ray
_diffrn_radiation_type             'Cu K\a'
_diffrn_radiation_wavelength       1.54184
_diffrn_source                     'micro-focus sealed X-ray tube'
_diffrn_source_type                'PhotonJet (Cu) X-ray Source'
_reflns_Friedel_coverage           0.000
_reflns_Friedel_fraction_full      .
_reflns_Friedel_fraction_max       .
_reflns_number_gt                  6356
_reflns_number_total               7450
_reflns_special_details
;
 _reflns_Friedel_fraction is defined as the number of unique
 Friedel pairs measured divided by the number that would be
 possible theoretically, ignoring centric projections and
 systematic absences. Completness statistics refer to single and
 composite reflections containing twin component 1 only.
;
_reflns_threshold_expression       'I > 2\s(I)'
_computing_cell_refinement         'CrysAlisPro 1.171.40.67a (Rigaku OD, 2019)'
_computing_data_collection         'CrysAlisPro 1.171.40.67a (Rigaku OD, 2019)'
_computing_data_reduction          'CrysAlisPro 1.171.40.67a (Rigaku OD, 2019)'
_computing_molecular_graphics      'Olex2 1.3 (Dolomanov et al., 2009)'
_computing_publication_material    'Olex2 1.3 (Dolomanov et al., 2009)'
_computing_structure_refinement    'SHELXL 2018/3 (Sheldrick, 2015)'
_computing_structure_solution      'SHELXT  (Sheldrick, 2015)'
_refine_diff_density_max           1.201
_refine_diff_density_min           -1.356
_refine_diff_density_rms           0.196
_refine_ls_extinction_coef         .
_refine_ls_extinction_method       none
_refine_ls_goodness_of_fit_ref     1.095
_refine_ls_hydrogen_treatment      mixed
_refine_ls_matrix_type             full
_refine_ls_number_parameters       248
_refine_ls_number_reflns           7450
_refine_ls_number_restraints       0
_refine_ls_R_factor_all            0.0591
_refine_ls_R_factor_gt             0.0515
_refine_ls_restrained_S_all        1.095
_refine_ls_shift/su_max            0.000
_refine_ls_shift/su_mean           0.000
_refine_ls_structure_factor_coef   Fsqd
_refine_ls_weighting_details      
 'w=1/[\s^2^(Fo^2^)+(0.1003P)^2^+4.2133P] where P=(Fo^2^+2Fc^2^)/3'
_refine_ls_weighting_scheme        calc
_refine_ls_wR_factor_gt            0.1555
_refine_ls_wR_factor_ref           0.1626
_refine_special_details
;
 Refined as a 2-component twin.
;
_olex2_refinement_description
;
1. Twinned data refinement
 Scales: 0.8266(9)
 0.1734(9)
2. Fixed Uiso
 At 1.2 times of:
  All C(H) groups, All N(H) groups, All N(H,H,H) groups
 At 1.5 times of:
  All O(H,H) groups
3.a Aromatic/amide H refined with riding coordinates:
 N2(H2), N3(H3), C3(H3A), C5(H5), C6(H6), C9(H9), C10(H10), C11(H11), C12(H12),
  C13(H13)
;
_atom_sites_solution_hydrogens     mixed
_atom_sites_solution_primary       dual
_atom_sites_solution_secondary     ?
loop_
  _atom_site_label
  _atom_site_type_symbol
  _atom_site_fract_x
  _atom_site_fract_y
  _atom_site_fract_z
  _atom_site_U_iso_or_equiv
  _atom_site_adp_type
  _atom_site_occupancy
  _atom_site_site_symmetry_order
  _atom_site_calc_flag
  _atom_site_refinement_flags_posn
  _atom_site_refinement_flags_adp
  _atom_site_refinement_flags_occupancy
  _atom_site_disorder_assembly
  _atom_site_disorder_group
 Sn1 Sn 0.23529(6) 0.31426(2) 0.33015(3) 0.01925(17) Uani 1 1 d . . . . .
 Cl1 Cl 0.2735(2) 0.34502(7) 0.52210(12) 0.0270(3) Uani 1 1 d . . . . .
 Cl2 Cl 0.1956(2) 0.28939(7) 0.13611(13) 0.0263(3) Uani 1 1 d . . . . .
 Cl3 Cl -0.0245(2) 0.25233(6) 0.36194(13) 0.0247(3) Uani 1 1 d . . . . .
 Cl4 Cl 0.4713(2) 0.24229(7) 0.37343(13) 0.0250(3) Uani 1 1 d . . . . .
 Cl5 Cl 0.5013(2) 0.37628(7) 0.29549(13) 0.0255(3) Uani 1 1 d . . . . .
 Cl6 Cl 0.0053(2) 0.38926(7) 0.28896(13) 0.0258(3) Uani 1 1 d . . . . .
 O1 O 0.8002(9) 0.3516(2) 1.0217(5) 0.0331(12) Uani 1 1 d . . . . .
 H1D H 0.736(18) 0.331(5) 1.045(10) 0.050 Uiso 1 1 d . U . . .
 H1E H 0.925(17) 0.341(5) 1.047(9) 0.050 Uiso 1 1 d . U . . .
 O2 O 0.6562(8) 0.2399(2) 0.6327(4) 0.0289(10) Uani 1 1 d . . . . .
 H2A H 0.696(15) 0.233(4) 0.707(9) 0.043 Uiso 1 1 d . U . . .
 H2B H 0.544(17) 0.240(4) 0.630(9) 0.043 Uiso 1 1 d . U . . .
 N1 N 0.7942(10) 0.3321(3) 0.5324(5) 0.0274(12) Uani 1 1 d . . . . .
 H1A H 0.722(14) 0.328(4) 0.462(8) 0.033 Uiso 1 1 d . U . . .
 H1B H 0.747(14) 0.303(4) 0.566(8) 0.033 Uiso 1 1 d . U . . .
 H1C H 0.927(15) 0.326(4) 0.522(8) 0.033 Uiso 1 1 d . U . . .
 N2 N 0.7547(8) 0.4349(2) 0.8811(5) 0.0227(11) Uani 1 1 d . . . . .
 H2 H 0.761676 0.410140 0.932088 0.027 Uiso 1 1 calc R U . . .
 N3 N 0.7317(9) 0.5145(2) 0.7978(5) 0.0265(12) Uani 1 1 d . . . . .
 H3 H 0.720337 0.549625 0.787258 0.032 Uiso 1 1 calc R U . . .
 C1 C 0.7420(10) 0.4758(3) 0.7163(6) 0.0254(13) Uani 1 1 d . . . . .
 C2 C 0.7548(9) 0.4248(3) 0.7687(5) 0.0216(13) Uani 1 1 d . . . . .
 C3 C 0.7694(10) 0.3755(3) 0.7110(6) 0.0248(13) Uani 1 1 d . . . . .
 H3A H 0.776003 0.341077 0.745322 0.030 Uiso 1 1 calc R U . . .
 C4 C 0.7732(9) 0.3818(3) 0.5987(5) 0.0228(13) Uani 1 1 d . . . . .
 C5 C 0.7617(11) 0.4331(3) 0.5445(6) 0.0298(15) Uani 1 1 d . . . . .
 H5 H 0.764917 0.434516 0.468577 0.036 Uiso 1 1 calc R U . . .
 C6 C 0.7458(12) 0.4812(3) 0.6025(6) 0.0324(16) Uani 1 1 d . . . . .
 H6 H 0.737976 0.515532 0.567888 0.039 Uiso 1 1 calc R U . . .
 C7 C 0.7419(9) 0.4893(3) 0.8965(6) 0.0221(12) Uani 1 1 d . . . . .
 C8 C 0.7425(9) 0.5182(3) 1.0023(6) 0.0215(12) Uani 1 1 d . . . . .
 C9 C 0.7533(10) 0.4881(3) 1.1011(6) 0.0268(14) Uani 1 1 d . . . . .
 H9 H 0.760573 0.449691 1.100237 0.032 Uiso 1 1 calc R U . . .
 C10 C 0.7530(10) 0.5161(3) 1.1999(6) 0.0295(15) Uani 1 1 d . . . . .
 H10 H 0.757620 0.496329 1.265505 0.035 Uiso 1 1 calc R U . . .
 C11 C 0.7458(10) 0.5735(3) 1.2018(6) 0.0297(15) Uani 1 1 d . . . . .
 H11 H 0.746018 0.591930 1.268613 0.036 Uiso 1 1 calc R U . . .
 C12 C 0.7382(11) 0.6032(3) 1.1046(6) 0.0305(15) Uani 1 1 d . . . . .
 H12 H 0.735499 0.641649 1.106300 0.037 Uiso 1 1 calc R U . . .
 C13 C 0.7347(10) 0.5758(3) 1.0044(6) 0.0260(14) Uani 1 1 d . . . . .
 H13 H 0.727290 0.595789 0.938935 0.031 Uiso 1 1 calc R U . . .

loop_
  _atom_site_aniso_label
  _atom_site_aniso_U_11
  _atom_site_aniso_U_22
  _atom_site_aniso_U_33
  _atom_site_aniso_U_23
  _atom_site_aniso_U_13
  _atom_site_aniso_U_12
 Sn1 0.0183(2) 0.0179(2) 0.0213(2) 0.00010(14) 0.00159(16) -0.00080(14)
 Cl1 0.0280(8) 0.0293(8) 0.0234(7) -0.0042(6) 0.0020(6) -0.0039(6)
 Cl2 0.0279(8) 0.0267(8) 0.0237(7) -0.0016(6) 0.0010(6) 0.0025(6)
 Cl3 0.0220(7) 0.0228(7) 0.0291(7) -0.0004(6) 0.0027(6) -0.0042(6)
 Cl4 0.0232(7) 0.0224(7) 0.0289(7) 0.0032(6) 0.0014(6) 0.0023(6)
 Cl5 0.0208(7) 0.0231(7) 0.0326(8) 0.0034(6) 0.0028(6) -0.0018(6)
 Cl6 0.0225(7) 0.0223(7) 0.0325(8) 0.0022(6) 0.0028(6) 0.0025(6)
 O1 0.034(3) 0.025(3) 0.038(3) 0.006(2) -0.002(2) -0.002(2)
 O2 0.027(2) 0.034(3) 0.025(2) 0.002(2) 0.003(2) 0.000(2)
 N1 0.029(3) 0.026(3) 0.027(3) -0.003(2) 0.006(2) -0.002(2)
 N2 0.025(3) 0.018(3) 0.024(3) -0.001(2) 0.000(2) 0.000(2)
 N3 0.034(3) 0.017(3) 0.027(3) -0.002(2) 0.000(2) -0.001(2)
 C1 0.027(3) 0.023(3) 0.027(3) -0.001(3) 0.004(3) -0.001(3)
 C2 0.014(3) 0.023(3) 0.028(3) 0.000(3) 0.004(2) 0.002(2)
 C3 0.025(3) 0.020(3) 0.029(3) 0.002(3) 0.002(2) 0.002(3)
 C4 0.019(3) 0.025(3) 0.025(3) -0.005(3) 0.002(2) -0.003(2)
 C5 0.035(4) 0.030(4) 0.024(3) 0.000(3) 0.005(3) -0.006(3)
 C6 0.046(4) 0.023(3) 0.028(3) 0.005(3) 0.003(3) -0.007(3)
 C7 0.020(3) 0.018(3) 0.028(3) 0.001(3) 0.001(2) 0.004(2)
 C8 0.017(3) 0.019(3) 0.029(3) -0.004(2) 0.003(2) -0.001(2)
 C9 0.029(3) 0.024(3) 0.027(3) 0.000(3) 0.001(3) 0.002(3)
 C10 0.028(4) 0.035(4) 0.025(3) -0.004(3) 0.001(3) -0.001(3)
 C11 0.025(3) 0.034(4) 0.029(3) -0.014(3) 0.001(3) 0.002(3)
 C12 0.028(4) 0.024(3) 0.039(4) -0.010(3) 0.003(3) 0.002(3)
 C13 0.028(3) 0.017(3) 0.033(3) -0.002(3) 0.002(3) -0.002(3)

_geom_special_details
;
 All esds (except the esd in the dihedral angle between two l.s. planes)
 are estimated using the full covariance matrix.  The cell esds are taken
 into account individually in the estimation of esds in distances, angles
 and torsion angles; correlations between esds in cell parameters are only
 used when they are defined by crystal symmetry.  An approximate (isotropic)
 treatment of cell esds is used for estimating esds involving l.s. planes.
;
loop_
  _geom_bond_atom_site_label_1
  _geom_bond_atom_site_label_2
  _geom_bond_distance
  _geom_bond_site_symmetry_2
  _geom_bond_publ_flag
 Sn1 Cl1 2.4412(15) . ?
 Sn1 Cl2 2.4260(16) . ?
 Sn1 Cl3 2.4112(15) . ?
 Sn1 Cl4 2.4019(16) . ?
 Sn1 Cl5 2.4545(16) . ?
 Sn1 Cl6 2.4254(16) . ?
 O1 H1D 0.75(13) . ?
 O1 H1E 0.92(12) . ?
 O2 H2A 0.94(11) . ?
 O2 H2B 0.78(12) . ?
 N1 H1A 0.95(10) . ?
 N1 H1B 0.90(10) . ?
 N1 H1C 0.95(10) . ?
 N1 C4 1.466(9) . ?
 N2 H2 0.8600 . ?
 N2 C2 1.394(9) . ?
 N2 C7 1.332(9) . ?
 N3 H3 0.8600 . ?
 N3 C1 1.374(9) . ?
 N3 C7 1.345(9) . ?
 C1 C2 1.386(10) . ?
 C1 C6 1.400(10) . ?
 C2 C3 1.395(10) . ?
 C3 H3A 0.9300 . ?
 C3 C4 1.383(10) . ?
 C4 C5 1.403(10) . ?
 C5 H5 0.9300 . ?
 C5 C6 1.373(11) . ?
 C6 H6 0.9300 . ?
 C7 C8 1.468(9) . ?
 C8 C9 1.403(10) . ?
 C8 C13 1.395(9) . ?
 C9 H9 0.9300 . ?
 C9 C10 1.383(10) . ?
 C10 H10 0.9300 . ?
 C10 C11 1.388(11) . ?
 C11 H11 0.9300 . ?
 C11 C12 1.383(12) . ?
 C12 H12 0.9300 . ?
 C12 C13 1.389(10) . ?
 C13 H13 0.9300 . ?

loop_
  _geom_angle_atom_site_label_1
  _geom_angle_atom_site_label_2
  _geom_angle_atom_site_label_3
  _geom_angle
  _geom_angle_site_symmetry_1
  _geom_angle_site_symmetry_3
  _geom_angle_publ_flag
 Cl1 Sn1 Cl5 89.18(6) . . ?
 Cl2 Sn1 Cl1 176.61(6) . . ?
 Cl2 Sn1 Cl5 88.80(6) . . ?
 Cl3 Sn1 Cl1 91.62(5) . . ?
 Cl3 Sn1 Cl2 90.43(6) . . ?
 Cl3 Sn1 Cl5 179.07(6) . . ?
 Cl3 Sn1 Cl6 90.72(5) . . ?
 Cl4 Sn1 Cl1 91.16(6) . . ?
 Cl4 Sn1 Cl2 91.50(5) . . ?
 Cl4 Sn1 Cl3 90.97(6) . . ?
 Cl4 Sn1 Cl5 88.54(5) . . ?
 Cl4 Sn1 Cl6 178.02(6) . . ?
 Cl6 Sn1 Cl1 87.76(6) . . ?
 Cl6 Sn1 Cl2 89.52(6) . . ?
 Cl6 Sn1 Cl5 89.79(5) . . ?
 H1D O1 H1E 105(10) . . ?
 H2A O2 H2B 102(10) . . ?
 H1A N1 H1B 99(8) . . ?
 H1A N1 H1C 106(8) . . ?
 H1B N1 H1C 111(8) . . ?
 C4 N1 H1A 120(6) . . ?
 C4 N1 H1B 109(6) . . ?
 C4 N1 H1C 111(6) . . ?
 C2 N2 H2 125.7 . . ?
 C7 N2 H2 125.7 . . ?
 C7 N2 C2 108.6(6) . . ?
 C1 N3 H3 125.2 . . ?
 C7 N3 H3 125.2 . . ?
 C7 N3 C1 109.7(6) . . ?
 N3 C1 C2 106.2(6) . . ?
 N3 C1 C6 131.7(7) . . ?
 C2 C1 C6 122.2(7) . . ?
 N2 C2 C3 130.9(6) . . ?
 C1 C2 N2 106.9(6) . . ?
 C1 C2 C3 122.1(6) . . ?
 C2 C3 H3A 122.7 . . ?
 C4 C3 C2 114.7(6) . . ?
 C4 C3 H3A 122.7 . . ?
 C3 C4 N1 118.2(6) . . ?
 C3 C4 C5 124.0(6) . . ?
 C5 C4 N1 117.9(6) . . ?
 C4 C5 H5 119.7 . . ?
 C6 C5 C4 120.6(7) . . ?
 C6 C5 H5 119.7 . . ?
 C1 C6 H6 121.7 . . ?
 C5 C6 C1 116.5(7) . . ?
 C5 C6 H6 121.7 . . ?
 N2 C7 N3 108.7(6) . . ?
 N2 C7 C8 126.9(6) . . ?
 N3 C7 C8 124.4(6) . . ?
 C9 C8 C7 120.3(6) . . ?
 C13 C8 C7 119.7(6) . . ?
 C13 C8 C9 120.0(6) . . ?
 C8 C9 H9 120.3 . . ?
 C10 C9 C8 119.4(7) . . ?
 C10 C9 H9 120.3 . . ?
 C9 C10 H10 119.7 . . ?
 C9 C10 C11 120.5(7) . . ?
 C11 C10 H10 119.7 . . ?
 C10 C11 H11 119.9 . . ?
 C12 C11 C10 120.2(7) . . ?
 C12 C11 H11 119.9 . . ?
 C11 C12 H12 119.9 . . ?
 C11 C12 C13 120.1(7) . . ?
 C13 C12 H12 119.9 . . ?
 C8 C13 H13 120.1 . . ?
 C12 C13 C8 119.8(7) . . ?
 C12 C13 H13 120.1 . . ?

loop_
  _geom_torsion_atom_site_label_1
  _geom_torsion_atom_site_label_2
  _geom_torsion_atom_site_label_3
  _geom_torsion_atom_site_label_4
  _geom_torsion
  _geom_torsion_site_symmetry_1
  _geom_torsion_site_symmetry_2
  _geom_torsion_site_symmetry_3
  _geom_torsion_site_symmetry_4
  _geom_torsion_publ_flag
 N1 C4 C5 C6 -178.7(7) . . . . ?
 N2 C2 C3 C4 -177.2(6) . . . . ?
 N2 C7 C8 C9 -1.4(11) . . . . ?
 N2 C7 C8 C13 177.8(7) . . . . ?
 N3 C1 C2 N2 -0.9(7) . . . . ?
 N3 C1 C2 C3 -179.5(6) . . . . ?
 N3 C1 C6 C5 178.4(7) . . . . ?
 N3 C7 C8 C9 179.9(6) . . . . ?
 N3 C7 C8 C13 -1.0(10) . . . . ?
 C1 N3 C7 N2 -1.3(8) . . . . ?
 C1 N3 C7 C8 177.7(6) . . . . ?
 C1 C2 C3 C4 1.0(10) . . . . ?
 C2 N2 C7 N3 0.7(8) . . . . ?
 C2 N2 C7 C8 -178.2(6) . . . . ?
 C2 C1 C6 C5 0.4(11) . . . . ?
 C2 C3 C4 N1 178.2(6) . . . . ?
 C2 C3 C4 C5 -0.6(10) . . . . ?
 C3 C4 C5 C6 0.1(11) . . . . ?
 C4 C5 C6 C1 0.0(11) . . . . ?
 C6 C1 C2 N2 177.6(7) . . . . ?
 C6 C1 C2 C3 -1.0(11) . . . . ?
 C7 N2 C2 C1 0.1(7) . . . . ?
 C7 N2 C2 C3 178.6(7) . . . . ?
 C7 N3 C1 C2 1.3(8) . . . . ?
 C7 N3 C1 C6 -176.9(8) . . . . ?
 C7 C8 C9 C10 -179.8(6) . . . . ?
 C7 C8 C13 C12 -179.0(6) . . . . ?
 C8 C9 C10 C11 -1.2(11) . . . . ?
 C9 C8 C13 C12 0.1(10) . . . . ?
 C9 C10 C11 C12 0.2(11) . . . . ?
 C10 C11 C12 C13 1.0(11) . . . . ?
 C11 C12 C13 C8 -1.2(11) . . . . ?
 C13 C8 C9 C10 1.0(10) . . . . ?

_shelx_res_file
;
TITL tf-42-smart-twin-abs_twin1_hklf4_a.res in P2(1)/c
    tf-42-smart-twin-abs_twin1_hklf4.res
    created by SHELXL-2018/3 at 15:28:48 on 30-Sep-2020
REM Old TITL tf-42-smart-twin-abs_twin1_hklf4 in P2(1)/c
REM SHELXT solution in P2(1)/c: R1 0.062, Rweak 0.007, Alpha 0.046
REM <I/s> 0.000 for 0 systematic absences, Orientation as input
REM Formula found by SHELXT: C14 N3 O3 Cl6 Sn
CELL 1.54184 6.934 24.1777 12.2079 90 97.186 90
ZERR 4 0.0001 0.0004 0.0003 0 0.002 0
LATT 1
SYMM -X,0.5+Y,0.5-Z
SFAC C H Cl N O Sn
UNIT 52 68 24 12 8 4

L.S. 18
PLAN  6
CONF
BOND
list 4
fmap 2
MORE -1
BOND $H
ACTA
OMIT 4 0 -2
REM <olex2.extras>
REM <HklSrc "%.\\tf-42-smart-twin-abs_twin1_hklf5.hkl">
REM </olex2.extras>

WGHT    0.100300    4.213300
BASF   0.17342
FVAR       1.76105
SN1   6    0.235290    0.314263    0.330149    11.00000    0.01832    0.01793 =
         0.02128    0.00010    0.00159   -0.00080
CL1   3    0.273542    0.345020    0.522104    11.00000    0.02797    0.02934 =
         0.02343   -0.00417    0.00203   -0.00386
CL2   3    0.195621    0.289387    0.136111    11.00000    0.02794    0.02673 =
         0.02370   -0.00157    0.00104    0.00247
CL3   3   -0.024531    0.252326    0.361941    11.00000    0.02202    0.02276 =
         0.02910   -0.00037    0.00274   -0.00420
CL4   3    0.471307    0.242291    0.373432    11.00000    0.02316    0.02237 =
         0.02893    0.00318    0.00135    0.00227
CL5   3    0.501284    0.376280    0.295487    11.00000    0.02081    0.02309 =
         0.03259    0.00344    0.00276   -0.00181
CL6   3    0.005337    0.389260    0.288963    11.00000    0.02250    0.02228 =
         0.03246    0.00224    0.00282    0.00253
O1    5    0.800170    0.351650    1.021732    11.00000    0.03446    0.02537 =
         0.03776    0.00582   -0.00171   -0.00184
H1D   2    0.736368    0.330949    1.045337    11.00000   -1.50000
H1E   2    0.925155    0.340755    1.047162    11.00000   -1.50000
O2    5    0.656156    0.239887    0.632718    11.00000    0.02734    0.03399 =
         0.02549    0.00230    0.00332    0.00033
H2A   2    0.695653    0.232732    0.707449    11.00000   -1.50000
H2B   2    0.543631    0.240099    0.630075    11.00000   -1.50000
N1    4    0.794166    0.332092    0.532435    11.00000    0.02914    0.02614 =
         0.02747   -0.00336    0.00551   -0.00223
H1A   2    0.721716    0.328397    0.461912    11.00000   -1.20000
H1B   2    0.746814    0.302993    0.566492    11.00000   -1.20000
H1C   2    0.926783    0.326127    0.522034    11.00000   -1.20000
N2    4    0.754696    0.434888    0.881144    11.00000    0.02494    0.01788 =
         0.02442   -0.00065   -0.00005   -0.00027
AFIX  43
H2    2    0.761676    0.410140    0.932088    11.00000   -1.20000
AFIX   0
N3    4    0.731653    0.514543    0.797784    11.00000    0.03437    0.01703 =
         0.02710   -0.00169    0.00023   -0.00130
AFIX  43
H3    2    0.720337    0.549625    0.787258    11.00000   -1.20000
AFIX   0
C1    1    0.741974    0.475811    0.716315    11.00000    0.02674    0.02260 =
         0.02712   -0.00111    0.00441   -0.00118
C2    1    0.754844    0.424821    0.768691    11.00000    0.01373    0.02320 =
         0.02814    0.00029    0.00389    0.00181
C3    1    0.769383    0.375481    0.710987    11.00000    0.02466    0.02014 =
         0.02913    0.00158    0.00190    0.00167
AFIX  43
H3A   2    0.776003    0.341077    0.745322    11.00000   -1.20000
AFIX   0
C4    1    0.773164    0.381804    0.598697    11.00000    0.01853    0.02476 =
         0.02503   -0.00493    0.00226   -0.00347
C5    1    0.761707    0.433091    0.544456    11.00000    0.03527    0.03007 =
         0.02427   -0.00030    0.00487   -0.00630
AFIX  43
H5    2    0.764917    0.434516    0.468577    11.00000   -1.20000
AFIX   0
C6    1    0.745799    0.481184    0.602451    11.00000    0.04562    0.02304 =
         0.02813    0.00454    0.00263   -0.00715
AFIX  43
H6    2    0.737976    0.515532    0.567888    11.00000   -1.20000
AFIX   0
C7    1    0.741935    0.489251    0.896464    11.00000    0.02043    0.01754 =
         0.02786    0.00125    0.00061    0.00361
C8    1    0.742456    0.518164    1.002265    11.00000    0.01660    0.01949 =
         0.02854   -0.00379    0.00310   -0.00143
C9    1    0.753269    0.488094    1.101112    11.00000    0.02868    0.02432 =
         0.02684   -0.00049    0.00070    0.00189
AFIX  43
H9    2    0.760573    0.449691    1.100237    11.00000   -1.20000
AFIX   0
C10   1    0.752967    0.516087    1.199865    11.00000    0.02808    0.03451 =
         0.02523   -0.00435    0.00074   -0.00132
AFIX  43
H10   2    0.757620    0.496329    1.265505    11.00000   -1.20000
AFIX   0
C11   1    0.745771    0.573452    1.201781    11.00000    0.02547    0.03410 =
         0.02895   -0.01417    0.00057    0.00209
AFIX  43
H11   2    0.746018    0.591930    1.268613    11.00000   -1.20000
AFIX   0
C12   1    0.738235    0.603204    1.104569    11.00000    0.02842    0.02389 =
         0.03903   -0.00961    0.00309    0.00153
AFIX  43
H12   2    0.735499    0.641649    1.106300    11.00000   -1.20000
AFIX   0
C13   1    0.734746    0.575788    1.004400    11.00000    0.02831    0.01669 =
         0.03269   -0.00166    0.00235   -0.00230
AFIX  43
H13   2    0.727290    0.595789    0.938935    11.00000   -1.20000
AFIX   0
HKLF 5




REM  tf-42-smart-twin-abs_twin1_hklf4_a.res in P2(1)/c
REM wR2 = 0.1626, GooF = S = 1.095, Restrained GooF = 1.095 for all data
REM R1 = 0.0515 for 6356 Fo > 4sig(Fo) and 0.0591 for all 7450 data
REM 248 parameters refined using 0 restraints

END

WGHT      0.1002      4.2334

REM Highest difference peak  1.201,  deepest hole -1.356,  1-sigma level  0.196
Q1    1   0.4021  0.3153  0.3209  11.00000  0.05    1.20
Q2    1   0.0691  0.3125  0.3476  11.00000  0.05    1.15
Q3    1   0.7003  0.1869  0.7249  11.00000  0.05    0.88
Q4    1  -0.0764  0.3107  0.3267  11.00000  0.05    0.87
Q5    1   0.2548  0.3145  0.4158  11.00000  0.05    0.75
Q6    1   0.0978  0.2832  0.3596  11.00000  0.05    0.73
;
_shelx_res_checksum                52948
_shelx_hkl_file
;
   0   0   2 55045.5 771.873  -2
   0   0  -2 55045.5 771.873   1
   0   0   4 34597.1 673.652  -2
   0   0  -4 34597.1 673.652   1
   0   0   6 105224. 1381.25  -2
   0   0  -6 105224. 1381.25   1
   0   0  -8 1660.98 130.474  -2
   0   0   8 1660.98 130.474   1
   0   0 -10 2275.97 166.911  -2
   0   0  10 2275.97 166.911   1
   0   0 -12 3628.98 304.806  -2
   0   0  12 3628.98 304.806   1
   0   0  14 100.385 73.7975  -2
   0   0 -14 100.385 73.7975   1
   0  -1   2 103982. 702.924  -2
   0   1  -2 103982. 702.924   1
   0   1   3 9731.30 275.236  -2
   0  -1  -3 9731.30 275.236   1
   0  -1   4 174816. 1148.55  -2
   0   1  -4 174816. 1148.55   1
   0  -1   5 29545.7 527.070  -2
   0   1  -5 29545.7 527.070   1
   0   1  -6 549.041 158.452  -2
   0  -1   6 549.041 158.452   1
   0   1  -7 4975.69 291.988  -2
   0  -1   7 4975.69 291.988   1
   0   1  -8 609.495 92.0491  -2
   0  -1   8 609.495 92.0491   1
   0  -1   9 6965.86 233.140  -2
   0   1  -9 6965.86 233.140   1
   0   1 -10 21860.0 415.348  -2
   0  -1  10 21860.0 415.348   1
   0   1 -11 158.610 107.486  -2
   0  -1  11 158.610 107.486   1
   0   1 -12 172.198 149.322  -2
   0  -1  12 172.198 149.322   1
   0   1 -13-34.7816 81.9606  -2
   0  -1  13-34.7816 81.9606   1
   0   1 -14 111.704 59.8787  -2
   0  -1  14 111.704 59.8787   1
   0   1 -15 2280.85 129.502  -2
   0  -1  15 2280.85 129.502   1
   0   2   1 69997.9 475.725  -2
   0  -2  -1 69997.9 475.725   1
   0   2   3 31534.0 409.579  -2
   0  -2  -3 31534.0 409.579   1
   0   2   4 109727. 878.065  -2
   0  -2  -4 109727. 878.065   1
   0   2  -5 51528.0 965.644  -2
   0  -2   5 51528.0 965.644   1
   0   2   6 87449.9 1085.89  -2
   0  -2  -6 87449.9 1085.89   1
   0   2   7 28790.9 675.224  -2
   0  -2  -7 28790.9 675.224   1
   0  -2   8 4041.98 133.747  -2
   0   2  -8 4041.98 133.747   1
   0   2   9 9171.60 264.445  -2
   0  -2  -9 9171.60 264.445   1
   0  -2 -10 33063.5 486.916  -2
   0   2  10 33063.5 486.916   1
   0   2 -11 6205.85 241.362  -2
   0  -2  11 6205.85 241.362   1
   0   2 -12 902.261 196.223  -2
   0  -2  12 902.261 196.223   1
   0   2  13 147.836 89.6546  -2
   0  -2 -13 147.836 89.6546   1
   0   2 -14 219.343 79.5349  -2
   0  -2  14 219.343 79.5349   1
   0   2 -15 64.9734 69.4764  -2
   0  -2  15 64.9734 69.4764   1
   0   3  -1 132449. 929.658  -2
   0  -3   1 132449. 929.658   1
   0  -3  -2 4899.32 82.8964  -2
   0   3   2 4899.32 82.8964   1
   0   3  -3 71588.1 355.241  -2
   0  -3   3 71588.1 355.241   1
   0   3   4 5285.51 126.209  -2
   0  -3  -4 5285.51 126.209   1
   0  -3  -5 122445. 1049.88  -2
   0   3   5 122445. 1049.88   1
   0   3   6 10064.1 338.896  -2
   0  -3  -6 10064.1 338.896   1
   0   3  -7 620.480 127.008  -2
   0  -3   7 620.480 127.008   1
   0  -3   8 21297.2 265.085  -2
   0   3  -8 21297.2 265.085   1
   0   3  -9 9214.94 198.180  -2
   0  -3   9 9214.94 198.180   1
   0  -3  10 2630.52 129.076  -2
   0   3 -10 2630.52 129.076   1
   0   3 -11 19036.7 341.024  -2
   0  -3  11 19036.7 341.024   1
   0   3 -12 69.7810 58.5850  -2
   0  -3  12 69.7810 58.5850   1
   0   3 -13 55.3762 61.5251  -2
   0  -3  13 55.3762 61.5251   1
   0  -3 -14 1346.84 78.3622  -2
   0   3  14 1346.84 78.3622   1
   0   3 -15 6715.07 98.0785  -2
   0  -3  15 6715.07 98.0785   1
   0  -4  -1 261004. 1131.21  -2
   0   4   1 261004. 1131.21   1
   0   4   2 62.2481 32.0419  -2
   0  -4  -2 62.2481 32.0419   1
   0   4  -3 1549.10 67.4273  -2
   0  -4   3 1549.10 67.4273   1
   0   4  -4 171951. 659.152  -2
   0  -4   4 171951. 659.152   1
   0  -4  -5 88003.8 549.551  -2
   0   4   5 88003.8 549.551   1
   0  -4  -6 116.231 69.1787  -2
   0   4   6 116.231 69.1787   1
   0   4  -7 16257.5 461.641  -2
   0  -4   7 16257.5 461.641   1
   0  -4  -8 25864.1 292.476  -2
   0   4   8 25864.1 292.476   1
   0   4  -9 189.765 33.4044  -2
   0  -4   9 189.765 33.4044   1
   0   4 -10 8445.12 207.224  -2
   0  -4  10 8445.12 207.224   1
   0  -4 -11 15965.7 311.875  -2
   0   4  11 15965.7 311.875   1
   0   4 -12 360.879 95.9218  -2
   0  -4  12 360.879 95.9218   1
   0   4  13 5296.50 155.312  -2
   0  -4 -13 5296.50 155.312   1
   0   4  14 641.885 58.7401  -2
   0  -4 -14 641.885 58.7401   1
   0   4 -15 1602.64 52.0895  -2
   0  -4  15 1602.64 52.0895   1
   0  -5  -1 456.208 27.3792  -2
   0   5   1 456.208 27.3792   1
   0  -5  -2 1853.14 184.579  -2
   0   5   2 1853.14 184.579   1
   0   5   3 833.690 54.0551  -2
   0  -5  -3 833.690 54.0551   1
   0  -5   4 45567.8 565.836  -2
   0   5  -4 45567.8 565.836   1
   0  -5  -5 2521.62 104.988  -2
   0   5   5 2521.62 104.988   1
   0   5   6 4538.18 236.348  -2
   0  -5  -6 4538.18 236.348   1
   0   5   7 13269.6 417.597  -2
   0  -5  -7 13269.6 417.597   1
   0   5  -8 2753.98 113.134  -2
   0  -5   8 2753.98 113.134   1
   0   5  -9 49181.6 458.667  -2
   0  -5   9 49181.6 458.667   1
   0   5 -10 29083.5 408.660  -2
   0  -5  10 29083.5 408.660   1
   0  -5  11 15683.0 306.226  -2
   0   5 -11 15683.0 306.226   1
   0   5 -12 386.766 72.5041  -2
   0  -5  12 386.766 72.5041   1
   0   5  13 2291.12 108.295  -2
   0  -5 -13 2291.12 108.295   1
   0  -5 -14 145.517 47.0195  -2
   0   5  14 145.517 47.0195   1
   0   5 -15 15845.8 223.002  -2
   0  -5  15 15845.8 223.002   1
   0   6  -1 6623.49 78.8581  -2
   0  -6   1 6623.49 78.8581   1
   0  -6  -2 6442.92 50.9541  -2
   0   6   2 6442.92 50.9541   1
   0  -6  -3 24667.2 492.170  -2
   0   6   3 24667.2 492.170   1
   0  -6  -4 27695.0 422.924  -2
   0   6   4 27695.0 422.924   1
   0   6  -5 53214.1 418.416  -2
   0  -6   5 53214.1 418.416   1
   0  -6   6 33476.3 378.386  -2
   0   6  -6 33476.3 378.386   1
   0  -6  -7 6768.80 385.454  -2
   0   6   7 6768.80 385.454   1
   0  -6  -8 30223.7 329.636  -2
   0   6   8 30223.7 329.636   1
   0  -6  -9 5201.38 171.855  -2
   0   6   9 5201.38 171.855   1
   0  -6 -10 401.635 79.8864  -2
   0   6  10 401.635 79.8864   1
   0  -6 -11 14975.6 297.209  -2
   0   6  11 14975.6 297.209   1
   0  -6  12 26484.8 315.119  -2
   0   6 -12 26484.8 315.119   1
   0  -6 -13 11495.0 208.305  -2
   0   6  13 11495.0 208.305   1
   0  -6 -14 13849.6 221.062  -2
   0   6  14 13849.6 221.062   1
   0   7  -1 16468.0 108.604  -2
   0  -7   1 16468.0 108.604   1
   0   7  -2 2781.12 44.8625  -2
   0  -7   2 2781.12 44.8625   1
   0  -7   3 4107.25 216.156  -2
   0   7  -3 4107.25 216.156   1
   0  -7  -4 18179.1 480.841  -2
   0   7   4 18179.1 480.841   1
   0  -7   5 103.957 127.181  -2
   0   7  -5 103.957 127.181   1
   0  -7   6 845.711 170.774  -2
   0   7  -6 845.711 170.774   1
   0  -7   7 724.912 172.992  -2
   0   7  -7 724.912 172.992   1
   0  -7  -8 21435.5 310.029  -2
   0   7   8 21435.5 310.029   1
   0  -7  -9 17690.4 298.114  -2
   0   7   9 17690.4 298.114   1
   0  -7 -10 69523.6 620.181  -2
   0   7  10 69523.6 620.181   1
   0   7 -11 8860.80 229.174  -2
   0  -7  11 8860.80 229.174   1
   0   7 -12 1092.47 84.1594  -2
   0  -7  12 1092.47 84.1594   1
   0   7 -13 136.793 57.3929  -2
   0  -7  13 136.793 57.3929   1
   0  -7 -14 9778.59 174.447  -2
   0   7  14 9778.59 174.447   1
   0  -8  -1 11545.1 119.565  -2
   0   8   1 11545.1 119.565   1
   0  -8  -2 2691.03 45.6008  -2
   0   8   2 2691.03 45.6008   1
   0  -8  -3 604.496 138.328  -2
   0   8   3 604.496 138.328   1
   0  -8   4 326.839 120.097  -2
   0   8  -4 326.839 120.097   1
   0   8  -5 97.9635 111.962  -2
   0  -8   5 97.9635 111.962   1
   0  -8  -6 42342.7 873.102  -2
   0   8   6 42342.7 873.102   1
   0   8  -7 785.744 172.634  -2
   0  -8   7 785.744 172.634   1
   0  -8  -8 21470.2 280.191  -2
   0   8   8 21470.2 280.191   1
   0   8  -9 4495.27 160.352  -2
   0  -8   9 4495.27 160.352   1
   0   8 -10 18214.7 320.258  -2
   0  -8  10 18214.7 320.258   1
   0   8 -11 3771.17 144.888  -2
   0  -8  11 3771.17 144.888   1
   0  -8 -12 41887.8 372.391  -2
   0   8  12 41887.8 372.391   1
   0  -8  13 900.007 67.9428  -2
   0   8 -13 900.007 67.9428   1
   0  -8  14 15940.4 253.985  -2
   0   8 -14 15940.4 253.985   1
   0  -9  -1 45478.4 257.982  -2
   0   9   1 45478.4 257.982   1
   0  -9  -2 11489.1 139.490  -2
   0   9   2 11489.1 139.490   1
   0  -9  -3 850.947 139.879  -2
   0   9   3 850.947 139.879   1
   0  -9  -4 20161.9 498.275  -2
   0   9   4 20161.9 498.275   1
   0  -9  -5 2097.18 208.893  -2
   0   9   5 2097.18 208.893   1
   0  -9   6 24081.9 662.935  -2
   0   9  -6 24081.9 662.935   1
   0   9  -7 37030.8 603.705  -2
   0  -9   7 37030.8 603.705   1
   0  -9  -8 7518.07 172.358  -2
   0   9   8 7518.07 172.358   1
   0   9  -9 14867.0 272.957  -2
   0  -9   9 14867.0 272.957   1
   0  -9 -10 20667.7 332.833  -2
   0   9  10 20667.7 332.833   1
   0  -9 -11 305.488 65.6315  -2
   0   9  11 305.488 65.6315   1
   0  -9 -12 8849.23 171.569  -2
   0   9  12 8849.23 171.569   1
   0   9 -13 31.8266 51.7447  -2
   0  -9  13 31.8266 51.7447   1
   0  -9  14 18166.3 457.173  -2
   0   9 -14 18166.3 457.173   1
   0 -10   0 7784.13 141.850  -2
   0  10   0 7784.13 141.850   1
   0 -10  -1 1171.76 43.8886  -2
   0  10   1 1171.76 43.8886   1
   0 -10  -2 62716.3 257.816  -2
   0  10   2 62716.3 257.816   1
   0 -10  -3 2461.04 175.078  -2
   0  10   3 2461.04 175.078   1
   0 -10   4 2200.18 185.941  -2
   0  10  -4 2200.18 185.941   1
   0  10  -5 29532.0 662.275  -2
   0 -10   5 29532.0 662.275   1
   0 -10  -6 1321.42 194.054  -2
   0  10   6 1321.42 194.054   1
   0 -10  -7 4535.01 184.980  -2
   0  10   7 4535.01 184.980   1
   0 -10  -8 28696.8 376.619  -2
   0  10   8 28696.8 376.619   1
   0 -10   9 2024.92 120.175  -2
   0  10  -9 2024.92 120.175   1
   0 -10 -10 1716.48 101.400  -2
   0  10  10 1716.48 101.400   1
   0 -10 -11 15969.9 235.417  -2
   0  10  11 15969.9 235.417   1
   0 -10 -12 7994.69 147.824  -2
   0  10  12 7994.69 147.824   1
   0  10 -13 16620.3 304.503  -2
   0 -10  13 16620.3 304.503   1
   0 -10  14 1080.66 151.102  -2
   0  10 -14 1080.66 151.102   1
   0 -11  -1 13178.8 108.723  -2
   0  11   1 13178.8 108.723   1
   0 -11  -2 9098.93 106.190  -2
   0  11   2 9098.93 106.190   1
   0 -11  -3 52690.7 733.232  -2
   0  11   3 52690.7 733.232   1
   0 -11  -4 479.679 126.192  -2
   0  11   4 479.679 126.192   1
   0  11  -5 2768.32 220.220  -2
   0 -11   5 2768.32 220.220   1
   0 -11   6 74445.4 1136.67  -2
   0  11  -6 74445.4 1136.67   1
   0 -11  -7 20427.7 365.292  -2
   0  11   7 20427.7 365.292   1
   0 -11  -8 1528.44 103.026  -2
   0  11   8 1528.44 103.026   1
   0 -11   9 30816.9 500.137  -2
   0  11  -9 30816.9 500.137   1
   0 -11 -10 3326.99 134.091  -2
   0  11  10 3326.99 134.091   1
   0 -11  11 1340.38 86.5561  -2
   0  11 -11 1340.38 86.5561   1
   0 -11 -12 1695.04 66.1942  -2
   0  11  12 1695.04 66.1942   1
   0 -11  13 621.493 193.832  -2
   0  11 -13 621.493 193.832   1
   0 -11  14 2678.01 180.818  -2
   0  11 -14 2678.01 180.818   1
   0 -12   0 29368.9 286.411  -2
   0  12   0 29368.9 286.411   1
   0 -12  -1 74382.8 323.831  -2
   0  12   1 74382.8 323.831   1
   0 -12   2 20597.2 167.182  -2
   0  12  -2 20597.2 167.182   1
   0 -12   3 4096.46 496.818  -2
   0  12  -3 4096.46 496.818   1
   0 -12   5 16652.0 601.949  -2
   0  12  -5 16652.0 601.949   1
   0 -12   6 4617.57 235.740  -2
   0  12  -6 4617.57 235.740   1
   0 -12   7 39598.6 576.546  -2
   0  12  -7 39598.6 576.546   1
   0 -12  -8 6632.67 246.538  -2
   0  12   8 6632.67 246.538   1
   0 -12   9 399.228 90.5147  -2
   0  12  -9 399.228 90.5147   1
   0 -12  10 2487.79 121.578  -2
   0  12 -10 2487.79 121.578   1
   0 -12 -11 1789.85 137.655  -2
   0  12  11 1789.85 137.655   1
   0 -12  12-17.6561 51.9764  -2
   0  12 -12-17.6561 51.9764   1
   0 -12  13 7852.63 380.706  -2
   0  12 -13 7852.63 380.706   1
   0 -12  14 2145.12 116.135  -2
   0  12 -14 2145.12 116.135   1
   0 -13   1 29388.0 183.426  -2
   0  13  -1 29388.0 183.426   1
   0 -13  -2 50419.5 275.692  -2
   0  13   2 50419.5 275.692   1
   0 -13   3 136408. 2727.97  -2
   0  13  -3 136408. 2727.97   1
   0 -13   4 10361.1 830.357  -2
   0  13  -4 10361.1 830.357   1
   0 -13  -5 25686.7 335.627  -2
   0  13   5 25686.7 335.627   1
   0 -13  -6 14556.0 479.209  -2
   0  13   6 14556.0 479.209   1
   0 -13   7 1278.61 128.616  -2
   0  13  -7 1278.61 128.616   1
   0 -13   8 15027.9 318.417  -2
   0  13  -8 15027.9 318.417   1
   0 -13   9 1171.99 139.384  -2
   0  13  -9 1171.99 139.384   1
   0 -13 -10 140.370 47.5428  -2
   0  13  10 140.370 47.5428   1
   0 -13 -11 2994.49 156.052  -2
   0  13  11 2994.49 156.052   1
   0 -13 -12 25.1176 49.8712  -2
   0  13  12 25.1176 49.8712   1
   0 -13  13 148.221 150.704  -2
   0  13 -13 148.221 150.704   1
   0 -14   0 42274.5 382.405  -2
   0  14   0 42274.5 382.405   1
   0 -14   1 48196.5 249.040  -2
   0  14  -1 48196.5 249.040   1
   0 -14  -2 37499.2 371.149  -2
   0  14   2 37499.2 371.149   1
   0 -14   3 1107.17 313.065  -2
   0  14  -3 1107.17 313.065   1
   0 -14  -4 21406.4 467.443  -2
   0  14   4 21406.4 467.443   1
   0 -14  -5 3799.73 86.4400  -2
   0  14   5 3799.73 86.4400   1
   0 -14  -6 15018.9 246.297  -2
   0  14   6 15018.9 246.297   1
   0 -14   7 15425.1 351.566  -2
   0  14  -7 15425.1 351.566   1
   0 -14   8 7083.01 202.880  -2
   0  14  -8 7083.01 202.880   1
   0 -14   9 106.969 81.7125  -2
   0  14  -9 106.969 81.7125   1
   0 -14  10 742.226 106.138  -2
   0  14 -10 742.226 106.138   1
   0 -14  11 303.646 65.8088  -2
   0  14 -11 303.646 65.8088   1
   0 -14  12 2394.94 274.921  -2
   0  14 -12 2394.94 274.921   1
   0 -14  13 2299.84 126.607  -2
   0  14 -13 2299.84 126.607   1
   0 -15  -1 504.161 47.1649  -2
   0  15   1 504.161 47.1649   1
   0 -15   2 131964. 733.963  -2
   0  15  -2 131964. 733.963   1
   0 -15  -3 4503.00 107.263  -2
   0  15   3 4503.00 107.263   1
   0 -15  -4 55593.8 329.882  -2
   0  15   4 55593.8 329.882   1
   0 -15   5 152.853 50.7137  -2
   0  15  -5 152.853 50.7137   1
   0 -15  -6 437.370 71.7395  -2
   0  15   6 437.370 71.7395   1
   0 -15  -7 72.2060 72.0990  -2
   0  15   7 72.2060 72.0990   1
   0 -15   8 19677.4 427.498  -2
   0  15  -8 19677.4 427.498   1
   0 -15  -9 2306.24 148.457  -2
   0  15   9 2306.24 148.457   1
   0 -15 -10 328.529 123.097  -2
   0  15  10 328.529 123.097   1
   0 -15  11 640.713 120.781  -2
   0  15 -11 640.713 120.781   1
   0 -15  12 330.538 183.385  -2
   0  15 -12 330.538 183.385   1
   0 -15  13-103.247 60.8619  -2
   0  15 -13-103.247 60.8619   1
   0 -16   0 95274.9 1121.12  -2
   0  16   0 95274.9 1121.12   1
   0 -16   1 7047.04 117.085  -2
   0  16  -1 7047.04 117.085   1
   0 -16   2 52128.8 323.454  -2
   0  16  -2 52128.8 323.454   1
   0 -16   3 9469.33 143.530  -2
   0  16  -3 9469.33 143.530   1
   0 -16  -4 31709.4 315.739  -2
   0  16   4 31709.4 315.739   1
   0 -16   5 427.183 86.0832  -2
   0  16  -5 427.183 86.0832   1
   0 -16  -6 17946.8 285.512  -2
   0  16   6 17946.8 285.512   1
   0 -16  -7 2146.40 165.599  -2
   0  16   7 2146.40 165.599   1
   0 -16  -8 8586.14 194.898  -2
   0  16   8 8586.14 194.898   1
   0 -16  -9 3667.76 256.749  -2
   0  16   9 3667.76 256.749   1
   0 -16  10 290.418 119.320  -2
   0  16 -10 290.418 119.320   1
   0 -16  11 166.667 83.7658  -2
   0  16 -11 166.667 83.7658   1
   0 -16  12 1774.22 126.153  -2
   0  16 -12 1774.22 126.153   1
   0 -16  13-9.12005 72.0758  -2
   0  16 -13-9.12005 72.0758   1
   0 -17   1 5417.43 125.771  -2
   0  17  -1 5417.43 125.771   1
   0 -17  -2 55771.8 326.991  -2
   0  17   2 55771.8 326.991   1
   0 -17   3 21738.7 254.514  -2
   0  17  -3 21738.7 254.514   1
   0 -17   4 19231.1 200.680  -2
   0  17  -4 19231.1 200.680   1
   0 -17  -5 18880.5 426.581  -2
   0  17   5 18880.5 426.581   1
   0 -17   6 733.039 77.7809  -2
   0  17  -6 733.039 77.7809   1
   0 -17   7 499.995 77.8275  -2
   0  17  -7 499.995 77.8275   1
   0 -17  -8 26279.5 542.235  -2
   0  17   8 26279.5 542.235   1
   0 -17  -9 3905.10 323.615  -2
   0  17   9 3905.10 323.615   1
   0 -17 -10 534.930 124.053  -2
   0  17  10 534.930 124.053   1
   0 -17  11 521.085 77.5950  -2
   0  17 -11 521.085 77.5950   1
   0 -17  12 147.208 76.8846  -2
   0  17 -12 147.208 76.8846   1
   0 -18   0 12005.1 208.807  -2
   0  18   0 12005.1 208.807   1
   0 -18   1 10716.2 158.827  -2
   0  18  -1 10716.2 158.827   1
   0 -18  -2 1673.53 85.5340  -2
   0  18   2 1673.53 85.5340   1
   0 -18  -3 4323.84 170.602  -2
   0  18   3 4323.84 170.602   1
   0 -18  -4 11315.8 241.090  -2
   0  18   4 11315.8 241.090   1
   0 -18   5 3184.59 156.785  -2
   0  18  -5 3184.59 156.785   1
   0 -18  -6 12239.1 224.993  -2
   0  18   6 12239.1 224.993   1
   0 -18   7 28498.2 361.970  -2
   0  18  -7 28498.2 361.970   1
   0 -18  -8 496.790 116.056  -2
   0  18   8 496.790 116.056   1
   0 -18  -9 3259.54 289.373  -2
   0  18   9 3259.54 289.373   1
   0 -18 -10 2376.22 153.927  -2
   0  18  10 2376.22 153.927   1
   0 -18  11 2880.22 193.912  -2
   0  18 -11 2880.22 193.912   1
   0 -18  12 2859.77 107.193  -2
   0  18 -12 2859.77 107.193   1
   0 -19   1 2763.62 102.684  -2
   0  19  -1 2763.62 102.684   1
   0 -19  -2 5121.85 133.785  -2
   0  19   2 5121.85 133.785   1
   0 -19   3 49681.5 293.449  -2
   0  19  -3 49681.5 293.449   1
   0 -19   4 423.506 80.5241  -2
   0  19  -4 423.506 80.5241   1
   0 -19   5 832.759 115.311  -2
   0  19  -5 832.759 115.311   1
   0 -19  -6 9712.74 184.200  -2
   0  19   6 9712.74 184.200   1
   0 -19  -7 1614.32 117.736  -2
   0  19   7 1614.32 117.736   1
   0 -19  -8 3071.22 112.548  -2
   0  19   8 3071.22 112.548   1
   0 -19  -9 19259.6 257.552  -2
   0  19   9 19259.6 257.552   1
   0 -19 -10 336.289 52.3906  -2
   0  19  10 336.289 52.3906   1
   0 -19  11 3411.32 170.083  -2
   0  19 -11 3411.32 170.083   1
   0 -20   0 423.916 133.335  -2
   0  20   0 423.916 133.335   1
   0 -20   1 7196.38 172.266  -2
   0  20  -1 7196.38 172.266   1
   0 -20  -2 8808.53 173.137  -2
   0  20   2 8808.53 173.137   1
   0 -20  -3 1516.61 110.481  -2
   0  20   3 1516.61 110.481   1
   0 -20  -4 5302.71 200.413  -2
   0  20   4 5302.71 200.413   1
   0 -20  -5 4811.75 314.511  -2
   0  20   5 4811.75 314.511   1
   0 -20   6 144.454 73.5794  -2
   0  20  -6 144.454 73.5794   1
   0 -20   7 18341.9 254.306  -2
   0  20  -7 18341.9 254.306   1
   0 -20  -8 8639.93 282.894  -2
   0  20   8 8639.93 282.894   1
   0 -20  -9 121.248 50.1137  -2
   0  20   9 121.248 50.1137   1
   0 -20  10 2661.96 83.0701  -2
   0  20 -10 2661.96 83.0701   1
   0 -21   1 374.582 71.8380  -2
   0  21  -1 374.582 71.8380   1
   0 -21   2 1375.34 90.7877  -2
   0  21  -2 1375.34 90.7877   1
   0 -21  -3 9772.28 173.389  -2
   0  21   3 9772.28 173.389   1
   0 -21   4 1529.02 97.1794  -2
   0  21  -4 1529.02 97.1794   1
   0 -21  -5 2581.07 197.754  -2
   0  21   5 2581.07 197.754   1
   0 -21  -6 4865.12 217.839  -2
   0  21   6 4865.12 217.839   1
   0 -21  -7 8358.56 161.244  -2
   0  21   7 8358.56 161.244   1
   0 -21  -8 7219.91 151.825  -2
   0  21   8 7219.91 151.825   1
   0 -21  -9 13003.9 172.866  -2
   0  21   9 13003.9 172.866   1
   0 -22   0 11799.9 424.446  -2
   0  22   0 11799.9 424.446   1
   0 -22   1 1362.58 94.2032  -2
   0  22  -1 1362.58 94.2032   1
   0 -22   2 2826.13 120.229  -2
   0  22  -2 2826.13 120.229   1
   0 -22  -3 1898.24 138.879  -2
   0  22   3 1898.24 138.879   1
   0 -22   4 1191.00 136.087  -2
   0  22  -4 1191.00 136.087   1
   0 -22   5 321.072 127.614  -2
   0  22  -5 321.072 127.614   1
   0 -22  -6 5042.37 213.549  -2
   0  22   6 5042.37 213.549   1
   0 -22   7 6051.86 212.569  -2
   0  22  -7 6051.86 212.569   1
   0 -22   8 13378.1 376.698  -2
   0  22  -8 13378.1 376.698   1
   0 -22  -9 747.831 61.4144  -2
   0  22   9 747.831 61.4144   1
   0 -22  10 1555.40 191.348  -2
   0  22 -10 1555.40 191.348   1
   0 -23   1 199.166 54.1181  -2
   0  23  -1 199.166 54.1181   1
   0 -23   2 7896.31 181.632  -2
   0  23  -2 7896.31 181.632   1
   0 -23   3 72.4756 51.4611  -2
   0  23  -3 72.4756 51.4611   1
   0 -23   4 3946.87 247.869  -2
   0  23  -4 3946.87 247.869   1
   0 -23  -5 1305.13 163.027  -2
   0  23   5 1305.13 163.027   1
   0 -23  -6 93.3540 52.6956  -2
   0  23   6 93.3540 52.6956   1
   0 -23   7 30.9504 38.3224  -2
   0  23  -7 30.9504 38.3224   1
   0 -23   8 12323.9 507.727  -2
   0  23  -8 12323.9 507.727   1
   0 -23   9 628.566 150.682  -2
   0  23  -9 628.566 150.682   1
   0 -24   0 6783.04 193.102  -2
   0  24   0 6783.04 193.102   1
   0 -24  -1 2068.34 103.194  -2
   0  24   1 2068.34 103.194   1
   0 -24  -2 1323.88 83.1627  -2
   0  24   2 1323.88 83.1627   1
   0 -24  -3 1663.91 145.509  -2
   0  24   3 1663.91 145.509   1
   0 -24  -4 173.681 55.6413  -2
   0  24   4 173.681 55.6413   1
   0 -24   5 454.080 95.5597  -2
   0  24  -5 454.080 95.5597   1
   0 -24   6 6849.08 206.299  -2
   0  24  -6 6849.08 206.299   1
   0 -24   7 514.463 166.863  -2
   0  24  -7 514.463 166.863   1
   0 -24   8 7537.22 364.799  -2
   0  24  -8 7537.22 364.799   1
   0 -24   9 908.579 133.061  -2
   0  24  -9 908.579 133.061   1
   0 -25  -1 148.790 57.5924  -2
   0  25   1 148.790 57.5924   1
   0 -25  -2 7445.20 163.386  -2
   0  25   2 7445.20 163.386   1
   0 -25   3 6531.01 230.986  -2
   0  25  -3 6531.01 230.986   1
   0 -25   4 13416.7 303.650  -2
   0  25  -4 13416.7 303.650   1
   0 -25  -5 316.411 79.7064  -2
   0  25   5 316.411 79.7064   1
   0 -25   6 336.088 88.5785  -2
   0  25  -6 336.088 88.5785   1
   0 -25   7 2096.53 230.231  -2
   0  25  -7 2096.53 230.231   1
   0 -25   8 224.717 112.352  -2
   0  25  -8 224.717 112.352   1
   0 -26   0 1260.86 150.431  -2
   0  26   0 1260.86 150.431   1
   0 -26   1 6064.35 141.639  -2
   0  26  -1 6064.35 141.639   1
   0 -26  -2 577.974 97.3121  -2
   0  26   2 577.974 97.3121   1
   0 -26   3 174.696 76.8434  -2
   0  26  -3 174.696 76.8434   1
   0 -26  -4 7337.09 142.815  -2
   0  26   4 7337.09 142.815   1
   0 -26  -5 4675.53 194.663  -2
   0  26   5 4675.53 194.663   1
   0 -26   6 1946.25 207.752  -2
   0  26  -6 1946.25 207.752   1
   0 -26   7 4872.81 256.916  -2
   0  26  -7 4872.81 256.916   1
   0 -27   1 5819.53 137.299  -2
   0  27  -1 5819.53 137.299   1
   0 -27   2 109.022 52.6402  -2
   0  27  -2 109.022 52.6402   1
   0 -27   3 19656.0 216.942  -2
   0  27  -3 19656.0 216.942   1
   0 -27   4 1536.72 76.3177  -2
   0  27  -4 1536.72 76.3177   1
   0 -27   5 1784.06 67.0058  -2
   0  27  -5 1784.06 67.0058   1
   0 -27   6 682.875 124.173  -2
   0  27  -6 682.875 124.173   1
   0 -28   0 2961.45 119.078  -2
   0  28   0 2961.45 119.078   1
   0 -28   1 12363.5 245.615  -2
   0  28  -1 12363.5 245.615   1
   0 -28  -2 372.484 56.3540  -2
   0  28   2 372.484 56.3540   1
   0 -28  -3 590.853 116.583  -2
   0  28   3 590.853 116.583   1
   0 -28  -4 3985.26 190.568  -2
   0  28   4 3985.26 190.568   1
   0 -29   1 8106.18 109.734  -2
   0  29  -1 8106.18 109.734   1
   0 -29  -2 6278.30 93.3846  -2
   0  29   2 6278.30 93.3846   1
   0 -29  -3 13026.3 157.382  -2
   0  29   3 13026.3 157.382   1
   0 -29   4 4928.82 223.120  -2
   0  29  -4 4928.82 223.120   1
   0 -30   0 27115.5 441.881  -2
   0  30   0 27115.5 441.881   1
   0 -30   1 615.654 65.9637  -2
   0  30  -1 615.654 65.9637   1
   0 -30   2 2504.31 151.459  -2
   0  30  -2 2504.31 151.459   1
   1   0 -14 1502.37 93.0652   1
  -1   0  12 1102.79 92.6946   1
   1   0 -10 17300.4 300.375   1
  -1   0   8 4705.69 150.165   1
   1   0  -6 2741.27 318.469   1
   1   0  -4 35091.2 776.698   1
   1   0  -2 97920.8 936.541   1
   1   0   0 1714.50 123.759   1
   1   0   2 74110.6 829.495   1
   1   0   4 28881.1 1025.00   1
   1   0   6 11951.2 379.117   1
   1   0   8 4334.77 155.145   1
  -1   0 -10 48167.7 492.838   1
   1   0  12 4686.80 246.768   1
   1   0  14 5608.02 110.192   1
  -1  -1  15 248.141 62.0703   1
   1   1 -14 360.045 51.8608   1
   1  -1 -13-18.1278 45.6721   1
   1  -1 -12 6168.26 134.358   1
   1  -1 -11 1924.12 82.1279   1
  -1  -1  10 3776.53 126.324   1
  -1  -1   9 929.047 73.4961   1
  -1   1   8 1377.19 76.2031   1
  -1  -1   7 613.020 125.650   1
   1   1  -6 64097.0 925.615   1
   1  -1  -5 6559.86 285.545   1
   1  -1  -4 22516.1 443.904   1
   1  -1  -3 249.045 95.6042   1
   1  -1  -2 13420.2 257.286   1
   1  -1  -1 37667.6 513.839   1
   1  -1   0 68643.5 461.373   1
   1  -1   1 43704.5 401.268   1
   1  -1   2 12812.7 359.505   1
   1  -1   3 285.089 154.924   1
   1  -1   4 6380.20 517.166   1
  -1  -1  -5 5129.71 244.328   1
  -1  -1  -6 53998.5 590.039   1
   1  -1   7 163.766 104.116   1
   1  -1   8 8268.38 190.278   1
   1  -1   9 431.714 71.6501   1
   1   1  10 637.499 87.0697   1
   1  -1  11 2973.85 194.040   1
   1  -1  12 15188.2 418.213   1
   1  -1  13 250.505 99.0955   1
   1  -1  14 5168.97 96.0113   1
  -1  -2  15 4881.09 121.184   1
   1  -2 -14 710.432 74.0089   1
   1  -2 -13 579.218 72.1695   1
  -1  -2  12 50.4300 54.0065   1
   1   2 -11 4713.61 126.122   1
  -1  -2  10 6902.63 156.968   1
   1  -2  -9 7707.89 162.223   1
  -1  -2   8 7908.54 135.835   1
  -1  -2   7 8610.60 323.996   1
   1  -2  -6 809.872 146.833   1
   1   2  -5 13482.2 395.865   1
   1  -2  -4 20137.6 423.092   1
   1  -2  -3 4831.92 194.099   1
   1  -2  -1 6932.44 231.664   1
   1  -2   0 237.876 60.8381   1
   1  -2   1 1362.16 95.4926   1
   1  -2   2 6586.09 201.457   1
   1  -2   3 7696.77 402.430   1
   1  -2   4 22693.2 855.928   1
  -1  -2  -5 16902.3 368.696   1
  -1   2  -6 3503.16 235.965   1
   1  -2   7 7219.37 333.542   1
   1  -2   8 4309.69 121.411   1
   1  -2   9 18713.6 277.240   1
   1   2  10 20296.2 311.053   1
  -1   2 -11 4979.99 199.726   1
   1  -2  12 2184.89 183.697   1
   1  -2  13 493.546 111.177   1
   1  -2  14 3019.41 108.617   1
  -1  -3  15 414.216 40.7043   1
  -1   3  14 357.312 45.0920   1
   1  -3 -13 1843.37 75.0354   1
  -1  -3  12 125.740 50.3986   1
   1   3 -11 19307.6 210.731   1
  -1   3  10 5709.60 130.705   1
  -1  -3   9 999.483 65.6519   1
   1   3  -8 567.753 59.0256   1
   1   3  -7 15958.3 379.554   1
   1   3  -6 234.897 123.970   1
   1   3  -5 49486.2 608.838   1
   1   3  -4 14850.5 305.778   1
   1   3  -3 803.135 167.817   1
   1   3  -2 2872.90 213.344   1
   1   3  -1 49457.0 338.044   1
   1   3   0 28572.4 212.363   1
   1   3   1 44561.8 283.502   1
   1   3   2 8318.57 155.068   1
   1   3   3 4741.93 226.878   1
   1  -3   4 6680.19 323.566   1
  -1  -3  -5 58058.5 530.193   1
  -1   3  -6 409.871 112.059   1
   1   3   7 16677.7 438.226   1
   1  -3   8 2079.23 72.5903   1
   1   3   9 2970.84 109.151   1
   1  -3  10 320.305 64.0178   1
   1   3  11 16340.6 270.935   1
   1   3  12 519.396 84.4523   1
  -1   3 -13 3134.58 113.164   1
  -1  -3 -14 1231.13 53.8404   1
   1   4 -15 8107.24 108.976   1
  -1  -4  14-38.6210 34.4008   1
  -1   4  13 855.682 63.6437   1
   1   4 -12 37.4644 49.1247   1
   1  -4 -11 15172.5 184.391   1
  -1  -4  10 1182.30 80.6178   1
  -1   4   9 14494.8 210.864   1
   1  -4  -8 826.760 64.1938   1
  -1  -4   7 2767.78 172.208   1
   1  -4  -6 459.425 125.173   1
   1   4  -5 46261.3 598.300   1
   1   4  -4 1272.85 212.942   1
   1   4  -3 6586.57 363.968   1
   1   4  -2 1047.81 123.503   1
   1   4  -1 50257.2 341.691   1
   1   4   0 751.574 50.8950   1
   1   4   1 33138.2 245.007   1
   1   4   2 3958.17 114.526   1
   1   4   3 28515.1 489.531   1
  -1  -4  -4 539.393 51.3822   1
   1  -4   5 80327.0 1117.16   1
  -1   4  -6 2711.62 193.957   1
  -1   4  -7 1001.62 110.795   1
   1  -4   8 253.720 49.4826   1
   1  -4   9 28620.2 280.818   1
  -1   4 -10 3.48227 53.1482   1
   1  -4  11 18958.0 289.235   1
   1  -4  12 973.267 98.8615   1
  -1   4 -13 156.856 41.5732   1
   1   4  14 690.496 62.2572   1
   1   5 -15 158.289 29.6161   1
  -1  -5  14 2552.33 73.3717   1
  -1  -5  13 6742.98 131.468   1
  -1   5  12 4134.34 117.224   1
   1   5 -11 9773.85 149.608   1
  -1  -5  10 1171.63 70.4822   1
  -1   5   9 417.599 60.5395   1
   1   5  -8 491.838 52.9000   1
  -1  -5   7 16374.3 460.352   1
  -1   5   6 1309.52 137.186   1
   1   5  -5 45895.6 1104.74   1
   1   5  -4 3644.47 338.646   1
   1   5  -3 1765.15 181.156   1
   1   5  -2 4011.60 253.905   1
   1   5  -1 60608.2 342.057   1
   1  -5   0 23185.4 220.175   1
   1  -5   1 77113.9 367.874   1
   1   5   2 106.072 81.5371   1
   1  -5   3 131.508 98.2839   1
   1   5   4 14995.0 429.138   1
   1  -5   5 38792.9 755.457   1
   1  -5   6 5518.81 197.972   1
   1   5   7 26042.4 559.266   1
   1   5   8 125.119 47.2723   1
   1  -5   9 917.156 69.7369   1
   1   5  10 1097.86 80.5068   1
   1  -5  11 3181.74 118.225   1
   1  -5  12 940.302 97.0483   1
  -1  -5 -13 3165.81 82.6971   1
   1  -5  14 2834.16 92.7429   1
   1   6 -15 6999.22 206.523   1
  -1   6  14 6099.64 101.680   1
   1  -6 -13 1.62054 38.7939   1
  -1  -6  12 255.725 49.1964   1
  -1  -6  11 9006.19 143.098   1
  -1   6  10 14024.3 162.558   1
   1   6  -9 10475.8 162.180   1
  -1  -6   8 3519.10 95.7391   1
  -1   6   7 58.8579 102.927   1
   1   6  -6 39.1387 77.3209   1
   1   6  -5 6462.34 452.978   1
   1   6  -4 13624.6 643.759   1
   1   6  -3 28417.0 618.846   1
   1  -6  -2 10205.1 193.228   1
   1  -6  -1 1856.80 73.2490   1
   1  -6   0 18.9978 80.0521   1
   1  -6   1 6463.84 112.920   1
   1  -6   2 37131.1 446.629   1
   1   6   3 41831.7 574.372   1
   1  -6   4 34458.2 621.888   1
   1  -6   5 1735.13 118.465   1
  -1   6  -6-24.6193 82.5051   1
   1   6   7 276.518 83.6309   1
   1  -6   8 6897.80 132.336   1
   1  -6   9 10499.8 167.146   1
   1   6  10 11649.9 189.361   1
   1  -6  11 7377.60 180.179   1
   1  -6  12-33.4664 64.1923   1
  -1   6 -13 543.934 47.7142   1
   1  -6  14 245.487 44.4083   1
  -1   7  14 2207.68 77.3563   1
  -1  -7  13 2270.03 71.9845   1
  -1  -7  12 20092.9 208.708   1
  -1   7  11 201.253 46.6540   1
  -1  -7  10 4721.05 106.604   1
  -1   7   9 6255.82 116.896   1
  -1   7   8 10603.6 153.314   1
   1   7  -7 7064.86 269.782   1
  -1   7   6 59676.0 808.931   1
   1   7  -5 6244.67 475.114   1
   1   7  -4 3664.13 311.804   1
   1   7  -3 14286.3 643.136   1
   1  -7  -2 27128.2 288.114   1
   1   7  -1 2299.66 79.7039   1
   1   7   0 66005.6 405.701   1
   1  -7   1 21680.1 195.329   1
   1  -7   2 21377.2 337.884   1
   1  -7   3 3003.54 168.008   1
   1   7   4 5157.38 253.225   1
   1  -7   5 117.585 120.761   1
   1  -7   6 51172.8 741.536   1
   1   7   7 4902.33 119.748   1
   1   7   8 7777.69 139.856   1
   1   7   9 10265.8 165.609   1
   1   7  10 382.972 61.5588   1
   1   7  11 75.1462 59.9110   1
  -1   7 -12 3761.88 127.554   1
  -1   7 -13 623.112 46.7167   1
   1   7  14 901.332 51.8964   1
   1   8 -14 6955.01 112.924   1
  -1  -8  13 1054.96 53.1877   1
   1  -8 -12 2076.39 76.3868   1
  -1   8  11 461.012 54.0127   1
  -1  -8  10 35202.3 266.806   1
  -1  -8   9 163.780 41.4785   1
  -1   8   8 29405.1 230.473   1
  -1   8   7 12890.9 274.631   1
  -1   8   6 6498.69 285.395   1
   1   8  -5 90.4252 88.6168   1
   1   8  -4 21326.4 627.413   1
   1   8  -3 2130.25 284.918   1
   1   8  -2 11249.5 188.371   1
   1   8  -1 4550.19 100.671   1
   1  -8   0 5105.47 103.398   1
   1  -8   1 50158.2 405.712   1
   1   8   2 6487.73 190.842   1
   1   8   3 485.298 96.9677   1
   1  -8   4 47231.5 698.565   1
   1  -8   5 2244.12 200.975   1
   1  -8   6 10425.7 348.311   1
   1   8   7 5301.26 110.525   1
   1  -8   8 21951.4 225.249   1
   1   8   9 38.8366 47.6535   1
   1   8  10 17982.6 219.634   1
   1   8  11 144.939 70.2323   1
   1  -8  12 241.045 53.2565   1
  -1   8 -13 1488.43 55.1335   1
   1  -8  14 1316.53 100.534   1
   1   9 -14 2936.79 187.805   1
  -1   9  13 1745.85 61.8689   1
   1  -9 -12 12886.4 157.668   1
  -1  -9  11 8648.33 141.801   1
  -1   9  10 1756.62 71.1202   1
  -1  -9   9 57.3769 40.5539   1
  -1   9   8 9782.22 135.212   1
  -1  -9   7 2014.33 80.5523   1
   1   9  -6 37868.8 303.511   1
   1   9  -5 6192.31 146.776   1
  -1  -9   4 42521.9 603.491   1
   1  -9  -3 958.466 89.0530   1
   1   9  -2 16654.8 218.841   1
   1   9  -1 8643.23 126.568   1
   1  -9   0 86338.7 528.140   1
   1  -9   1 1466.77 116.162   1
   1  -9   2 21778.0 319.615   1
   1   9   3 84.5744 56.7964   1
   1  -9   4 21664.4 470.395   1
  -1   9  -5 4004.23 209.564   1
   1  -9   6 8875.54 321.629   1
   1  -9   7 2318.14 78.8556   1
  -1   9  -8 421.913 54.3049   1
   1   9   9 4663.55 115.403   1
   1   9  10 611.415 53.4261   1
   1   9  11 2337.96 109.673   1
   1   9  12 2163.46 70.9987   1
   1  -9  13 1289.58 83.7951   1
   1  -9  14 772.353 75.1356   1
   1  10 -14 4893.54 132.719   1
  -1 -10  13 1861.50 70.4915   1
  -1  10  12 7802.55 132.664   1
  -1 -10  11 2153.13 77.2443   1
   1 -10 -10 11661.0 156.714   1
   1  10  -9 11413.5 150.684   1
  -1  10   8 3404.70 92.5232   1
   1 -10  -7 6522.21 128.062   1
   1  10  -6 2721.29 112.485   1
   1  10  -5 11132.7 186.629   1
   1  10  -4 6258.12 227.668   1
   1  10  -3 94105.6 496.196   1
   1  10  -2 16285.1 202.400   1
   1  10  -1 19064.6 360.019   1
   1  10   0 5889.26 300.932   1
   1  10   1 14422.2 305.200   1
   1  10   2 1853.58 79.0205   1
   1  10   3 50465.0 424.403   1
   1  10   4 7886.79 198.863   1
  -1  10  -5 7689.63 276.110   1
   1  10   6 1286.39 102.816   1
   1  10   7 85.7444 45.3085   1
   1 -10   8 4659.99 109.600   1
   1  10   9 399.689 54.0915   1
   1  10  10 2511.45 79.0267   1
  -1  10 -11 1571.39 93.4798   1
  -1  10 -12 1022.08 58.6627   1
  -1  10 -13 173.870 108.355   1
   1 -10  14 4038.67 128.825   1
   1  11 -14 27.4073 48.6768   1
   1  11 -13 11686.4 231.320   1
  -1  11  12 36.6738 48.1578   1
  -1 -11  11 8197.05 141.713   1
  -1  11  10 3895.41 107.584   1
   1  11  -9 108.582 53.6046   1
  -1 -11   8 1740.42 79.5448   1
   1  11  -7 43747.4 366.324   1
  -1  11   6 11393.0 176.135   1
  -1  11   5 38002.7 562.283   1
   1  11  -4 3285.89 117.119   1
  -1  11   3 408.404 59.2088   1
   1  11  -2 7483.63 290.186   1
  -1  11   1 29567.1 316.962   1
  -1  11   0 15855.2 266.216   1
   1  11   1 34867.2 336.167   1
   1  11   2 818.638 113.647   1
   1  11   3 50.8303 58.5346   1
   1  11   4 7460.60 194.231   1
   1  11   5 1452.56 80.0066   1
  -1  11  -6 1166.24 90.7426   1
  -1  11  -7 14296.9 259.711   1
   1  11   8 1065.66 63.6902   1
  -1  11  -9 112.360 47.3449   1
   1  11  10 4562.26 98.1618   1
  -1  11 -11 2340.97 82.1674   1
  -1  11 -12 174.335 144.502   1
  -1  11 -13 8982.73 282.909   1
   1  12 -14 892.305 109.005   1
   1  12 -13 925.804 83.3182   1
  -1  12  12 652.911 73.3476   1
  -1  12  11 3794.30 144.972   1
   1  12 -10 95.5894 49.1611   1
   1  12  -9 46014.2 478.322   1
   1  12  -8 7260.29 191.968   1
   1  12  -7 4162.11 134.711   1
  -1  12   6 5739.81 165.765   1
   1  12  -5 4353.25 186.003   1
   1  12  -4 2961.01 242.044   1
   1  12  -3 66128.9 936.144   1
   1  12  -2 8853.53 207.984   1
   1  12  -1 1376.38 85.5514   1
  -1  12   0 140.709 81.7373   1
   1  12   1 1054.70 81.8392   1
   1  12   2 1308.75 135.932   1
   1  12   3 24277.0 483.476   1
   1  12   4 81.0543 106.674   1
   1  12   5 1107.79 76.3739   1
  -1  12  -6 1104.85 81.5601   1
  -1  12  -7 750.152 87.4761   1
   1  12   8 177.813 68.6573   1
   1  12   9 17308.7 198.736   1
   1  12  10 54.3671 40.5231   1
  -1  12 -11 3907.49 254.233   1
  -1  12 -12 470.942 147.855   1
  -1  12 -13 668.938 70.3474   1
   1  13 -13 5491.77 155.526   1
  -1  13  12 897.793 84.1181   1
  -1  13  11 1443.61 157.024   1
  -1  13  10 692.387 139.285   1
  -1  13   9 330.391 111.900   1
   1  13  -8 6999.78 278.402   1
  -1  13   7 35374.2 526.145   1
  -1  13   6 12065.0 323.486   1
   1  13  -5 20716.6 443.807   1
   1  13  -4 1728.69 200.377   1
   1  13  -3 190.793 111.566   1
   1  13  -2 620.122 79.2581   1
   1  13  -1 43066.9 403.855   1
  -1  13   0 7441.19 246.352   1
  -1  13  -1 29921.1 483.735   1
   1  13   2 15390.7 386.637   1
  -1  13  -3 2287.14 154.554   1
   1  13   4 11584.4 214.429   1
   1  13   5 4016.19 135.123   1
  -1  13  -6 3720.84 138.522   1
   1  13   7 16289.5 271.735   1
  -1  13  -8 7365.04 192.899   1
  -1  13  -9 52.8571 60.1180   1
  -1  13 -10 11.2580 61.9920   1
  -1  13 -11 170.212 149.378   1
  -1  13 -12 6789.34 295.608   1
   1 -13  13 9636.79 208.003   1
   1  14 -13 1366.76 107.113   1
  -1  14  12 184.990 86.3622   1
  -1  14  11 340.082 77.0514   1
  -1  14  10 1659.32 173.110   1
   1  14  -9 5419.51 200.592   1
   1  14  -8 12594.5 288.824   1
   1  14  -7 232.619 82.5602   1
   1  14  -6 2910.78 143.353   1
  -1  14   5 6889.54 182.005   1
  -1  14   4 28626.7 308.535   1
  -1  14   3 18609.7 337.755   1
  -1  14   2 73262.4 529.743   1
   1  14  -1 1160.40 109.635   1
  -1  14   0 2109.38 151.974   1
  -1  14  -1 4118.26 204.099   1
  -1  14  -2 28610.5 477.448   1
   1  14   3 16976.2 249.261   1
  -1  14  -4 10450.3 200.737   1
   1  14   5 4600.10 156.770   1
  -1  14  -6 371.091 75.3018   1
  -1  14  -7 130.907 68.1171   1
  -1  14  -8 2965.45 134.314   1
  -1  14  -9 5750.20 160.994   1
  -1  14 -10 1187.57 89.9471   1
  -1  14 -11 7642.61 285.406   1
  -1  14 -12 173.757 123.291   1
  -1  14 -13-10.4381 59.1570   1
   1  15 -13 8.68390 55.2505   1
  -1  15  12 5209.64 149.467   1
  -1  15  11 1157.74 93.0186   1
   1  15 -10 703.599 84.0363   1
   1  15  -9 5474.25 197.608   1
  -1  15   8 5188.73 194.037   1
  -1  15   7 2.59890 75.5329   1
   1  15  -6 3216.10 150.316   1
   1  15  -5 2162.50 116.477   1
   1  15  -4 12599.2 166.285   1
   1  15  -3 878.086 51.0157   1
   1  15  -2 5530.04 152.169   1
  -1  15   1 21490.1 341.635   1
  -1  15   0 6687.44 178.800   1
   1  15   1 1333.64 79.0419   1
  -1  15  -2 23149.9 283.883   1
  -1  15  -3 16960.7 308.462   1
  -1  15  -4 2950.74 108.931   1
   1  15   5 5424.57 172.907   1
   1  15   6 7629.64 195.274   1
   1  15   7 156.251 70.3991   1
  -1  15  -8 17697.7 273.323   1
   1  15   9 53.4457 70.7135   1
   1  15  10 1537.60 93.4073   1
  -1  15 -11 1541.66 197.314   1
   1 -15  12 18540.1 301.943   1
   1  16 -13 328.951 56.0276   1
   1  16 -12 67.4739 72.7580   1
  -1  16  11 502.275 79.2087   1
  -1  16  10 989.841 87.4428   1
   1  16  -9 444.586 77.1717   1
   1  16  -8 15715.3 311.038   1
  -1  16   7 196.278 78.5910   1
   1  16  -6 285.079 67.6279   1
  -1  16   5 2134.76 88.6839   1
  -1  16   4 13608.7 135.925   1
   1  16  -3 9085.19 127.087   1
   1  16  -2 24352.1 218.890   1
  -1  16   1 6949.36 156.353   1
  -1  16   0 737.632 71.6211   1
   1  16   1 1208.69 87.8564   1
  -1  16  -2 38484.4 379.020   1
   1  16   3 3130.64 126.074   1
   1  16   4 21264.2 266.408   1
   1  16   5 4151.88 131.930   1
   1  16   6 2621.47 137.011   1
   1  16   7 1186.75 98.0471   1
  -1  16  -8 18902.9 280.234   1
   1  16   9 187.937 68.9157   1
   1  16  10 441.363 72.2545   1
   1 -16  11 494.696 83.4037   1
  -1  16 -12 2233.25 68.4938   1
   1  17 -12 4532.36 169.220   1
  -1  17  11 718.664 70.2609   1
   1  17 -10 917.644 86.9308   1
  -1  17   9 935.177 75.5644   1
   1  17  -8 1868.58 132.273   1
   1  17  -7 3857.84 132.374   1
   1  17  -6 6796.41 134.069   1
   1  17  -5 351.059 60.1629   1
   1  17  -4 533.199 48.7983   1
  -1  17   3 2215.50 83.6264   1
  -1  17   2 6584.95 118.523   1
  -1  17   1 56.8312 41.8497   1
   1  17   0 5257.35 114.949   1
  -1  17  -1 14443.1 209.636   1
   1  17   2 8578.16 305.718   1
   1  17   3 1418.03 97.7198   1
   1  17   4 379.902 70.5192   1
  -1  17  -5 698.811 77.8936   1
   1  17   6 41908.6 460.158   1
   1  17   7 22379.0 308.012   1
  -1  17  -8 26863.3 357.275   1
   1  17   9 53.2542 64.6462   1
   1 -17  10 81.7977 56.3203   1
  -1  17 -11 1631.60 115.704   1
  -1  17 -12 8077.61 255.934   1
   1  18 -12 90.1326 53.6218   1
  -1  18  11 92.5793 47.7748   1
   1  18 -10 90.6813 58.7247   1
   1  18  -9 5023.60 158.439   1
   1  18  -8 2914.93 165.667   1
   1  18  -7 1584.97 138.823   1
  -1  18   6 438.100 67.2717   1
  -1  18   5 6364.14 133.840   1
   1  18  -4 3197.03 97.6386   1
  -1  18   3 28343.1 265.020   1
  -1  18   2 4571.61 102.978   1
   1  18  -1 136.560 48.7449   1
  -1  18   0 717.831 59.6982   1
   1  18   1 1605.50 76.1980   1
  -1  18  -2 13586.3 308.350   1
   1  18   3 61308.3 512.627   1
  -1  18  -4 12369.8 242.154   1
  -1  18  -5 249.567 77.4287   1
  -1  18  -6 853.812 94.0398   1
   1  18   7 7336.82 200.756   1
   1  18   8 3292.45 138.035   1
   1  18   9 16025.3 282.880   1
  -1  18 -10 4182.49 130.789   1
  -1  18 -11 1860.56 90.4087   1
   1  19 -11 889.606 95.3510   1
  -1  19  10-20.8490 52.8223   1
   1  19  -9 197.077 64.7234   1
   1  19  -8 469.464 98.0106   1
   1  19  -7 1622.96 134.174   1
   1  19  -6 385.240 65.6451   1
  -1  19   5 888.992 71.6637   1
  -1  19   4 3911.22 107.336   1
   1  19  -3 99.0265 45.7985   1
  -1  19   2 1576.77 84.0345   1
   1  19  -1 5921.99 135.773   1
  -1  19   0 5005.65 122.728   1
  -1  19  -1 25070.4 256.947   1
   1  19   2 223.135 84.5534   1
   1  19   3 1837.04 110.185   1
   1  19   4 492.108 81.2789   1
   1  19   5 9111.81 248.528   1
   1  19   6 212.186 82.4657   1
   1  19   7 49231.4 556.670   1
   1  19   8 154.507 53.7733   1
   1  19   9 2140.64 86.7179   1
  -1  19 -10 4.74161 49.0143   1
  -1  19 -11 2705.58 178.079   1
   1  20 -11 596.699 58.1052   1
  -1  20  10 177.864 53.4444   1
   1  20  -9 5732.48 169.879   1
   1  20  -8 360.269 100.559   1
   1  20  -7 1724.19 120.512   1
   1  20  -6 2338.03 110.321   1
  -1  20   5 2464.07 97.6704   1
  -1  20   4 344.976 55.0467   1
   1  20  -3 17187.3 199.278   1
   1  20  -2 70.3656 54.9198   1
  -1  20   1 8058.58 160.152   1
   1  20   0 3194.11 109.889   1
   1  20   1 8083.55 170.052   1
  -1  20  -2 9366.03 214.596   1
  -1  20  -3 43079.1 444.733   1
   1  20   4 1161.57 96.3487   1
  -1  20  -5 14212.5 304.199   1
  -1  20  -6 236.241 78.5351   1
   1  20   7 2166.86 120.034   1
   1  20   8 1821.91 103.494   1
   1  20   9 13298.7 260.437   1
  -1  20 -10 60.2864 97.9948   1
  -1  20 -11 1836.70 129.072   1
   1  21 -10 1603.75 86.7316   1
   1  21  -9 3508.41 111.139   1
   1  21  -8 368.307 96.9555   1
   1  21  -7 5190.99 175.057   1
  -1  21   6 133.084 62.2832   1
  -1  21   5 2393.17 87.6147   1
   1  21  -4 606.160 59.8414   1
  -1  21   3 452.825 62.9268   1
  -1  21   2 5328.98 135.710   1
   1  21  -1 410.412 63.2854   1
   1  21   0 2247.69 107.312   1
  -1  21  -1 5272.10 149.130   1
  -1  21  -2 203.357 68.4490   1
  -1  21  -3 13554.8 263.723   1
  -1  21  -4 13651.0 256.083   1
   1  21   5 5486.20 208.902   1
   1  21   6 6417.36 214.977   1
   1  21   7 19023.5 286.251   1
   1  21   8 3457.60 156.262   1
  -1  21  -9 2014.23 195.260   1
  -1  21 -10-104.748 75.8674   1
   1  22 -10 1449.97 131.900   1
   1  22  -9 1406.16 69.5045   1
   1  22  -8 12383.4 233.754   1
   1  22  -7 3561.13 121.660   1
   1  22  -6 83.0496 55.7460   1
   1  22  -5 851.014 60.3356   1
  -1  22   4 8645.97 175.972   1
   1  22  -3 4125.65 117.775   1
  -1  22   2 6545.05 135.869   1
   1  22  -1 27432.8 325.617   1
   1  22   0 1182.87 88.9057   1
  -1  22  -1 393.924 68.1196   1
   1  22   2 17557.6 263.214   1
   1  22   3 2242.46 120.302   1
   1  22   4 8097.77 217.329   1
   1  22   5 2630.62 204.091   1
   1  22   6 214.245 113.596   1
   1  22   7 2387.35 175.855   1
  -1  22  -8 7721.08 199.236   1
  -1  22  -9 295.047 109.660   1
  -1  22 -10 912.703 104.682   1
   1  23  -9 3976.15 198.732   1
   1  23  -8 7692.39 164.613   1
  -1  23   7 42.1333 46.3399   1
   1  23  -6 10825.5 191.721   1
  -1  23   5 434.323 76.2981   1
   1  23  -4 1773.24 91.1731   1
   1  23  -3 3010.13 102.365   1
  -1  23   2 6905.80 167.048   1
  -1  23   1 1668.19 97.5991   1
  -1  23   0 11561.0 209.807   1
   1  23   1 1475.45 111.202   1
   1  23   2 12421.0 262.812   1
  -1  23  -3 11180.1 248.989   1
  -1  23  -4 101.358 87.6559   1
   1  23   5-10.4693 109.972   1
   1  23   6 4845.60 239.629   1
   1  23   7 80.6735 90.8055   1
  -1  23  -8 4662.80 141.633   1
  -1  23  -9 66.7504 77.8409   1
   1  24  -8 9410.65 189.333   1
  -1  24   7 100.377 64.1222   1
  -1  24   6-18.9353 66.1172   1
  -1  24   5 161.943 78.4096   1
   1  24  -4 17641.4 260.556   1
  -1  24   3 1977.04 108.151   1
  -1  24   2 26957.3 299.251   1
  -1  24   1 1959.06 98.8300   1
  -1  24   0 906.620 91.6561   1
   1  24   1 1171.32 85.8726   1
   1  24   2 8217.69 211.391   1
   1  24   3 1508.84 110.004   1
  -1  24  -4 3452.00 170.667   1
  -1  24  -5 566.613 94.0607   1
   1  24   6 195.720 92.6848   1
   1  24   7 520.910 97.3041   1
  -1  24  -9 76.4296 63.6456   1
   1  25  -7 8591.60 252.650   1
   1  25  -6 11053.7 232.286   1
   1  25  -5 8716.69 223.990   1
  -1  25   4 2300.21 100.548   1
   1  25  -3-26.3559 67.8768   1
  -1  25   2-38.1832 59.2285   1
  -1  25   1 8977.20 262.221   1
  -1  25   0 6371.83 177.531   1
   1  25   1 3065.50 134.860   1
   1  25   2 1853.23 111.578   1
   1  25   3 605.597 100.943   1
   1  25   4 381.997 90.1922   1
   1  25   5 212.559 76.3953   1
  -1  25  -6 724.799 83.0006   1
   1  25   7 739.559 80.7428   1
   1  26  -7 2530.22 121.952   1
   1  26  -6 139.156 76.5485   1
   1  26  -5 7854.47 276.412   1
   1  26  -4 7562.50 296.736   1
  -1  26   3 22730.4 320.361   1
  -1  26   2 5414.52 176.611   1
  -1  26   1 6122.43 160.465   1
   1  26   0 106.080 63.5188   1
   1  26   1 380.881 72.8529   1
  -1  26  -2 2138.38 110.096   1
  -1  26  -3 2370.44 133.532   1
  -1  26  -4 1514.65 110.331   1
  -1  26  -5 1376.10 97.1489   1
  -1  26  -6 2025.54 95.9598   1
  -1  26  -7-6.12339 66.8680   1
   1  27  -6 218.679 61.2365   1
   1  27  -5 15444.9 325.435   1
   1  27  -4 4361.57 206.333   1
  -1  27   3 33.6297 55.2375   1
  -1  27   2 124.572 63.6095   1
   1  27  -1 8646.85 171.537   1
   1  27   0 208.264 63.9575   1
  -1  27  -1 4582.11 137.530   1
   1  27   2 1395.87 106.386   1
  -1  27  -3 518.631 79.8740   1
  -1  27  -4 325.921 70.5947   1
  -1  27  -5 1008.21 75.7738   1
  -1  27  -6 962.898 107.128   1
   1  28  -5 5725.82 179.987   1
   1  28  -4 59.1647 49.5276   1
   1  28  -3 8605.50 256.380   1
   1  28  -2 1727.16 75.3188   1
  -1  28   1 5711.80 127.236   1
   1  28   0 5762.20 130.444   1
  -1  28  -1 8053.09 151.043   1
  -1  28  -2 1715.00 99.4528   1
   1  28   3 2379.10 106.250   1
  -1  28  -4 86.7663 48.7674   1
  -1  28  -5 412.373 74.6656   1
   1  29  -4 2832.30 128.515   1
   1  29  -3 1134.98 89.5741   1
   1  29  -2-3.13101 46.5785   1
   1  29  -1 7858.20 122.679   1
  -1  29   0 5998.87 133.882   1
   1  29   1 1195.69 74.0731   1
  -1  29  -2 5047.72 121.220   1
   1  29   3 89.7348 33.9485   1
  -1  29  -4 220.374 54.4312   1
   1  30  -2 3989.63 136.719   1
   1  30  -1 366.045 66.3050   1
   1  30   0 934.974 84.9036   1
   1  30   1 9301.43 194.146   1
  -2   0  14 6566.19 223.191   1
   2   0 -12 44402.9 275.471   1
   2   0 -10 4588.89 90.9525   1
  -2   0   8 1688.75 70.2270   1
   2   0  -6 113726. 372.427   1
   2   0  -2 1939.37 161.400   1
   2   0   0 316889. 2029.96   1
   2   0   2 28074.7 287.908   1
   2   0   4 28.4198 102.061   1
   2   0   6 3686.04 169.820   1
   2   0   8 4951.47 127.491   1
   2   0  10 1286.79 150.878   1
   2   0  12 8981.02 315.461   1
   2   0  14 22850.8 323.021   1
  -2  -1  15 5499.96 156.344   1
  -2  -1  14 8464.42 249.249   1
  -2   1  13 655.492 137.491   1
  -2   1 -12 1427.00 87.2368  -2
  -2  -1  13 1427.00 87.2368   1
  -2  -1 -11 725.189 80.6879  -2
  -2   1  12 725.189 80.6879   1
   2   1  10 13838.4 196.059  -2
   2  -1 -11 13838.4 196.059   1
   2   1   9 67584.7 413.380  -2
   2  -1 -10 67584.7 413.380   1
   2   1  -9 16537.2 928.291   1
  -2  -1  -8 18610.1 249.372  -2
  -2   1   9 18610.1 249.372   1
   2   1   7 8825.26 175.899  -2
   2  -1  -8 8825.26 175.899   1
   2   1   6 9405.80 371.708  -2
   2  -1  -7 9405.80 371.708   1
   2  -1   5 564.438 260.244  -2
   2   1  -6 564.438 260.244   1
   2  -1   4 9846.53 255.066  -2
   2   1  -5 9846.53 255.066   1
   2   1   2 14640.2 543.751  -2
   2  -1  -3 14640.2 543.751   1
   2   1   1 2981.06 271.546  -2
   2  -1  -2 2981.06 271.546   1
   2  -1  -1 77.1270 127.471   1
   2  -1   0 141.272 82.2390   1
   2   1  -2 7813.06 353.275  -2
   2  -1   1 7813.06 353.275   1
   2   1  -3 36109.5 532.969  -2
   2  -1   2 36109.5 532.969   1
   2   1  -4 2812.16 203.681  -2
   2  -1   3 2812.16 203.681   1
   2   1  -5 38164.4 1093.44  -2
   2  -1   4 38164.4 1093.44   1
   2   1  -6 837.681 375.685  -2
   2  -1   5 837.681 375.685   1
   2  -1   6 2108.58 540.828   1
   2  -1   7 4708.18 264.294   1
   2  -1  -8 5494.39 229.160  -2
   2   1   7 5494.39 229.160   1
   2   1  -9 5799.23 254.570  -2
   2  -1   8 5799.23 254.570   1
   2  -1   9 21179.8 479.040   1
   2  -1  10 67331.5 1939.21   1
   2   1 -11 70128.7 915.172  -2
   2  -1  10 70128.7 915.172   1
   2  -1  11 541.655 132.132   1
   2  -1  12 2583.42 186.914   1
   2   1  13 170.043 43.7775   1
   2  -1  14 6615.45 112.637   1
  -2  -2  15 1575.35 91.4938   1
  -2   2 -13 1558.82 143.029  -2
  -2  -2  14 1558.82 143.029   1
  -2   2  13 5955.41 200.681   1
  -2   2 -12 6972.73 201.171  -2
  -2  -2  13 6972.73 201.171   1
  -2   2 -11 26268.3 289.380  -2
  -2  -2  12 26268.3 289.380   1
   2   2  10 44617.3 364.151  -2
   2  -2 -11 44617.3 364.151   1
  -2  -2  -9 17772.0 238.032  -2
  -2   2  10 17772.0 238.032   1
   2  -2   8 5171.47 155.950  -2
   2   2  -9 5171.47 155.950   1
  -2  -2  -7 17324.6 258.136  -2
  -2   2   8 17324.6 258.136   1
   2  -2   6 8614.82 337.602  -2
   2   2  -7 8614.82 337.602   1
   2  -2   5 76198.8 812.691  -2
   2   2  -6 76198.8 812.691   1
   2  -2   4 70019.2 654.083  -2
   2   2  -5 70019.2 654.083   1
   2  -2   3 3245.56 327.364  -2
   2   2  -4 3245.56 327.364   1
   2   2   2 8345.36 427.356  -2
   2  -2  -3 8345.36 427.356   1
   2   2   1 25290.6 644.198  -2
   2  -2  -2 25290.6 644.198   1
   2   2   0 14853.8 469.567  -2
   2  -2  -1 14853.8 469.567   1
   2  -2   0 17968.2 357.522   1
   2  -2   1 13828.3 443.128   1
   2   2  -2 19687.1 542.125  -2
   2  -2   1 19687.1 542.125   1
   2   2  -3 5482.89 237.381  -2
   2  -2   2 5482.89 237.381   1
   2   2  -4 1910.12 186.824  -2
   2  -2   3 1910.12 186.824   1
   2   2  -5 19850.2 803.483  -2
   2  -2   4 19850.2 803.483   1
   2   2  -6 63929.3 1677.09  -2
   2  -2   5 63929.3 1677.09   1
   2   2  -7 6229.73 722.065  -2
   2  -2   6 6229.73 722.065   1
  -2   2  -7 4074.36 356.235   1
   2   2  -8 7501.03 193.068  -2
   2  -2   7 7501.03 193.068   1
   2   2   8 13086.1 486.780   1
   2   2  -9 16214.6 418.965  -2
   2  -2   8 16214.6 418.965   1
   2  -2   9 221.061 99.3092   1
   2  -2  10 551.423 107.256   1
   2  -2  11 21940.6 515.025   1
   2  -2  12 4401.59 155.622   1
   2  -2  13 6823.85 164.920   1
   2  -2  14 6138.32 113.152   1
  -2   3  15 9590.36 132.438   1
  -2   3  14 3025.26 93.9924   1
  -2   3  13 583.869 131.259   1
  -2  -3 -12 1232.74 82.8651  -2
  -2   3  13 1232.74 82.8651   1
  -2  -3 -11 5023.45 126.540  -2
  -2   3  12 5023.45 126.540   1
  -2  -3 -10 18262.9 214.129  -2
  -2   3  11 18262.9 214.129   1
   2   3 -10 8861.05 725.782   1
  -2  -3  -9 12458.1 179.944  -2
  -2   3  10 12458.1 179.944   1
   2   3  -9 12610.7 822.311   1
  -2   3  -8 13092.4 206.600  -2
  -2  -3   9 13092.4 206.600   1
   2  -3   7 3115.80 116.025  -2
   2   3  -8 3115.80 116.025   1
   2   3   6 31039.1 423.610  -2
   2  -3  -7 31039.1 423.610   1
   2  -3   5 58349.9 519.637  -2
   2   3  -6 58349.9 519.637   1
   2  -3   4 8704.76 183.134  -2
   2   3  -5 8704.76 183.134   1
   2  -3   2 7673.35 294.159  -2
   2   3  -3 7673.35 294.159   1
   2   3   1 10348.1 307.750  -2
   2  -3  -2 10348.1 307.750   1
   2  -3  -1 74386.8 1001.29   1
   2  -3   0 95320.2 1146.81  -2
   2   3  -1 95320.2 1146.81   1
   2   3   0 5682.27 211.599   1
   2   3  -1 27612.0 431.208  -2
   2  -3   0 27612.0 431.208   1
   2   3   1 8430.12 337.767   1
   2   3  -2 11917.6 247.864  -2
   2  -3   1 11917.6 247.864   1
   2  -3  -3 6387.46 177.019  -2
   2   3   2 6387.46 177.019   1
   2  -3  -4 18136.8 307.367  -2
   2   3   3 18136.8 307.367   1
   2  -3  -5 14840.3 484.634  -2
   2   3   4 14840.3 484.634   1
   2   3  -6 40585.2 898.836  -2
   2  -3   5 40585.2 898.836   1
   2   3  -7 60078.8 1215.84  -2
   2  -3   6 60078.8 1215.84   1
  -2   3  -7 5098.60 400.073   1
   2  -3  -8 5302.04 140.317  -2
   2   3   7 5302.04 140.317   1
   2   3   8 1041.66 206.930   1
   2  -3  -9 3231.30 160.316  -2
   2   3   8 3231.30 160.316   1
   2  -3   9 20379.7 301.679   1
   2   3  10 9686.20 298.054   1
   2   3 -11 12278.8 408.217  -2
   2  -3  10 12278.8 408.217   1
   2  -3  11 13201.7 283.057   1
   2   3  12 3595.06 113.558   1
   2  -3  13-42.0205 41.1237   1
   2  -3  14 2053.26 58.2750   1
  -2   4  15 112.310 29.3764   1
  -2   4  14 1927.98 78.6985   1
  -2   4  13 1494.58 176.386   1
   2   4  12 1989.66 89.5825  -2
   2  -4 -13 1989.66 89.5825   1
  -2   4  12 325.376 127.602   1
  -2   4 -11 405.183 70.3346  -2
  -2  -4  12 405.183 70.3346   1
  -2  -4 -10 18186.4 196.664  -2
  -2   4  11 18186.4 196.664   1
  -2   4  -9 2442.01 90.1649  -2
  -2  -4  10 2442.01 90.1649   1
   2   4  -9 754.279 269.606   1
  -2  -4  -8 1131.88 79.2145  -2
  -2   4   9 1131.88 79.2145   1
   2   4  -8 23428.3 1096.89   1
  -2   4  -7 22674.8 265.393  -2
  -2  -4   8 22674.8 265.393   1
   2  -4   6 16743.4 313.097  -2
   2   4  -7 16743.4 313.097   1
   2   4   5 6342.46 175.034  -2
   2  -4  -6 6342.46 175.034   1
   2  -4   4 54416.7 458.524  -2
   2   4  -5 54416.7 458.524   1
   2   4   3 7037.98 308.803  -2
   2  -4  -4 7037.98 308.803   1
   2   4   2 1058.43 128.272  -2
   2  -4  -3 1058.43 128.272   1
   2   4   1 147214. 1060.43  -2
   2  -4  -2 147214. 1060.43   1
   2  -4   0 182895. 1118.77  -2
   2   4  -1 182895. 1118.77   1
   2  -4   0 179.731 91.8459   1
   2  -4  -1 42301.2 511.473  -2
   2   4   0 42301.2 511.473   1
   2   4  -2 147646. 695.034  -2
   2  -4   1 147646. 695.034   1
   2  -4  -3 6005.41 171.607  -2
   2   4   2 6005.41 171.607   1
   2  -4  -4 3192.25 152.564  -2
   2   4   3 3192.25 152.564   1
   2   4  -5 21274.1 562.138  -2
   2  -4   4 21274.1 562.138   1
   2  -4  -6 32356.1 791.141  -2
   2   4   5 32356.1 791.141   1
   2   4  -7 10251.8 517.090  -2
   2  -4   6 10251.8 517.090   1
  -2   4  -7 7773.15 278.007   1
   2  -4  -8 12391.2 216.509  -2
   2   4   7 12391.2 216.509   1
   2   4   8 4159.95 227.129   1
   2   4  -9 4593.62 176.331  -2
   2  -4   8 4593.62 176.331   1
   2  -4   9 3558.36 177.382   1
   2  -4 -10 3676.06 256.437  -2
   2   4   9 3676.06 256.437   1
   2  -4  10 19956.0 391.886   1
   2  -4 -11 23030.0 532.904  -2
   2   4  10 23030.0 532.904   1
   2   4  11 1483.58 90.4016   1
   2  -4  12 1110.19 95.5340   1
   2  -4  13 2272.06 83.5049   1
   2  -4  14 321.370 55.7042   1
   2   5 -15 4225.71 175.805   1
  -2   5  14 560.459 52.8875   1
  -2   5  13 91.5334 102.171   1
   2   5  12 955.182 74.1835  -2
   2  -5 -13 955.182 74.1835   1
  -2  -5 -11 6970.61 138.625  -2
  -2   5  12 6970.61 138.625   1
  -2   5 -10 3500.30 96.2084  -2
  -2  -5  11 3500.30 96.2084   1
  -2   5  -9 6577.13 124.587  -2
  -2  -5  10 6577.13 124.587   1
   2   5  -9 2883.39 464.165   1
  -2  -5  -8 3731.93 100.970  -2
  -2   5   9 3731.93 100.970   1
   2  -5   7 9536.08 166.912  -2
   2   5  -8 9536.08 166.912   1
   2   5   6 8351.26 175.696  -2
   2  -5  -7 8351.26 175.696   1
   2   5   5 51029.5 494.579  -2
   2  -5  -6 51029.5 494.579   1
   2  -5   4 21695.2 293.606  -2
   2   5  -5 21695.2 293.606   1
   2  -5   3 13688.5 337.618  -2
   2   5  -4 13688.5 337.618   1
   2   5   2 38571.8 503.953  -2
   2  -5  -3 38571.8 503.953   1
   2  -5   1 50476.1 639.695  -2
   2   5  -2 50476.1 639.695   1
   2   5   0 30911.9 475.678  -2
   2  -5  -1 30911.9 475.678   1
   2   5  -1 7730.54 202.256  -2
   2  -5   0 7730.54 202.256   1
   2  -5  -2 13796.9 223.622  -2
   2   5   1 13796.9 223.622   1
   2   5  -3 19696.8 286.247  -2
   2  -5   2 19696.8 286.247   1
   2   5  -4 63832.1 666.789  -2
   2  -5   3 63832.1 666.789   1
   2  -5  -5 20948.7 561.610  -2
   2   5   4 20948.7 561.610   1
   2   5  -6 75389.6 1156.59  -2
   2  -5   5 75389.6 1156.59   1
   2  -5  -7 33382.0 855.433  -2
   2   5   6 33382.0 855.433   1
  -2   5  -7 2282.62 172.361   1
   2  -5  -8 4464.82 142.243  -2
   2   5   7 4464.82 142.243   1
  -2   5  -8 3693.89 199.115   1
   2  -5  -9 4849.42 185.546  -2
   2   5   8 4849.42 185.546   1
   2  -5   9 14603.8 406.791   1
   2  -5 -10 15473.4 316.306  -2
   2   5   9 15473.4 316.306   1
   2   5  10 4053.72 159.989   1
   2   5 -11 5376.73 292.140  -2
   2  -5  10 5376.73 292.140   1
   2   5  11 6233.70 137.634   1
   2   5  12 3167.89 134.528   1
   2  -5  13 135.399 43.1736   1
   2  -5  14 235.345 26.9479   1
   2   6 -15 1114.73 101.226   1
   2   6 -14 853.999 51.8682   1
  -2   6 -12 290.494 85.6095  -2
  -2  -6  13 290.494 85.6095   1
  -2  -6 -11 1398.53 88.1272  -2
  -2   6  12 1398.53 88.1272   1
   2  -6 -11 968.875 307.579   1
  -2  -6 -10 1208.05 78.1913  -2
  -2   6  11 1208.05 78.1913   1
  -2   6  -9 950.008 74.3788  -2
  -2  -6  10 950.008 74.3788   1
   2  -6   8 1370.73 78.3362  -2
   2   6  -9 1370.73 78.3362   1
   2  -6   7 2993.08 116.298  -2
   2   6  -8 2993.08 116.298   1
   2   6   6 27295.0 390.801  -2
   2  -6  -7 27295.0 390.801   1
   2   6   5 31681.3 387.575  -2
   2  -6  -6 31681.3 387.575   1
   2   6   4 26518.8 318.538  -2
   2  -6  -5 26518.8 318.538   1
   2   6   3 12805.5 338.959  -2
   2  -6  -4 12805.5 338.959   1
   2  -6   2 9553.20 262.017  -2
   2   6  -3 9553.20 262.017   1
   2  -6   1 24309.9 430.248  -2
   2   6  -2 24309.9 430.248   1
   2   6   0 180374. 1117.94  -2
   2  -6  -1 180374. 1117.94   1
   2   6  -1 267908. 1338.82  -2
   2  -6   0 267908. 1338.82   1
   2  -6  -2 89727.0 543.712  -2
   2   6   1 89727.0 543.712   1
   2   6  -3 33753.3 371.910  -2
   2  -6   2 33753.3 371.910   1
   2  -6  -4 4922.99 264.275  -2
   2   6   3 4922.99 264.275   1
   2   6  -5 12312.7 437.387  -2
   2  -6   4 12312.7 437.387   1
   2   6  -6 18399.2 581.228  -2
   2  -6   5 18399.2 581.228   1
   2  -6  -7 46914.3 569.469  -2
   2   6   6 46914.3 569.469   1
   2   6   7 6477.62 265.816   1
   2   6  -8 7335.56 169.379  -2
   2  -6   7 7335.56 169.379   1
  -2   6  -8 4254.77 193.323   1
   2   6  -9 4492.42 188.402  -2
   2  -6   8 4492.42 188.402   1
   2   6   9 2083.46 131.403   1
   2   6 -10 2165.13 224.369  -2
   2  -6   9 2165.13 224.369   1
   2   6  10 1315.00 98.1081   1
   2  -6 -11 1656.46 140.947  -2
   2   6  10 1656.46 140.947   1
   2  -6  11 1480.88 96.4402   1
   2   6  12 361.877 70.7696   1
  -2  -6 -13 187.962 35.4965   1
   2  -6  14 829.083 67.3709   1
  -2   7  14 101.391 34.0120   1
  -2   7 -12 1070.31 97.3799  -2
  -2  -7  13 1070.31 97.3799   1
   2  -7  11 1723.77 91.6764  -2
   2   7 -12 1723.77 91.6764   1
   2  -7  10 3618.43 116.858  -2
   2   7 -11 3618.43 116.858   1
  -2   7  -9 4479.05 109.866  -2
  -2  -7  10 4479.05 109.866   1
   2  -7   8 1725.77 83.8318  -2
   2   7  -9 1725.77 83.8318   1
  -2  -7  -7 4946.43 179.989  -2
  -2   7   8 4946.43 179.989   1
   2   7   6 4412.05 179.224  -2
   2  -7  -7 4412.05 179.224   1
   2   7   5 3265.54 141.659  -2
   2  -7  -6 3265.54 141.659   1
   2  -7   4 25861.9 255.569  -2
   2   7  -5 25861.9 255.569   1
   2  -7   3 65874.7 739.172  -2
   2   7  -4 65874.7 739.172   1
   2  -7   2 19459.5 356.118  -2
   2   7  -3 19459.5 356.118   1
   2  -7   1 148773. 1091.70  -2
   2   7  -2 148773. 1091.70   1
   2   7   0 2331.44 164.962  -2
   2  -7  -1 2331.44 164.962   1
   2  -7  -2 40685.4 371.107  -2
   2   7   1 40685.4 371.107   1
   2   7  -3 80045.5 566.089  -2
   2  -7   2 80045.5 566.089   1
   2  -7  -4 27812.7 549.492  -2
   2   7   3 27812.7 549.492   1
   2  -7  -5 133946. 1346.49  -2
   2   7   4 133946. 1346.49   1
   2   7  -6 10139.2 241.916  -2
   2  -7   5 10139.2 241.916   1
   2   7   6 479.364 178.690   1
   2  -7  -7 1047.87 143.931  -2
   2   7   6 1047.87 143.931   1
  -2   7  -7 2000.22 308.624   1
   2   7  -8 3157.60 110.257  -2
   2  -7   7 3157.60 110.257   1
   2  -7   8 2942.91 185.139   1
   2  -7  -9 3161.70 140.442  -2
   2   7   8 3161.70 140.442   1
  -2   7  -9 6313.92 240.314   1
  -2  -7  10 7440.26 199.253  -2
  -2   7  -9 7440.26 199.253   1
   2  -7  10 5883.17 150.551   1
   2   7  11 2982.77 120.037   1
   2  -7  12-20.9909 55.7868   1
   2   7  13 52.5245 43.4135   1
   2   8 -14 76.3627 28.6157   1
  -2   8 -12 86.3821 71.3783  -2
  -2  -8  13 86.3821 71.3783   1
   2  -8  11 704.312 81.9336  -2
   2   8 -12 704.312 81.9336   1
  -2   8 -10 754.392 79.6037  -2
  -2  -8  11 754.392 79.6037   1
   2   8 -10 4681.98 567.344   1
  -2   8  -9 7437.98 146.506  -2
  -2  -8  10 7437.98 146.506   1
   2  -8   8 8840.57 143.172  -2
   2   8  -9 8840.57 143.172   1
  -2   8  -7 506.403 83.8057  -2
  -2  -8   8 506.403 83.8057   1
   2  -8   6 14582.9 223.120  -2
   2   8  -7 14582.9 223.120   1
   2  -8   5 35277.7 355.315  -2
   2   8  -6 35277.7 355.315   1
   2  -8   4 2781.39 104.215  -2
   2   8  -5 2781.39 104.215   1
   2  -8   3 27329.8 488.923  -2
   2   8  -4 27329.8 488.923   1
   2   8   2 18614.2 346.934  -2
   2  -8  -3 18614.2 346.934   1
   2   8   1 19612.5 416.460  -2
   2  -8  -2 19612.5 416.460   1
   2  -8   0 46838.3 546.576  -2
   2   8  -1 46838.3 546.576   1
   2  -8  -1 191327. 1577.22  -2
   2   8   0 191327. 1577.22   1
   2  -8  -2 6350.08 160.124  -2
   2   8   1 6350.08 160.124   1
   2   8  -3 78802.5 559.404  -2
   2  -8   2 78802.5 559.404   1
   2  -8  -4 22321.3 490.935  -2
   2   8   3 22321.3 490.935   1
   2  -8  -5 8294.19 215.470  -2
   2   8   4 8294.19 215.470   1
   2  -8  -6 9461.63 243.941  -2
   2   8   5 9461.63 243.941   1
   2   8  -7 57062.4 356.523  -2
   2  -8   6 57062.4 356.523   1
  -2   8  -7 687.746 128.418   1
   2  -8  -8 860.108 95.1224  -2
   2   8   7 860.108 95.1224   1
   2   8   8 8019.61 314.302   1
   2   8  -9 10370.4 205.793  -2
   2  -8   8 10370.4 205.793   1
  -2   8  -9 6867.67 248.896   1
  -2  -8  10 8744.91 209.533  -2
  -2   8  -9 8744.91 209.533   1
   2   8  10 3439.96 127.189   1
   2  -8  11 1563.90 95.1541   1
  -2   8 -12 303.876 54.3957   1
   2  -8  13 5.89635 59.8610   1
   2   9 -14 1894.22 80.4802   1
  -2   9  13 643.639 113.489   1
  -2   9 -12 516.282 75.1780  -2
  -2  -9  13 516.282 75.1780   1
  -2   9 -11 1552.59 93.1774  -2
  -2  -9  12 1552.59 93.1774   1
  -2  -9 -10 197.924 56.8879  -2
  -2   9  11 197.924 56.8879   1
   2   9   9 287.831 60.9679  -2
   2  -9 -10 287.831 60.9679   1
  -2  -9  -8 4417.88 108.323  -2
  -2   9   9 4417.88 108.323   1
  -2   9  -7 5352.46 112.255  -2
  -2  -9   8 5352.46 112.255   1
   2  -9   6 1990.61 94.2327  -2
   2   9  -7 1990.61 94.2327   1
   2  -9   5 3934.13 112.388  -2
   2   9  -6 3934.13 112.388   1
   2  -9   4 46663.9 358.307  -2
   2   9  -5 46663.9 358.307   1
   2   9   3 34537.2 539.290  -2
   2  -9  -4 34537.2 539.290   1
   2   9   2 46494.7 542.853  -2
   2  -9  -3 46494.7 542.853   1
   2  -9   1 135029. 1049.10  -2
   2   9  -2 135029. 1049.10   1
   2  -9   0 26003.5 446.785  -2
   2   9  -1 26003.5 446.785   1
   2   9  -1 14976.6 324.902  -2
   2  -9   0 14976.6 324.902   1
   2   9  -2 66643.4 428.222  -2
   2  -9   1 66643.4 428.222   1
   2  -9  -3 112433. 643.694  -2
   2   9   2 112433. 643.694   1
   2  -9  -4 20691.1 303.358  -2
   2   9   3 20691.1 303.358   1
   2  -9  -5 64213.1 575.711  -2
   2   9   4 64213.1 575.711   1
   2  -9  -6 14674.1 220.257  -2
   2   9   5 14674.1 220.257   1
   2  -9  -7 4897.82 108.205  -2
   2   9   6 4897.82 108.205   1
  -2   9  -7 2089.12 334.637   1
   2   9  -8 3074.87 112.906  -2
   2  -9   7 3074.87 112.906   1
  -2   9  -8 7514.20 582.706   1
  -2  -9   9 9403.00 175.947  -2
  -2   9  -8 9403.00 175.947   1
  -2   9  -9 532.392 107.656   1
   2  -9 -10 282.726 79.3787  -2
   2   9   9 282.726 79.3787   1
   2   9  10 956.232 107.050   1
   2  -9 -11 1226.01 168.669  -2
   2   9  10 1226.01 168.669   1
   2  -9  11 414.150 66.5569   1
   2   9  12 1086.24 66.8367   1
   2  -9  13 1229.34 64.2589   1
   2  10 -14 458.069 49.3856   1
   2  10 -13 1969.79 104.378   1
  -2  10 -12 2086.53 126.830  -2
  -2 -10  13 2086.53 126.830   1
  -2  10  12 1922.90 173.493   1
  -2  10 -11 1672.71 101.770  -2
  -2 -10  12 1672.71 101.770   1
  -2  10 -10 1761.74 102.152  -2
  -2 -10  11 1761.74 102.152   1
   2  10   9 9343.41 150.994  -2
   2 -10 -10 9343.41 150.994   1
   2  10   8 12284.0 158.501  -2
   2 -10  -9 12284.0 158.501   1
  -2 -10  -7 4006.51 105.809  -2
  -2  10   8 4006.51 105.809   1
  -2  10  -6 9373.91 165.591  -2
  -2 -10   7 9373.91 165.591   1
   2 -10   5 4166.97 137.426  -2
   2  10  -6 4166.97 137.426   1
   2 -10   4 16862.2 426.755  -2
   2  10  -5 16862.2 426.755   1
   2 -10   3 100533. 884.241  -2
   2  10  -4 100533. 884.241   1
   2 -10   2 5990.18 209.411  -2
   2  10  -3 5990.18 209.411   1
   2  10   1 16809.4 356.762  -2
   2 -10  -2 16809.4 356.762   1
   2 -10  -1 50539.2 587.572  -2
   2  10   0 50539.2 587.572   1
   2 -10  -2 48737.9 441.467  -2
   2  10   1 48737.9 441.467   1
   2 -10  -3 22498.3 303.360  -2
   2  10   2 22498.3 303.360   1
   2 -10  -4 51953.2 488.111  -2
   2  10   3 51953.2 488.111   1
   2 -10  -5 48528.5 513.041  -2
   2  10   4 48528.5 513.041   1
  -2 -10   6 8866.23 152.093  -2
  -2  10  -5 8866.23 152.093   1
  -2  10  -6 8712.00 629.200   1
   2 -10  -7 12869.7 182.935  -2
   2  10   6 12869.7 182.935   1
  -2  10  -7 16107.3 834.156   1
   2 -10  -8 17923.8 195.343  -2
   2  10   7 17923.8 195.343   1
  -2  10  -8 509.727 174.139   1
  -2 -10   9 3258.46 122.810  -2
  -2  10  -8 3258.46 122.810   1
   2  10   9 16704.2 396.258   1
   2 -10 -10 18942.7 280.215  -2
   2  10   9 18942.7 280.215   1
   2 -10  10 1163.52 105.011   1
   2 -10 -11 1528.46 167.737  -2
   2  10  10 1528.46 167.737   1
  -2  10 -11 1035.70 75.3871   1
   2 -10  12 2223.39 84.4631   1
   2 -10  13 4025.56 153.501   1
   2  11 -14 547.090 52.9989   1
   2  11 -13 2761.41 99.4726   1
   2  11 -12 2034.84 217.741   1
  -2 -11 -11 2913.33 207.669  -2
  -2  11  12 2913.33 207.669   1
  -2  11 -10 1414.29 92.4155  -2
  -2 -11  11 1414.29 92.4155   1
  -2  11  -9 3236.14 120.217  -2
  -2 -11  10 3236.14 120.217   1
  -2 -11  -8 36300.6 346.635  -2
  -2  11   9 36300.6 346.635   1
   2 -11   7 20735.6 256.688  -2
   2  11  -8 20735.6 256.688   1
   2 -11   6 9421.79 189.829  -2
   2  11  -7 9421.79 189.829   1
   2 -11   5 15030.3 276.244  -2
   2  11  -6 15030.3 276.244   1
   2 -11   4 12616.1 372.990  -2
   2  11  -5 12616.1 372.990   1
   2 -11   3 17064.2 369.663  -2
   2  11  -4 17064.2 369.663   1
   2 -11   2 42556.3 513.706  -2
   2  11  -3 42556.3 513.706   1
   2 -11   1 1064.92 156.862  -2
   2  11  -2 1064.92 156.862   1
   2 -11   0 6413.43 175.239  -2
   2  11  -1 6413.43 175.239   1
  -2 -11   1 11324.6 221.035  -2
  -2  11   0 11324.6 221.035   1
   2 -11  -2 3956.81 214.890  -2
   2  11   1 3956.81 214.890   1
   2 -11  -3 12642.5 278.375  -2
   2  11   2 12642.5 278.375   1
   2 -11  -4 31439.3 395.212  -2
   2  11   3 31439.3 395.212   1
   2 -11  -5 8572.42 174.127  -2
   2  11   4 8572.42 174.127   1
   2 -11  -6 12936.9 182.297  -2
   2  11   5 12936.9 182.297   1
  -2  11  -6 1034.34 273.420   1
   2 -11  -7 4011.66 138.678  -2
   2  11   6 4011.66 138.678   1
  -2  11  -7 252.038 195.638   1
   2 -11  -8 5509.48 140.040  -2
   2  11   7 5509.48 140.040   1
  -2  11  -8 39921.5 1337.76   1
   2 -11  -9 47106.9 447.713  -2
   2  11   8 47106.9 447.713   1
   2  11   9 17186.7 452.461   1
   2 -11 -10 17100.1 257.855  -2
   2  11   9 17100.1 257.855   1
   2  11  10 787.377 89.3649   1
   2 -11 -11 608.537 134.198  -2
   2  11  10 608.537 134.198   1
   2  11  11 4475.49 249.634   1
   2 -11  12 114.132 75.8893   1
   2 -11  13 57.2470 48.7005   1
   2  12 -14 347.035 74.6788   1
   2  12 -13 12857.4 178.180   1
   2  12 -12 521.959 152.972   1
  -2 -12 -11 1990.94 177.528  -2
  -2  12  12 1990.94 177.528   1
  -2 -12 -10 12943.3 396.159  -2
  -2  12  11 12943.3 396.159   1
  -2 -12  -9 6055.56 193.116  -2
  -2  12  10 6055.56 193.116   1
  -2 -12  -8 3693.30 154.074  -2
  -2  12   9 3693.30 154.074   1
  -2 -12  -7 12707.1 387.703  -2
  -2  12   8 12707.1 387.703   1
  -2 -12  -6 23071.8 491.359  -2
  -2  12   7 23071.8 491.359   1
   2 -12   5 2740.35 154.883  -2
   2  12  -6 2740.35 154.883   1
  -2 -12  -4 22570.7 356.649  -2
  -2  12   5 22570.7 356.649   1
   2 -12   3 36620.3 486.464  -2
   2  12  -4 36620.3 486.464   1
  -2 -12   0 7359.38 242.720  -2
  -2  12   1 7359.38 242.720   1
  -2 -12   1 9573.01 257.662  -2
  -2  12   0 9573.01 257.662   1
   2 -12  -2 16224.4 410.992  -2
   2  12   1 16224.4 410.992   1
   2 -12  -3 1199.54 155.718  -2
   2  12   2 1199.54 155.718   1
   2 -12  -4 11165.7 280.187  -2
   2  12   3 11165.7 280.187   1
   2 -12  -5 32222.8 244.247  -2
   2  12   4 32222.8 244.247   1
   2 -12  -6 7830.67 155.896  -2
   2  12   5 7830.67 155.896   1
   2 -12  -7 5795.02 175.543  -2
   2  12   6 5795.02 175.543   1
  -2  12  -7 29057.8 1151.74   1
   2 -12  -8 33789.7 397.628  -2
   2  12   7 33789.7 397.628   1
  -2  12  -8 12592.7 768.481   1
   2 -12  -9 14795.7 368.577  -2
   2  12   8 14795.7 368.577   1
   2  12   9 34.0502 109.439   1
   2 -12 -10 824.355 134.256  -2
   2  12   9 824.355 134.256   1
  -2  12 -10 5396.25 226.926   1
  -2  12 -11 6734.60 272.139   1
   2 -12  12 119.722 74.1371   1
   2 -12  13 11306.8 197.830   1
  -2  13  13 3320.03 116.315   1
  -2  13  12 99.9278 83.8664   1
  -2 -13 -11 2153.31 137.304  -2
  -2  13  12 2153.31 137.304   1
  -2 -13 -10 5942.24 216.740  -2
  -2  13  11 5942.24 216.740   1
   2 -13   9 13670.7 331.756  -2
   2  13 -10 13670.7 331.756   1
   2 -13   8 19729.8 474.581  -2
   2  13  -9 19729.8 474.581   1
  -2 -13  -7 7391.89 303.390  -2
  -2  13   8 7391.89 303.390   1
  -2 -13  -6 7384.99 302.981  -2
  -2  13   7 7384.99 302.981   1
   2 -13   5 3908.31 223.489  -2
   2  13  -6 3908.31 223.489   1
   2 -13   4 313.480 81.3253  -2
   2  13  -5 313.480 81.3253   1
  -2 -13  -3 16118.7 284.453  -2
  -2  13   4 16118.7 284.453   1
  -2 -13  -2 29342.4 613.964  -2
  -2  13   3 29342.4 613.964   1
  -2 -13  -1 1273.39 154.326  -2
  -2  13   2 1273.39 154.326   1
  -2 -13   0 5049.56 222.958  -2
  -2  13   1 5049.56 222.958   1
  -2 -13   1 2430.53 159.648  -2
  -2  13   0 2430.53 159.648   1
  -2 -13   2 1175.22 128.612  -2
  -2  13  -1 1175.22 128.612   1
   2 -13  -3 7152.58 305.909  -2
   2  13   2 7152.58 305.909   1
   2 -13  -4 21381.2 235.866  -2
   2  13   3 21381.2 235.866   1
  -2 -13   5 2164.19 95.9448  -2
  -2  13  -4 2164.19 95.9448   1
  -2 -13   6 1690.39 99.0666  -2
  -2  13  -5 1690.39 99.0666   1
  -2  13  -6 2565.44 372.081   1
  -2 -13   7 4488.56 171.807  -2
  -2  13  -6 4488.56 171.807   1
  -2  13  -7 1319.07 298.729   1
   2 -13  -8 2948.42 151.984  -2
   2  13   7 2948.42 151.984   1
  -2  13  -8 43.8264 192.989   1
   2 -13  -9 4717.74 243.016  -2
   2  13   8 4717.74 243.016   1
   2  13   9 8202.41 371.520   1
  -2 -13  10 12832.8 508.895  -2
  -2  13  -9 12832.8 508.895   1
  -2  13 -10 5031.83 212.867   1
   2 -13  11 9092.24 265.583   1
  -2  13 -12 1297.46 81.2244   1
  -2  14  13 8486.47 150.990   1
  -2  14  12 17962.3 268.433   1
   2 -14  11 20000.8 477.454  -2
   2  14 -12 20000.8 477.454   1
  -2 -14 -10 4996.93 157.734  -2
  -2  14  11 4996.93 157.734   1
   2 -14   9 2977.68 181.141  -2
   2  14 -10 2977.68 181.141   1
  -2 -14  -8 8645.21 257.517  -2
  -2  14   9 8645.21 257.517   1
  -2 -14  -7 18475.4 363.172  -2
  -2  14   8 18475.4 363.172   1
  -2 -14  -6 7201.61 242.807  -2
  -2  14   7 7201.61 242.807   1
   2 -14   5 5687.79 211.683  -2
   2  14  -6 5687.79 211.683   1
   2 -14   4 4982.28 159.603  -2
   2  14  -5 4982.28 159.603   1
   2 -14   3 3067.71 126.474  -2
   2  14  -4 3067.71 126.474   1
   2 -14   2 2524.86 145.157  -2
   2  14  -3 2524.86 145.157   1
   2 -14   1 1524.33 101.424  -2
   2  14  -2 1524.33 101.424   1
  -2 -14   0 3428.18 133.694  -2
  -2  14   1 3428.18 133.694   1
  -2 -14   1 11953.6 257.702  -2
  -2  14   0 11953.6 257.702   1
  -2 -14   2 2829.85 245.573  -2
  -2  14  -1 2829.85 245.573   1
   2 -14  -3 4267.23 130.725  -2
   2  14   2 4267.23 130.725   1
   2 -14  -4 1549.00 91.4862  -2
   2  14   3 1549.00 91.4862   1
   2 -14  -5 1410.67 87.6437  -2
   2  14   4 1410.67 87.6437   1
   2 -14  -6 2603.52 111.827  -2
   2  14   5 2603.52 111.827   1
   2 -14  -7 5515.02 178.069  -2
   2  14   6 5515.02 178.069   1
  -2  14  -7 9063.92 670.000   1
   2 -14  -8 14499.8 276.975  -2
   2  14   7 14499.8 276.975   1
  -2  14  -8 19912.4 955.937   1
   2 -14  -9 22565.9 440.951  -2
   2  14   8 22565.9 440.951   1
   2  14   9 480.800 116.415   1
   2  14  10-33.5468 65.0934   1
   2  14  11 2548.62 151.648   1
  -2  14 -12 13506.8 188.285   1
   2  15 -13 150.315 79.3329   1
  -2  15  12 552.975 94.7144   1
   2 -15  11 949.644 78.0449  -2
   2  15 -12 949.644 78.0449   1
   2 -15  10 2249.67 100.191  -2
   2  15 -11 2249.67 100.191   1
  -2 -15  -9 18074.8 283.368  -2
  -2  15  10 18074.8 283.368   1
   2 -15   8 8566.50 271.530  -2
   2  15  -9 8566.50 271.530   1
  -2 -15  -7 37473.2 503.529  -2
  -2  15   8 37473.2 503.529   1
   2 -15   6 606.709 99.2601  -2
   2  15  -7 606.709 99.2601   1
   2 -15   5 723.693 96.6790  -2
   2  15  -6 723.693 96.6790   1
   2 -15   4 205.438 87.4395  -2
   2  15  -5 205.438 87.4395   1
  -2 -15  -3 8552.90 179.976  -2
  -2  15   4 8552.90 179.976   1
  -2 -15  -2 1563.83 129.987  -2
  -2  15   3 1563.83 129.987   1
   2 -15   1 3928.84 129.704  -2
   2  15  -2 3928.84 129.704   1
   2 -15   0 2610.63 106.578  -2
   2  15  -1 2610.63 106.578   1
  -2 -15   1 807.391 84.4362  -2
  -2  15   0 807.391 84.4362   1
   2 -15  -2 3079.00 185.251  -2
   2  15   1 3079.00 185.251   1
   2 -15  -3 5230.41 156.164  -2
   2  15   2 5230.41 156.164   1
   2 -15  -4 2173.10 106.195  -2
   2  15   3 2173.10 106.195   1
   2 -15  -5 341.840 73.7715  -2
   2  15   4 341.840 73.7715   1
  -2 -15   6 677.864 88.5513  -2
  -2  15  -5 677.864 88.5513   1
   2 -15  -7 1799.72 123.120  -2
   2  15   6 1799.72 123.120   1
  -2  15  -7 269.865 230.750   1
   2 -15  -8 9048.07 230.525  -2
   2  15   7 9048.07 230.525   1
   2 -15  -9 16497.9 378.528  -2
   2  15   8 16497.9 378.528   1
  -2  15  -9 2779.90 175.389   1
   2  15 -10 5512.58 269.322  -2
   2 -15   9 5512.58 269.322   1
   2 -15  10 9879.74 227.238   1
  -2  15 -11 1689.84 95.9787   1
   2  16 -13 707.340 62.9884   1
   2 -16  11 16833.2 250.303  -2
   2  16 -12 16833.2 250.303   1
  -2 -16 -10 163.148 61.6842  -2
  -2  16  11 163.148 61.6842   1
   2 -16   9 4121.28 126.009  -2
   2  16 -10 4121.28 126.009   1
  -2 -16  -8 3033.93 127.739  -2
  -2  16   9 3033.93 127.739   1
   2 -16   7 15089.8 286.912  -2
   2  16  -8 15089.8 286.912   1
   2 -16   6 1048.58 113.381  -2
   2  16  -7 1048.58 113.381   1
   2 -16   5 5387.65 185.326  -2
   2  16  -6 5387.65 185.326   1
   2 -16   4 232.543 77.3857  -2
   2  16  -5 232.543 77.3857   1
   2 -16   3 7934.48 183.140  -2
   2  16  -4 7934.48 183.140   1
   2 -16   2 3858.10 151.583  -2
   2  16  -3 3858.10 151.583   1
   2 -16   1 5065.41 164.080  -2
   2  16  -2 5065.41 164.080   1
  -2 -16   0 29.0103 60.2312  -2
  -2  16   1 29.0103 60.2312   1
  -2 -16   1 121.505 67.6745  -2
  -2  16   0 121.505 67.6745   1
   2 -16  -2 1323.02 153.800  -2
   2  16   1 1323.02 153.800   1
  -2 -16   3 9108.65 239.630  -2
  -2  16  -2 9108.65 239.630   1
  -2 -16   4 2207.19 103.329  -2
  -2  16  -3 2207.19 103.329   1
   2 -16  -5 250.630 68.3997  -2
   2  16   4 250.630 68.3997   1
   2 -16  -6 3162.89 191.207  -2
   2  16   5 3162.89 191.207   1
   2 -16  -7 4673.67 194.358  -2
   2  16   6 4673.67 194.358   1
   2 -16  -8 3592.97 137.287  -2
   2  16   7 3592.97 137.287   1
   2 -16  -9 13515.0 290.385  -2
   2  16   8 13515.0 290.385   1
   2  16   9 77.2565 118.465   1
   2  16 -10 1030.89 143.430  -2
   2 -16   9 1030.89 143.430   1
   2  16  10 29.9672 60.0859   1
   2 -16  11 614.708 63.8813   1
   2 -17  11 191.985 85.7623  -2
   2  17 -12 191.985 85.7623   1
   2 -17  10 1377.38 117.226  -2
   2  17 -11 1377.38 117.226   1
  -2 -17  -9 7512.59 178.049  -2
  -2  17  10 7512.59 178.049   1
   2 -17   8 9813.27 168.070  -2
   2  17  -9 9813.27 168.070   1
   2 -17   7 15234.9 246.407  -2
   2  17  -8 15234.9 246.407   1
   2 -17   6 12963.4 233.659  -2
   2  17  -7 12963.4 233.659   1
   2 -17   5 4557.50 153.314  -2
   2  17  -6 4557.50 153.314   1
  -2 -17  -4 2044.22 101.963  -2
  -2  17   5 2044.22 101.963   1
   2 -17   3 15080.7 247.140  -2
   2  17  -4 15080.7 247.140   1
  -2 -17  -2 4982.91 150.290  -2
  -2  17   3 4982.91 150.290   1
  -2 -17  -1 3157.51 140.222  -2
  -2  17   2 3157.51 140.222   1
  -2 -17   0 4851.26 147.391  -2
  -2  17   1 4851.26 147.391   1
  -2 -17   1 1385.27 111.918  -2
  -2  17   0 1385.27 111.918   1
  -2 -17   2 1658.85 241.980  -2
  -2  17  -1 1658.85 241.980   1
  -2 -17   3 5454.60 313.024  -2
  -2  17  -2 5454.60 313.024   1
   2 -17  -4 7431.64 163.455  -2
   2  17   3 7431.64 163.455   1
  -2 -17   5 5566.29 144.262  -2
  -2  17  -4 5566.29 144.262   1
  -2 -17   6 2200.10 154.440  -2
  -2  17  -5 2200.10 154.440   1
   2 -17  -7 12623.8 317.306  -2
   2  17   6 12623.8 317.306   1
   2 -17  -8 9046.11 256.535  -2
   2  17   7 9046.11 256.535   1
   2 -17  -9 5676.07 309.341  -2
   2  17   8 5676.07 309.341   1
   2  17   9 5445.60 265.706   1
   2  17 -10 4841.26 211.289  -2
   2 -17   9 4841.26 211.289   1
   2  17  10 3996.06 112.820   1
  -2  17 -11 170.588 82.8608   1
   2 -18  11 4150.78 142.252  -2
   2  18 -12 4150.78 142.252   1
  -2  18  11 4385.23 195.630   1
   2 -18  10 5129.83 213.016  -2
   2  18 -11 5129.83 213.016   1
   2 -18   9 194.473 101.020  -2
   2  18 -10 194.473 101.020   1
   2 -18   8 2730.96 98.2807  -2
   2  18  -9 2730.96 98.2807   1
   2 -18   7 12437.8 191.567  -2
   2  18  -8 12437.8 191.567   1
   2 -18   6 5867.96 146.509  -2
   2  18  -7 5867.96 146.509   1
   2 -18   5 6170.51 153.472  -2
   2  18  -6 6170.51 153.472   1
   2 -18   4 10468.5 214.215  -2
   2  18  -5 10468.5 214.215   1
  -2 -18  -3 3894.12 130.507  -2
  -2  18   4 3894.12 130.507   1
   2 -18   2 5497.45 159.685  -2
   2  18  -3 5497.45 159.685   1
   2 -18   1 13110.5 268.741  -2
   2  18  -2 13110.5 268.741   1
  -2 -18   0 1081.44 90.7586  -2
  -2  18   1 1081.44 90.7586   1
   2 -18  -1 3701.53 195.787  -2
   2  18   0 3701.53 195.787   1
   2 -18  -2 6932.16 260.304  -2
   2  18   1 6932.16 260.304   1
  -2 -18   3 8746.70 246.455  -2
  -2  18  -2 8746.70 246.455   1
   2 -18  -4 964.815 102.789  -2
   2  18   3 964.815 102.789   1
  -2 -18   5 9959.48 252.287  -2
  -2  18  -4 9959.48 252.287   1
   2 -18  -6 6605.09 206.493  -2
   2  18   5 6605.09 206.493   1
   2 -18  -7 4128.81 177.741  -2
   2  18   6 4128.81 177.741   1
   2 -18  -8 17856.2 499.560  -2
   2  18   7 17856.2 499.560   1
   2 -18  -9 10165.4 292.328  -2
   2  18   8 10165.4 292.328   1
   2  18   9 125.545 106.698   1
  -2 -18  10 163.288 181.269  -2
  -2  18  -9 163.288 181.269   1
  -2  18 -10 2313.99 138.048   1
  -2  18 -11 2107.45 135.596   1
   2 -19  10 415.518 95.4542  -2
   2  19 -11 415.518 95.4542   1
   2 -19   9 3307.71 199.579  -2
   2  19 -10 3307.71 199.579   1
   2 -19   8 10368.3 256.790  -2
   2  19  -9 10368.3 256.790   1
  -2 -19  -7 1220.09 79.8847  -2
  -2  19   8 1220.09 79.8847   1
  -2 -19  -6 4733.96 130.174  -2
  -2  19   7 4733.96 130.174   1
   2 -19   5 10137.2 203.998  -2
   2  19  -6 10137.2 203.998   1
   2 -19   4 412.808 82.4525  -2
   2  19  -5 412.808 82.4525   1
  -2 -19  -3 13682.5 203.703  -2
  -2  19   4 13682.5 203.703   1
  -2 -19  -2 51015.3 450.067  -2
  -2  19   3 51015.3 450.067   1
   2 -19   1 814.851 97.9540  -2
   2  19  -2 814.851 97.9540   1
  -2 -19   0 8107.53 274.598  -2
  -2  19   1 8107.53 274.598   1
  -2 -19   1 2347.48 176.499  -2
  -2  19   0 2347.48 176.499   1
  -2 -19   2 3086.73 193.293  -2
  -2  19  -1 3086.73 193.293   1
  -2 -19   3 11985.4 258.328  -2
  -2  19  -2 11985.4 258.328   1
   2 -19  -4 45398.0 603.795  -2
   2  19   3 45398.0 603.795   1
  -2 -19   5 1862.77 165.810  -2
  -2  19  -4 1862.77 165.810   1
  -2 -19   6 3332.07 198.626  -2
  -2  19  -5 3332.07 198.626   1
  -2 -19   7 9250.09 306.212  -2
  -2  19  -6 9250.09 306.212   1
  -2 -19   8 1298.72 158.693  -2
  -2  19  -7 1298.72 158.693   1
   2 -19  -9 5790.21 227.144  -2
   2  19   8 5790.21 227.144   1
   2  19   9 3443.49 196.545   1
  -2 -19  10 4192.27 290.438  -2
  -2  19  -9 4192.27 290.438   1
  -2  19 -10 1242.76 115.169   1
   2 -20  10 254.667 71.4849  -2
   2  20 -11 254.667 71.4849   1
   2 -20   9 365.835 84.5563  -2
   2  20 -10 365.835 84.5563   1
  -2 -20  -8 228.149 81.3081  -2
  -2  20   9 228.149 81.3081   1
   2 -20   7 4144.57 141.118  -2
   2  20  -8 4144.57 141.118   1
   2 -20   6 6808.54 193.382  -2
   2  20  -7 6808.54 193.382   1
  -2 -20  -5 554.024 78.7105  -2
  -2  20   6 554.024 78.7105   1
  -2 -20  -4 4929.30 141.836  -2
  -2  20   5 4929.30 141.836   1
  -2 -20  -3 5118.24 142.266  -2
  -2  20   4 5118.24 142.266   1
   2 -20   2 1855.99 101.209  -2
   2  20  -3 1855.99 101.209   1
  -2 -20  -1 10159.3 206.120  -2
  -2  20   2 10159.3 206.120   1
  -2 -20   0 21991.1 439.527  -2
  -2  20   1 21991.1 439.527   1
   2 -20  -1 10606.5 359.676  -2
   2  20   0 10606.5 359.676   1
  -2 -20   2 45717.2 859.834  -2
  -2  20  -1 45717.2 859.834   1
  -2 -20   3 4827.54 232.233  -2
  -2  20  -2 4827.54 232.233   1
  -2 -20   4 2025.26 173.463  -2
  -2  20  -3 2025.26 173.463   1
   2 -20  -5 3323.78 207.837  -2
   2  20   4 3323.78 207.837   1
   2 -20  -6 3153.04 210.383  -2
   2  20   5 3153.04 210.383   1
   2 -20  -7 3702.97 217.260  -2
   2  20   6 3702.97 217.260   1
  -2 -20   8 16437.2 355.364  -2
  -2  20  -7 16437.2 355.364   1
   2 -20  -9 256.187 112.688  -2
   2  20   8 256.187 112.688   1
  -2  20  -9 1086.19 96.5070   1
  -2  20 -10 247.694 85.3408   1
   2 -21   9 198.373 81.2158  -2
   2  21 -10 198.373 81.2158   1
   2 -21   8 3654.30 142.790  -2
   2  21  -9 3654.30 142.790   1
   2 -21   7 6116.56 143.728  -2
   2  21  -8 6116.56 143.728   1
   2 -21   6 1596.40 97.6224  -2
   2  21  -7 1596.40 97.6224   1
   2 -21   5 2585.05 117.846  -2
   2  21  -6 2585.05 117.846   1
   2 -21   4 5937.25 147.445  -2
   2  21  -5 5937.25 147.445   1
   2 -21   3 9448.25 178.508  -2
   2  21  -4 9448.25 178.508   1
   2 -21   2 35344.1 349.061  -2
   2  21  -3 35344.1 349.061   1
   2 -21   1 18314.5 332.243  -2
   2  21  -2 18314.5 332.243   1
   2 -21   0 7039.19 228.064  -2
   2  21  -1 7039.19 228.064   1
   2 -21  -1 2805.11 219.180  -2
   2  21   0 2805.11 219.180   1
   2 -21  -2 9276.45 478.696  -2
   2  21   1 9276.45 478.696   1
   2 -21  -3 27003.7 493.296  -2
   2  21   2 27003.7 493.296   1
  -2 -21   4 25492.3 469.428  -2
  -2  21  -3 25492.3 469.428   1
   2 -21  -5 6127.03 276.246  -2
   2  21   4 6127.03 276.246   1
  -2 -21   6 12629.4 346.741  -2
  -2  21  -5 12629.4 346.741   1
   2 -21  -7 975.011 145.957  -2
   2  21   6 975.011 145.957   1
   2 -21  -8 2701.35 169.752  -2
   2  21   7 2701.35 169.752   1
   2 -21  -9 6908.17 205.904  -2
   2  21   8 6908.17 205.904   1
  -2  21  -9 311.936 69.4103   1
   2 -22   9 1330.11 93.5895  -2
   2  22 -10 1330.11 93.5895   1
  -2 -22  -8 1927.84 99.5573  -2
  -2  22   9 1927.84 99.5573   1
  -2 -22  -7 2932.59 135.852  -2
  -2  22   8 2932.59 135.852   1
  -2 -22  -6 4605.23 142.952  -2
  -2  22   7 4605.23 142.952   1
   2 -22   5 3443.29 143.253  -2
   2  22  -6 3443.29 143.253   1
   2 -22   4 1788.19 118.119  -2
   2  22  -5 1788.19 118.119   1
  -2 -22  -3 11917.7 255.411  -2
  -2  22   4 11917.7 255.411   1
  -2 -22  -2 5733.09 212.626  -2
  -2  22   3 5733.09 212.626   1
   2 -22   1 9222.15 275.961  -2
   2  22  -2 9222.15 275.961   1
   2 -22   0 7562.13 323.505  -2
   2  22  -1 7562.13 323.505   1
   2 -22  -1 9904.19 498.006  -2
   2  22   0 9904.19 498.006   1
   2 -22  -2 15421.8 608.091  -2
   2  22   1 15421.8 608.091   1
   2 -22  -3 24581.4 429.594  -2
   2  22   2 24581.4 429.594   1
   2 -22  -4 5804.63 276.617  -2
   2  22   3 5804.63 276.617   1
  -2 -22   5 3081.28 207.026  -2
  -2  22  -4 3081.28 207.026   1
   2 -22  -6 2243.80 177.027  -2
   2  22   5 2243.80 177.027   1
   2 -22  -7 12488.0 313.325  -2
   2  22   6 12488.0 313.325   1
  -2 -22   8 4718.32 190.585  -2
  -2  22  -7 4718.32 190.585   1
   2 -22  -9 5017.83 166.182  -2
   2  22   8 5017.83 166.182   1
  -2  22  -9 675.270 104.004   1
   2 -23   8 938.013 84.3593  -2
   2  23  -9 938.013 84.3593   1
   2 -23   7 7372.58 176.009  -2
   2  23  -8 7372.58 176.009   1
  -2 -23  -6 989.551 80.8443  -2
  -2  23   7 989.551 80.8443   1
   2 -23   5 689.290 82.2350  -2
   2  23  -6 689.290 82.2350   1
  -2 -23  -4 3281.49 135.225  -2
  -2  23   5 3281.49 135.225   1
   2 -23   3 15536.8 365.828  -2
   2  23  -4 15536.8 365.828   1
   2 -23   2 7977.84 426.359  -2
   2  23  -3 7977.84 426.359   1
   2 -23   1 40411.9 554.939  -2
   2  23  -2 40411.9 554.939   1
  -2 -23   0 1584.76 186.980  -2
  -2  23   1 1584.76 186.980   1
   2 -23  -1 1070.25 233.041  -2
   2  23   0 1070.25 233.041   1
   2 -23  -2 10309.3 518.050  -2
   2  23   1 10309.3 518.050   1
   2 -23  -3 34201.9 561.095  -2
   2  23   2 34201.9 561.095   1
   2 -23  -4 4054.14 198.346  -2
   2  23   3 4054.14 198.346   1
  -2 -23   5 18008.4 402.166  -2
  -2  23  -4 18008.4 402.166   1
   2 -23  -6 440.598 121.029  -2
   2  23   5 440.598 121.029   1
   2 -23  -7 735.367 118.472  -2
   2  23   6 735.367 118.472   1
  -2 -23   8 3152.40 152.265  -2
  -2  23  -7 3152.40 152.265   1
   2  23   8 3168.21 148.776   1
  -2 -23   9 3358.55 208.852  -2
  -2  23  -8 3358.55 208.852   1
  -2 -24  -6 5892.98 245.148  -2
  -2  24   7 5892.98 245.148   1
  -2 -24  -5 6608.90 205.608  -2
  -2  24   6 6608.90 205.608   1
  -2 -24  -4 422.612 102.032  -2
  -2  24   5 422.612 102.032   1
   2 -24   3 7318.17 271.237  -2
   2  24  -4 7318.17 271.237   1
   2 -24   2 3290.24 209.669  -2
   2  24  -3 3290.24 209.669   1
  -2 -24  -1 1513.05 122.335  -2
  -2  24   2 1513.05 122.335   1
  -2 -24   0 12595.4 322.625  -2
  -2  24   1 12595.4 322.625   1
   2 -24  -1 33735.7 885.468  -2
   2  24   0 33735.7 885.468   1
   2 -24  -2 6691.78 402.699  -2
   2  24   1 6691.78 402.699   1
   2 -24  -3 10638.1 319.442  -2
   2  24   2 10638.1 319.442   1
  -2 -24   4 2832.92 162.087  -2
  -2  24  -3 2832.92 162.087   1
  -2 -24   5 1156.70 146.281  -2
  -2  24  -4 1156.70 146.281   1
  -2 -24   6 2614.24 167.899  -2
  -2  24  -5 2614.24 167.899   1
  -2 -24   7 14962.0 288.776  -2
  -2  24  -6 14962.0 288.776   1
   2 -24  -8 2653.69 123.740  -2
   2  24   7 2653.69 123.740   1
  -2  24  -8 2607.49 150.927   1
   2  25  -8 3543.60 146.636   1
   2 -25   6 588.031 127.632  -2
   2  25  -7 588.031 127.632   1
   2 -25   5 4347.47 262.782  -2
   2  25  -6 4347.47 262.782   1
   2 -25   4 4861.83 299.188  -2
   2  25  -5 4861.83 299.188   1
   2 -25   3 9125.36 412.832  -2
   2  25  -4 9125.36 412.832   1
   2 -25   2 11255.6 480.392  -2
   2  25  -3 11255.6 480.392   1
   2 -25   1 20643.9 655.243  -2
   2  25  -2 20643.9 655.243   1
   2 -25   0 47.3030 109.239  -2
   2  25  -1 47.3030 109.239   1
   2 -25  -1-0.02632 157.757  -2
   2  25   0-0.02632 157.757   1
   2 -25  -2 5346.97 248.438  -2
   2  25   1 5346.97 248.438   1
   2 -25  -3 14632.2 361.848  -2
   2  25   2 14632.2 361.848   1
   2 -25  -4 7943.59 358.906  -2
   2  25   3 7943.59 358.906   1
   2 -25  -5 9379.46 270.839  -2
   2  25   4 9379.46 270.839   1
  -2 -25   6 6000.44 197.650  -2
  -2  25  -5 6000.44 197.650   1
  -2 -25   7 2241.74 126.429  -2
  -2  25  -6 2241.74 126.429   1
   2 -25  -8 1866.97 87.8130  -2
   2  25   7 1866.97 87.8130   1
   2 -26   6 7440.53 222.065  -2
   2  26  -7 7440.53 222.065   1
   2 -26   5 1943.47 111.345  -2
   2  26  -6 1943.47 111.345   1
   2 -26   4 3821.75 166.079  -2
   2  26  -5 3821.75 166.079   1
   2 -26   3 773.815 170.532  -2
   2  26  -4 773.815 170.532   1
   2 -26   2 159.299 101.810  -2
   2  26  -3 159.299 101.810   1
   2 -26   1 4333.09 214.753  -2
   2  26  -2 4333.09 214.753   1
   2 -26   0 2439.03 126.756  -2
   2  26  -1 2439.03 126.756   1
   2 -26  -1 3152.74 199.162  -2
   2  26   0 3152.74 199.162   1
   2 -26  -2 7175.31 219.173  -2
   2  26   1 7175.31 219.173   1
   2 -26  -3 353.691 106.257  -2
   2  26   2 353.691 106.257   1
   2 -26  -4 1567.55 182.799  -2
   2  26   3 1567.55 182.799   1
   2 -26  -5 1015.89 148.786  -2
   2  26   4 1015.89 148.786   1
  -2 -26   6 1548.24 110.690  -2
  -2  26  -5 1548.24 110.690   1
  -2 -26   7 6688.78 153.177  -2
  -2  26  -6 6688.78 153.177   1
   2 -27   5 1738.66 131.131  -2
   2  27  -6 1738.66 131.131   1
   2 -27   4 1380.93 102.513  -2
   2  27  -5 1380.93 102.513   1
   2 -27   3 1142.32 106.611  -2
   2  27  -4 1142.32 106.611   1
   2 -27   2 8909.96 244.789  -2
   2  27  -3 8909.96 244.789   1
   2 -27   1 811.930 114.782  -2
   2  27  -2 811.930 114.782   1
   2 -27   0 1450.26 198.564  -2
   2  27  -1 1450.26 198.564   1
  -2 -27   1 654.034 80.7849  -2
  -2  27   0 654.034 80.7849   1
  -2 -27   2 1131.04 101.023  -2
  -2  27  -1 1131.04 101.023   1
   2 -27  -3 2644.53 204.070  -2
   2  27   2 2644.53 204.070   1
   2 -27  -4 4679.79 222.701  -2
   2  27   3 4679.79 222.701   1
   2 -27  -5 513.983 114.476  -2
   2  27   4 513.983 114.476   1
   2 -27  -6 2933.20 144.412  -2
   2  27   5 2933.20 144.412   1
   2 -28   4 2962.87 160.253  -2
   2  28  -5 2962.87 160.253   1
   2 -28   3 296.147 66.6519  -2
   2  28  -4 296.147 66.6519   1
   2 -28   2 154.470 69.6999  -2
   2  28  -3 154.470 69.6999   1
   2 -28   1 1875.68 124.748  -2
   2  28  -2 1875.68 124.748   1
   2 -28   0 1002.21 148.851  -2
   2  28  -1 1002.21 148.851   1
   2 -28  -1 404.939 127.203  -2
   2  28   0 404.939 127.203   1
   2 -28  -2 3136.57 106.863  -2
   2  28   1 3136.57 106.863   1
   2 -28  -3 9.19304 70.7315  -2
   2  28   2 9.19304 70.7315   1
   2 -28  -4 822.245 113.693  -2
   2  28   3 822.245 113.693   1
   2 -28  -5 886.674 99.0390  -2
   2  28   4 886.674 99.0390   1
   2 -29   2 3730.40 109.993  -2
   2  29  -3 3730.40 109.993   1
   2 -29   1 839.078 78.6582  -2
   2  29  -2 839.078 78.6582   1
   2 -29  -2 2289.65 146.001  -2
   2  29   1 2289.65 146.001   1
   2 -29  -3 1046.21 101.333  -2
   2  29   2 1046.21 101.333   1
  -3   0  14 9339.59 241.741   1
  -3   0  12 558.035 95.3541   1
   3   0 -10 26502.6 410.566   1
   3   0  -8 9818.66 293.764   1
   3   0  -6 496.888 118.216   1
   3   0  -4 13003.5 631.748   1
   3   0  -2 35976.9 908.849   1
   3   0   0 8098.75 181.028   1
   3   0   2 23748.9 294.677   1
   3   0   4 52112.5 922.724   1
   3   0   6 9053.44 288.588   1
   3   0   8 2551.66 233.385   1
   3   0  10 27458.7 416.969   1
   3   0  12 806.850 75.4220   1
  -3  -1  15 198.043 46.8893   1
  -3  -1  14 1115.70 109.027   1
  -3  -1  13 441.728 55.0393   1
  -3   1  12 23883.4 263.736   1
   3   1 -11 5176.56 125.586   1
   3   1 -10 9031.02 183.712   1
   3   1  -9 38.2961 62.9288   1
  -3   1   8 3232.53 128.969   1
   3   1  -7 558.541 69.9548   1
   3  -1  -6 59191.8 718.529   1
   3  -1  -5 4562.86 433.529   1
   3  -1  -4 13989.4 658.676   1
   3  -1  -3 919.701 220.434   1
   3  -1  -2 3406.20 315.246   1
   3  -1  -1 16709.6 291.507   1
   3  -1   0 48104.8 422.358   1
   3  -1   1 18315.7 448.439   1
   3  -1   2 7583.89 173.890   1
   3  -1   3 727.669 81.5381   1
   3  -1   4 1858.52 209.225   1
   3  -1   5 2865.58 410.511   1
   3  -1   6 31475.8 508.332   1
   3  -1   7-0.12541 175.502   1
   3  -1   8 3594.87 244.333   1
   3  -1   9 1588.29 175.372   1
   3   1  10 98.3524 62.8553   1
   3   1  11 152.198 54.8871   1
   3  -1  12 2170.75 83.5956   1
   3  -1  13 65.6692 36.3654   1
  -3   2  14 3617.35 119.455   1
  -3  -2  13 2636.82 104.294   1
  -3  -2  12 61.4006 63.1066   1
  -3  -2  11 3033.81 104.410   1
  -3   2  10 14160.1 236.248   1
  -3   2   9 7646.48 197.409   1
  -3  -2   8 5884.53 170.458   1
   3  -2  -7 19698.8 345.341   1
   3  -2  -6 82.4875 98.1276   1
   3  -2  -5 2014.73 309.487   1
   3  -2  -4 13811.4 654.615   1
   3  -2  -3 4485.17 363.485   1
   3  -2  -2 7006.13 423.675   1
   3  -2  -1 9937.54 165.368   1
   3  -2   0 7446.75 137.395   1
   3  -2   1 361.788 117.920   1
   3  -2   2 1333.86 68.6772   1
   3  -2   3 10941.7 218.759   1
   3  -2   4 24059.5 638.322   1
   3   2   5 17112.3 295.866   1
   3  -2   6 1844.26 125.546   1
   3  -2   7 543.340 126.218   1
   3   2   8 5413.15 195.630   1
   3   2   9 11231.6 258.571   1
   3  -2  10 9291.57 201.228   1
   3  -2  11 2806.69 108.076   1
   3  -2  12-20.2613 38.6296   1
   3  -2  13 40.2097 30.6298   1
  -3   3  14 84.2630 41.1223   1
  -3  -3  13 3227.36 108.914   1
  -3   3  12 1804.73 86.7440   1
   3   3 -11 26350.4 252.608   1
  -3  -3  10 2514.91 101.699   1
  -3  -3   9 131.076 58.9883   1
  -3  -3   8 2058.95 97.0825   1
  -3   3   7 22705.2 294.530   1
   3   3  -6 2220.37 115.413   1
   3  -3  -5 44320.0 879.523   1
   3  -3  -4 4531.62 277.001   1
   3   3  -3 1454.63 169.746   1
   3  -3  -2 3159.96 213.688   1
   3  -3  -1 34717.1 280.389   1
   3  -3   0 15974.9 192.984   1
   3   3   1 20071.4 329.957   1
   3  -3   2 6494.66 113.396   1
   3   3   3 8121.21 132.230   1
   3  -3   4 6310.81 285.273   1
   3  -3   5 24529.1 278.737   1
   3   3   6 145.144 59.0812   1
   3   3   7 4841.74 127.960   1
   3  -3   8 283.074 70.7679   1
   3   3   9 7012.33 171.459   1
   3  -3  10 2048.90 93.3199   1
   3  -3  11 4221.83 110.626   1
   3  -3  12 55.2844 45.5679   1
   3  -3  13 1804.56 61.8075   1
  -3   4  14 924.610 57.0204   1
  -3  -4  13 965.386 70.5672   1
  -3   4  12 114.569 50.6045   1
  -3  -4  11 9331.96 175.802   1
  -3  -4  10 49.5495 44.9190   1
  -3  -4   9 11826.5 202.519   1
  -3   4   8 68.0596 51.4243   1
  -3   4   7 9923.35 197.268   1
   3  -4  -6 4014.86 142.515   1
   3   4  -5 20508.0 603.867   1
   3  -4  -4 97.7050 116.433   1
   3   4  -3 18481.3 489.778   1
   3   4  -2 3341.73 213.821   1
   3  -4  -1 62275.3 373.045   1
   3  -4   0 1587.86 78.0159   1
   3  -4   1 3971.64 157.549   1
   3  -4   2 901.087 55.7729   1
   3   4   3 17525.8 190.111   1
   3   4   4 200.430 130.802   1
   3   4   5 49989.2 389.161   1
   3  -4   6 133.309 58.8245   1
   3   4   7-8.05849 50.2163   1
   3  -4   8 1810.59 96.3492   1
   3   4   9 16296.1 240.341   1
   3  -4  10 29.6520 58.0571   1
   3  -4  11 10657.1 161.230   1
   3  -4  12 2.71644 42.0349   1
   3  -4  13 18.4239 28.3824   1
  -3   5  14 2110.61 69.7992   1
  -3  -5  13 2792.72 97.7931   1
  -3  -5  12 830.622 58.6486   1
  -3  -5  11 10021.3 179.027   1
  -3  -5  10 1349.73 72.5559   1
  -3  -5   9 470.969 62.0997   1
  -3   5   8 416.847 71.9631   1
   3   5  -7 22539.7 286.633   1
  -3   5   6 3429.02 175.451   1
   3   5  -5 53299.4 961.840   1
   3  -5  -4 8635.53 368.326   1
   3   5  -3 411.223 121.298   1
   3   5  -2 243.962 115.673   1
   3  -5  -1 48865.1 331.540   1
   3   5   0 11999.1 168.517   1
   3   5   1 32581.0 231.464   1
   3  -5   2 506.337 47.7084   1
   3  -5   3 1.42707 40.8915   1
   3   5   4 102.271 127.571   1
   3  -5   5 11127.0 171.455   1
   3   5   6 728.715 69.4508   1
   3   5   7 6262.55 134.394   1
   3  -5   8 2142.45 98.2759   1
   3   5   9 1774.35 94.8038   1
   3  -5  10 75.1291 55.0970   1
   3  -5  11 849.797 92.6144   1
   3  -5  12 1477.73 73.3948   1
   3  -5  13 4218.72 81.1913   1
  -3   6  14 325.102 39.0507   1
  -3   6  13 106.241 47.7162   1
   3   6 -12 232.635 52.2452   1
  -3  -6  11 751.955 68.3923   1
  -3  -6  10 4057.42 113.577   1
   3   6  -9 4523.05 142.731   1
   3   6  -8 4049.66 138.960   1
  -3   6   7 26.8693 84.6673   1
   3   6  -6 5184.52 205.979   1
   3  -6  -5 2935.32 248.331   1
   3  -6  -4 14379.9 469.130   1
   3  -6  -3 25334.9 570.665   1
   3  -6  -2 34609.0 634.259   1
   3  -6  -1 4961.22 113.650   1
   3  -6   0 7988.97 139.256   1
   3   6   1 272.113 43.0505   1
   3  -6   2 7696.00 120.624   1
   3   6   3 24948.3 228.317   1
   3   6   4 22323.6 632.433   1
   3  -6   5 1820.86 74.3244   1
   3  -6   6 1025.29 74.5224   1
   3   6   7 116.180 49.9142   1
  -3   6  -8 393.038 59.0814   1
   3   6   9 7229.13 154.016   1
   3  -6  10 10697.8 207.480   1
   3  -6  11 7910.70 197.820   1
   3   6  13 122.433 26.0614   1
  -3   7  14 160.855 29.6527   1
  -3  -7  13 507.290 47.3413   1
  -3   7  12 6438.49 130.073   1
  -3  -7  11 2553.64 112.893   1
   3  -7 -10 2773.94 109.292   1
  -3   7   9 9829.49 282.968   1
   3   7  -8 4602.18 225.394   1
   3  -7  -7 2760.96 173.483   1
   3  -7  -6 48153.8 599.746   1
   3  -7  -5 4647.42 305.084   1
   3  -7  -4 9218.93 379.752   1
   3   7  -3 834.117 139.911   1
   3   7  -2 5202.26 154.431   1
   3   7  -1 6800.86 130.053   1
   3  -7   0 36540.1 320.737   1
   3   7   1 4761.15 94.7661   1
   3   7   2 18938.3 184.936   1
   3   7   3 20571.1 375.942   1
   3   7   4 1393.99 81.3867   1
   3   7   5 207.622 54.0082   1
   3   7   6 17325.8 261.139   1
   3  -7   7 2696.65 96.6588   1
  -3   7  -8 9872.71 163.914   1
   3   7   9 2421.73 119.325   1
   3  -7  10 119.778 66.1367   1
   3  -7  11 685.720 67.8904   1
   3  -7  12 7103.38 126.868   1
  -3   8  14 1323.34 81.1338   1
  -3   8  13 62.7912 34.8138   1
   3   8 -12 55.4648 43.5263   1
  -3  -8  11 1877.11 97.9966   1
  -3   8  10 4672.16 128.434   1
  -3   8   9 148.172 69.5204   1
  -3   8   8 15521.6 384.858   1
  -3   8   7 4141.51 203.379   1
  -3   8   6 36.6738 80.2786   1
  -3   8   5 885.360 77.9028   1
   3  -8  -4 8479.03 361.362   1
   3   8  -3 256.825 107.576   1
   3  -8  -2 21141.9 225.569   1
   3  -8  -1 11235.2 161.914   1
   3   8   0 7046.80 272.904   1
   3  -8   1 1933.31 70.6827   1
   3   8   2 8335.43 125.159   1
   3   8   3 1561.06 145.953   1
   3  -8   4 40053.8 391.258   1
   3   8   5 931.716 68.6482   1
   3   8   6 9709.48 196.927   1
   3  -8   7 905.119 78.3318   1
   3   8   8 14769.5 230.454   1
   3   8   9-4.50175 68.7295   1
   3   8  10 26345.2 290.930   1
   3  -8  11 327.852 56.7263   1
   3   8  12 2577.91 76.2593   1
   3  -8  13 141.316 42.6396   1
   3   9 -14 118.065 75.0662   1
  -3  -9  13 793.176 57.7207   1
   3   9 -12 5589.63 125.330   1
   3   9 -11 819.781 73.1362   1
  -3   9  10 5352.09 159.400   1
  -3   9   9 831.801 80.3227   1
  -3   9   8 258.402 120.998   1
   3  -9  -7 399.451 157.248   1
   3  -9  -6 10415.5 468.409   1
   3   9  -5 1739.08 122.563   1
   3  -9  -4 14113.4 456.459   1
   3  -9  -3 1880.21 177.981   1
   3   9  -2 14904.1 188.746   1
   3  -9  -1 485.154 56.1811   1
   3   9   0 30895.9 298.584   1
   3   9   1 4751.71 100.725   1
   3   9   2 6990.91 116.458   1
   3  -9   3 9848.50 195.141   1
   3  -9   4 10697.3 180.533   1
   3   9   5 3028.35 91.4054   1
   3   9   6 9381.10 171.499   1
  -3   9  -7 4816.84 124.540   1
  -3   9  -8 10464.9 193.251   1
   3  -9   9 1938.60 98.4701   1
   3  -9  10 1968.15 95.1784   1
   3   9  11 8040.23 146.714   1
   3  -9  12 4996.32 118.510   1
   3  -9  13 1706.62 79.4800   1
   3  10 -13 2370.21 107.712   1
   3  10 -12 1283.47 86.6239   1
  -3 -10  11 998.704 74.0396   1
   3  10 -10 174.338 59.0825   1
   3  10  -9 3163.46 127.689   1
  -3 -10   8 1407.63 166.119   1
   3 -10  -7 1162.65 201.363   1
   3  10  -6 2550.66 156.073   1
   3 -10  -5 3226.76 158.146   1
   3  10  -4 427.648 114.978   1
   3 -10  -3 30309.3 606.773   1
   3  10  -2 10463.4 200.354   1
   3  10  -1 14312.7 277.120   1
   3 -10   0 1504.15 77.0579   1
   3 -10   1 3229.48 104.418   1
   3  10   2 10858.2 293.074   1
   3  10   3 34162.7 311.134   1
   3  10   4 16722.4 190.045   1
   3  10   5 15678.4 220.801   1
   3  10   6 5121.28 118.565   1
   3 -10   7 200.724 55.1757   1
  -3  10  -8 5108.31 129.596   1
  -3  10  -9 3417.60 103.105   1
   3  10  10 9486.78 200.161   1
   3 -10  11 3464.81 122.630   1
   3 -10  12 5666.85 187.619   1
   3  11 -13 9292.22 146.855   1
   3  11 -12 231.745 78.4051   1
   3  11 -11 6686.63 299.522   1
   3  11 -10 8112.35 164.557   1
   3  11  -9 510.638 90.2490   1
   3  11  -8 40.0678 71.1575   1
   3  11  -7 4658.78 214.073   1
   3 -11  -6 6116.37 227.609   1
  -3  11   5 5189.00 199.002   1
   3  11  -4 2572.67 203.248   1
   3  11  -3-2.27235 38.7156   1
   3  11  -2 6690.57 273.917   1
   3 -11  -1 3343.96 185.589   1
   3  11   0 1759.49 139.949   1
   3 -11   1 30147.8 532.009   1
   3  11   2 17.4615 77.9054   1
   3  11   3 1462.12 58.4862   1
   3  11   4 1053.54 65.0325   1
   3  11   5 8768.74 204.449   1
   3  11   6 49.0863 61.5190   1
   3  11   7 42374.4 366.799   1
  -3  11  -8 1234.53 83.1919   1
   3  11   9 3188.44 124.165   1
   3 -11  10 222.340 63.2197   1
   3 -11  11 4039.91 194.791   1
   3 -11  12 9.21137 51.2362   1
  -3  12  13 1997.45 73.0876   1
   3  12 -12 2429.37 99.7759   1
   3  12 -11 693.324 80.4256   1
   3  12 -10 1042.18 114.787   1
  -3  12   9 22799.0 291.124   1
  -3  12   8 4000.78 159.232   1
  -3  12   7 1268.48 178.296   1
  -3  12   6 100.972 113.420   1
   3  12  -5 1089.16 94.2000   1
  -3  12   4 5181.18 169.119   1
  -3  12   3 13952.5 254.159   1
   3  12  -2 66.7343 52.6438   1
  -3  12   1 1392.13 108.604   1
   3 -12   0 3050.41 235.701  -2
   3  12  -1 3050.41 235.701   1
   3  12   0 8744.35 229.584   1
   3 -12  -1 8256.39 357.609  -2
   3  12   0 8256.39 357.609   1
   3  12   1 365.749 55.6695   1
   3  12   2 2550.86 93.2804   1
   3  12   3 35604.8 246.659   1
   3  12   4 106.868 48.1847   1
   3 -12   5 17737.1 290.880   1
   3 -12   6 3517.95 178.770   1
  -3  12  -7 1204.08 119.511   1
   3 -12   8 229.643 103.699   1
   3 -12   9 26541.9 425.610   1
   3  12  10 502.654 106.470   1
   3 -12  11 11669.8 291.941   1
   3 -12  12 108.891 45.5169   1
  -3  13  13 9190.17 123.938   1
  -3  13  12 2358.52 92.5926   1
  -3  13  11 3465.48 127.337   1
   3  13 -10 367.918 77.6461   1
   3  13  -9 137.523 95.3205   1
  -3  13   8 538.492 107.536   1
  -3  13   7 11844.7 298.276   1
   3  13  -6 997.441 93.6582   1
  -3  13   5 7235.09 220.182   1
  -3  13   4 166.832 86.2824   1
  -3  13   3 395.038 88.8630   1
  -3  13   2 47.9384 55.2364   1
  -3  13   1 3995.48 132.557   1
   3  13   0 9669.96 179.043   1
   3  13   1 31568.2 282.778   1
   3  13   2 6849.96 146.595   1
   3  13   3 1971.22 83.4709   1
   3  13   4 79.9160 49.5891   1
   3 -13   5 2109.46 132.070   1
  -3  13  -6 20141.5 360.121   1
   3 -13   7 31358.8 449.080   1
   3  13   8 7940.51 250.516   1
  -3  13  -9 1159.40 97.5972   1
  -3  13 -10 178.968 65.8101   1
   3 -13  11 113.366 64.5802   1
   3  14 -13 167.374 33.6784   1
   3  14 -12 1560.50 66.3649   1
   3  14 -11 3577.85 151.131   1
  -3  14  10 4345.29 182.270   1
   3  14  -9 4911.37 202.502   1
   3  14  -8 13018.0 311.632   1
   3  14  -7 283.182 73.9301   1
   3  14  -6 747.630 87.8585   1
   3  14  -5 216.655 83.7677   1
  -3  14   4 14183.6 252.338   1
  -3  14   3 11080.6 215.233   1
   3  14  -2 16369.0 249.203   1
   3  14  -1 9748.20 202.514   1
   3  14   0 2350.29 108.431   1
   3  14   1 5910.49 139.595   1
   3  14   2 31930.0 311.718   1
   3  14   3 10578.0 182.948   1
   3  14   4 9452.14 200.214   1
   3 -14   5 18071.1 285.274   1
   3 -14   6 0.60099 72.8962   1
  -3  14  -7 158.997 81.9999   1
   3 -14   8 1713.90 116.351   1
   3  14   9 3865.68 141.038   1
   3 -14  10 1105.23 85.6816   1
   3 -14  11 2011.45 111.369   1
   3  15 -12 11662.1 183.044   1
  -3  15  11 41.9131 43.3511   1
  -3  15  10 5421.82 189.347   1
  -3  15   9 459.253 79.8474   1
  -3  15   8 2149.08 119.771   1
  -3  15   7 3394.10 140.793   1
  -3  15   6 2608.05 153.492   1
  -3  15   5 3787.44 170.736   1
  -3  15   4 17449.0 244.192   1
  -3  15   3 2585.46 118.565   1
  -3  15   2 2177.53 107.928   1
  -3  15   1 590.540 95.1057   1
  -3  15   0 8972.63 193.510   1
   3  15   1 4465.27 130.064   1
   3  15   2 25520.4 284.796   1
   3  15   3 935.846 78.2969   1
   3  15   4 3594.15 148.759   1
  -3  15  -5 1317.31 120.535   1
   3 -15   6 9975.70 219.397   1
  -3  15  -7 108.885 70.5439   1
  -3  15  -8 11018.3 228.717   1
   3  15   9 488.469 71.2880   1
  -3  15 -10 503.995 62.5121   1
   3 -15  11 78.6300 40.1471   1
  -3  16  12 88.0009 50.5492   1
  -3  16  11 1551.97 73.0154   1
  -3  16  10 14508.9 199.772   1
   3  16  -9 2750.32 106.503   1
  -3  16   8 30382.6 361.868   1
  -3  16   7 2631.00 126.093   1
   3  16  -6 865.879 88.6132   1
  -3  16   5 3937.20 143.908   1
  -3  16   4 21989.3 305.020   1
   3  16  -3 6386.40 154.464   1
   3  16  -2 30877.1 354.611   1
  -3  16   1 2502.15 144.524   1
   3  16   0 2859.48 111.168   1
   3  16   1 11591.5 196.095   1
   3  16   2 10773.8 194.069   1
   3  16   3 1034.37 84.7221   1
   3  16   4 6645.97 189.684   1
   3  16   5 284.545 81.2333   1
   3  16   6 3245.53 179.723   1
   3  16   7 81.9719 66.6409   1
   3 -16   8 3580.96 132.083   1
   3  16   9 486.716 65.4625   1
  -3  16 -10 629.833 58.1365   1
   3  17 -11 283.499 44.8805   1
  -3  17  10 622.868 56.3500   1
  -3  17   9 1152.41 74.9608   1
  -3  17   8 12318.1 200.906   1
  -3  17   7 2685.44 107.635   1
  -3  17   6 29976.1 366.766   1
  -3  17   5 7060.48 161.690   1
  -3  17   4 7601.96 165.819   1
   3  17  -3 2357.17 105.425   1
  -3  17   2 645.425 71.0590   1
  -3  17   1 1801.40 220.455   1
  -3  17   0 7250.09 175.503   1
  -3  17  -1 17722.9 266.866   1
   3  17   2 22137.8 252.851   1
   3  17   3 238.643 68.8415   1
   3  17   4 2735.28 127.667   1
  -3  17  -5 341.551 114.493   1
  -3  17  -6 11089.3 323.673   1
   3  17   7 7061.52 251.419   1
  -3  17  -8 2931.10 165.043   1
   3  17   9 69.4211 74.0262   1
   3  17  10 453.639 311.530   1
   3  18 -11-10.8195 59.1269   1
  -3  18  10 4657.88 100.461   1
  -3  18   9 29451.8 268.771   1
  -3  18   8 6658.63 145.987   1
  -3  18   7 10448.8 186.022   1
  -3  18   6 431.228 67.5141   1
   3  18  -5 381.664 65.6466   1
  -3  18   4 12966.9 210.796   1
  -3  18   3 65831.1 416.626   1
  -3  18   2 11876.2 203.239   1
  -3  18   1 1281.84 204.359   1
   3  18   0 722.301 97.4377   1
   3  18   1 855.275 87.3136   1
   3  18   2 2070.15 103.791   1
  -3  18  -3 9898.18 213.777   1
  -3  18  -4 2279.64 117.197   1
  -3  18  -5 3174.07 192.378   1
   3  18   6 143.730 102.674   1
  -3  18  -7 225.223 98.7224   1
   3  18   8 667.865 102.704   1
   3  18   9 106.455 73.8438   1
   3  18  10 303.912 326.311   1
   3  19 -11 1069.05 87.2206   1
   3  19 -10 12.4014 38.2396   1
   3  19  -9 59.6991 41.8139   1
  -3  19   8 21.1689 47.6026   1
  -3  19   7 11683.2 188.952   1
   3  19  -6 40.3050 54.3354   1
   3  19  -5 23135.5 272.488   1
   3  19  -4 664.531 71.7439   1
  -3  19   3 3669.42 110.502   1
  -3  19   2 35.6419 67.7389   1
  -3  19   1 9022.90 233.396   1
   3  19   0 5458.04 189.291   1
   3  19   1 37692.8 376.394   1
  -3  19  -2 43.6644 59.3199   1
  -3  19  -3 3050.93 128.761   1
   3  19   4 3772.43 146.179   1
  -3  19  -5 192.279 108.900   1
   3  19   6 78.1158 95.3293   1
   3  19   7 7084.32 233.595   1
   3  19   8 369.593 86.7528   1
   3  19   9 103.975 65.0819   1
   3  20 -10 47.2796 62.1629   1
   3  20  -9 20087.6 227.060   1
   3  20  -8 1350.70 69.1229   1
  -3  20   7 8158.49 151.379   1
   3  20  -6 269.718 56.9264   1
  -3  20   5 12307.5 196.956   1
  -3  20   4 668.397 68.9638   1
  -3  20   3 47917.9 457.597   1
   3 -20   2 49873.5 544.694  -2
   3  20  -3 49873.5 544.694   1
  -3  20   2 6950.13 163.053   1
   3  20  -1 8657.37 197.099   1
  -3  20   0 5298.50 186.336   1
  -3  20  -1 4579.21 132.711   1
  -3  20  -2-79.4693 53.5495   1
   3  20   3 7560.26 192.607   1
  -3  20  -4 306.005 166.628   1
  -3  20  -5 1320.34 137.203   1
  -3  20  -6 2744.72 163.882   1
  -3  20  -7 57.9461 82.5464   1
  -3  20  -8 83.4371 68.3595   1
  -3  20  -9 121.425 58.1388   1
   3  21 -10 23.3718 48.8101   1
   3  21  -9 174.284 52.2781   1
   3  21  -8 2070.43 88.1350   1
   3  21  -7 4012.32 125.006   1
  -3  21   6 1759.84 80.3106   1
  -3  21   5 7481.35 149.496   1
  -3  21   4 15536.1 214.097   1
  -3  21   3 285.019 69.5891   1
   3 -21   2 2441.47 248.746  -2
   3  21  -3 2441.47 248.746   1
  -3  21   2 630.141 108.524   1
   3 -21   1 935.565 147.173  -2
   3  21  -2 935.565 147.173   1
  -3  21   1 5579.35 232.350   1
   3 -21   0 6089.94 238.630  -2
   3  21  -1 6089.94 238.630   1
   3  21   0 1671.18 121.226   1
   3  21   1 3714.55 124.807   1
   3  21   2 9446.29 184.482   1
  -3  21  -3 1285.97 95.8352   1
  -3  21  -4-83.9219 135.130   1
  -3  21  -5 7970.51 250.778   1
   3  21   6 163.114 87.9842   1
  -3  21  -7 7629.42 211.789   1
   3  21   8 653.293 77.0328   1
   3  22  -9 1152.65 92.3684   1
   3  22  -8 8709.95 145.026   1
  -3  22   7 6148.52 138.864   1
   3  22  -6 601.648 66.7072   1
   3  22  -5 3013.82 114.673   1
  -3  22   4 8371.91 179.486   1
  -3  22   3 2900.40 146.939   1
   3 -22   2 3888.08 283.924  -2
   3  22  -3 3888.08 283.924   1
  -3  22   2 13700.0 251.895   1
   3 -22   1 17886.6 496.829  -2
   3  22  -2 17886.6 496.829   1
  -3  22   1 252.196 74.7366   1
   3 -22   0 1178.77 199.410  -2
   3  22  -1 1178.77 199.410   1
  -3  22   0 3424.43 274.512   1
   3 -22  -1 3403.75 195.928  -2
   3  22   0 3403.75 195.928   1
   3  22   1 20521.8 329.843   1
   3 -22  -2 21534.5 417.863  -2
   3  22   1 21534.5 417.863   1
   3  22   2 2270.19 107.816   1
  -3 -22   3 3286.08 298.084  -2
  -3  22  -2 3286.08 298.084   1
   3  22   3 3968.32 135.052   1
   3  22   4 4209.03 191.848   1
  -3  22  -5 319.097 90.1715   1
   3  22   6 1548.68 117.776   1
  -3  22  -7 677.469 85.2678   1
  -3  22  -8 2084.05 90.9763   1
   3  23  -9 669.781 83.9457   1
   3  23  -8 819.030 90.8953   1
  -3  23   7 1690.87 94.0886   1
   3  23  -6 1869.35 110.106   1
  -3  23   5 38.0309 52.9876   1
   3  23  -4 2538.41 145.293   1
   3  23  -3-33.2113 111.137   1
   3 -23   2 4014.41 275.452  -2
   3  23  -3 4014.41 275.452   1
  -3  23   2 1059.49 121.330   1
   3 -23   1 1329.78 204.971  -2
   3  23  -2 1329.78 204.971   1
  -3  23   1 3632.12 254.388   1
   3 -23   0 6438.98 229.135  -2
   3  23  -1 6438.98 229.135   1
   3  23   0 8810.06 216.104   1
   3 -23  -1 9308.77 277.033  -2
   3  23   0 9308.77 277.033   1
  -3  23  -1 94.2396 60.3921   1
   3 -23  -2 332.773 171.734  -2
   3  23   1 332.773 171.734   1
   3  23   2 16580.1 359.452   1
  -3  23  -3 793.619 167.496   1
   3  23   4 90.3423 87.9216   1
  -3  23  -5 6086.12 195.889   1
   3  23   6 10833.8 229.855   1
   3  23   7 29.0354 53.8355   1
   3  24  -8 2597.68 141.827   1
   3  24  -7 1609.40 91.3670   1
   3  24  -6 591.787 83.0548   1
   3  24  -5 1788.69 122.274   1
   3  24  -4 2477.08 134.380   1
   3 -24   3 2722.72 226.816  -2
   3  24  -4 2722.72 226.816   1
   3 -24   2 3316.07 163.634  -2
   3  24  -3 3316.07 163.634   1
   3 -24   1 5888.07 284.361  -2
   3  24  -2 5888.07 284.361   1
  -3  24   1 2275.69 202.667   1
   3 -24   0 2410.52 126.381  -2
   3  24  -1 2410.52 126.381   1
  -3  24   0 840.206 153.764   1
   3 -24  -1 1164.53 103.957  -2
   3  24   0 1164.53 103.957   1
   3 -24  -2 5624.95 174.021  -2
   3  24   1 5624.95 174.021   1
   3  24   2 13606.2 307.810   1
  -3  24  -3 1406.45 180.827   1
  -3  24  -4 10130.0 239.621   1
  -3  24  -5 1058.53 97.2072   1
   3  24   6 800.264 79.2415   1
   3  24   7 50.9011 53.2611   1
   3  25  -7 1005.06 102.589   1
   3  25  -6 197.355 88.6703   1
   3  25  -5 8.93999 84.0601   1
   3  25  -4 257.745 94.5867   1
   3 -25   3 475.828 142.792  -2
   3  25  -4 475.828 142.792   1
   3  25  -3 83.2902 100.504   1
   3 -25   2 822.008 156.264  -2
   3  25  -3 822.008 156.264   1
   3 -25   1 1014.85 88.1536  -2
   3  25  -2 1014.85 88.1536   1
  -3  25   1 344.036 122.331   1
   3 -25   0 1766.64 184.070  -2
   3  25  -1 1766.64 184.070   1
  -3  25   0 4297.37 251.576   1
   3 -25  -1 4721.69 248.865  -2
   3  25   0 4721.69 248.865   1
   3  25   1 3470.35 154.282   1
  -3 -25   2 4130.53 259.487  -2
  -3  25  -1 4130.53 259.487   1
   3  25   2 1971.07 177.658   1
  -3 -25   3 2340.49 208.810  -2
  -3  25  -2 2340.49 208.810   1
  -3  25  -3 495.997 124.511   1
   3  25   4 390.004 74.6235   1
   3  25   5 1513.72 93.8385   1
  -3  25  -6 9962.84 163.229   1
   3  26  -6 523.879 82.0156   1
   3  26  -5 221.148 89.0856   1
   3  26  -4 871.508 124.951   1
   3  26  -3 812.722 112.559   1
   3 -26   2 851.225 152.682  -2
   3  26  -3 851.225 152.682   1
   3 -26   1 1405.37 151.786  -2
   3  26  -2 1405.37 151.786   1
   3 -26   0 1335.58 156.438  -2
   3  26  -1 1335.58 156.438   1
   3 -26  -1 700.416 136.742  -2
   3  26   0 700.416 136.742   1
  -3  26  -1 252.499 72.3644   1
  -3  26  -2 815.109 127.548   1
  -3  26  -3 12232.5 337.065   1
  -3  26  -4 3797.68 122.441   1
   3  26   5 8762.72 153.926   1
   3  27  -5 255.151 69.2416   1
   3 -27   3 792.528 107.613  -2
   3  27  -4 792.528 107.613   1
   3  27  -3-19.1637 60.2665   1
   3 -27   2 273.608 108.535  -2
   3  27  -3 273.608 108.535   1
   3 -27   1 3469.00 129.740  -2
   3  27  -2 3469.00 129.740   1
   3 -27   0 1196.60 134.875  -2
   3  27  -1 1196.60 134.875   1
   3 -27  -1 510.303 110.767  -2
   3  27   0 510.303 110.767   1
  -3  27  -1 3671.60 191.968   1
   3 -27  -2 4402.10 193.308  -2
   3  27   1 4402.10 193.308   1
  -3  27  -2 1141.22 115.727   1
  -3  27  -3 1803.59 127.098   1
   3  27   4 3005.00 91.8661   1
   3 -28   2 871.609 100.934  -2
   3  28  -3 871.609 100.934   1
   3 -28   1 680.582 104.811  -2
   3  28  -2 680.582 104.811   1
   3 -28   0 5379.02 168.545  -2
   3  28  -1 5379.02 168.545   1
   3 -28  -1 1879.18 122.338  -2
   3  28   0 1879.18 122.338   1
   3 -28  -2 917.605 97.6406  -2
   3  28   1 917.605 97.6406   1
  -4   0  14 338.686 66.4245   1
  -4   0  12 1649.90 110.923   1
   4   0 -10 2965.51 209.006   1
   4   0  -8 927.694 143.437   1
  -4   0   6 45430.8 620.189   1
   4   0   2 14744.2 763.376  -2
   4   0  -4 14744.2 763.376   1
   4   0  -2 4651.55 426.744   1
   4   0   0 100833. 913.242  -2
   4   0  -2 100833. 913.242   1
   4   0   0 387333. 1589.03   1
   4   0   2 51811.6 551.376   1
   4   0  -4 53526.3 1348.83  -2
   4   0   2 53526.3 1348.83   1
   4   0   4 952.033 75.0534   1
   4   0   6 13597.0 263.396   1
   4   0   8 10170.9 291.088   1
   4   0  10 4276.42 219.504   1
   4   0  12 1972.27 74.5310   1
  -4  -1  14 696.953 75.9341   1
  -4  -1  13 291.522 44.2996   1
  -4   1  12 134.622 51.8481   1
  -4  -1  11 184.531 57.4983   1
   4  -1 -10 176.939 81.9413   1
  -4  -1   9 746.421 102.838   1
  -4  -1   8 237.411 82.0408   1
   4  -1  -7 360.192 80.0959   1
  -4   1   6 9749.73 308.643   1
   4  -1  -5 7187.43 587.372   1
   4   1   2 7817.82 589.199  -2
   4  -1  -4 7817.82 589.199   1
   4   1   1 3547.37 417.039  -2
   4  -1  -3 3547.37 417.039   1
   4  -1  -2 112196. 1933.81   1
   4   1   0 147377. 1125.41  -2
   4  -1  -2 147377. 1125.41   1
   4  -1  -1 3278.43 357.267   1
   4   1  -1 4866.76 242.172  -2
   4  -1  -1 4866.76 242.172   1
   4  -1   0 14004.1 715.537   1
   4   1  -2 42639.9 599.783  -2
   4  -1   0 42639.9 599.783   1
   4  -1   1 48.3908 71.1704   1
   4   1  -3 858.897 264.609  -2
   4  -1   1 858.897 264.609   1
   4  -1   2 23386.0 375.960   1
   4   1  -4 26232.2 958.549  -2
   4  -1   2 26232.2 958.549   1
   4  -1   3 9037.79 139.752   1
   4  -1   4 147107. 422.774   1
   4   1   5 12618.8 146.442   1
   4  -1   6 1253.47 84.8298   1
   4  -1   7 2472.64 128.511   1
   4  -1   8 5786.40 183.979   1
   4   1   9 4243.16 145.902   1
   4  -1  10 12238.0 248.246   1
   4  -1  11 75.0809 40.0912   1
   4  -1  12 339.156 44.5982   1
  -4  -2  14 48.1883 52.6087   1
  -4   2  13 160.011 58.9583   1
  -4  -2  12 4847.68 135.110   1
  -4   2  11 9368.80 200.454   1
  -4  -2  10 11193.0 242.017   1
  -4   2   9 1300.02 115.074   1
   4  -2  -8 626.514 92.6525   1
  -4   2   7 11268.2 356.351   1
  -4   2   6 25515.6 490.835   1
   4  -2  -5 16599.2 867.891   1
   4   2   2 19450.1 870.346  -2
   4  -2  -4 19450.1 870.346   1
   4   2   1 8880.68 596.671  -2
   4  -2  -3 8880.68 596.671   1
   4  -2  -2 385.687 181.743   1
   4   2   0 1629.28 171.683  -2
   4  -2  -2 1629.28 171.683   1
   4   2  -1 38141.4 514.477  -2
   4  -2  -1 38141.4 514.477   1
   4  -2   0 4314.80 412.680   1
   4   2  -2 5488.74 250.309  -2
   4  -2   0 5488.74 250.309   1
   4  -2   1 14704.9 274.084   1
   4  -2   2 7232.51 218.737   1
   4   2  -4 10361.3 632.736  -2
   4  -2   2 10361.3 632.736   1
   4   2   3 16392.6 144.146   1
   4  -2   4 6980.00 136.353   1
   4  -2   5 6711.10 134.572   1
   4   2   6 15457.1 256.064   1
   4  -2   7 9613.37 203.851   1
   4  -2   8 1992.26 116.408   1
   4  -2   9 12438.6 233.873   1
   4   2  10 6496.66 184.253   1
   4  -2  11 181.546 43.4074   1
   4  -2  12 730.591 45.2831   1
  -4  -3  14 9.26040 35.2706   1
  -4   3  13 980.757 63.6257   1
  -4  -3  12 633.488 61.0352   1
  -4   3  11 5613.46 137.662   1
   4   3 -10 72.5600 57.3704   1
   4   3  -9 1263.43 93.9650   1
   4  -3  -8 3233.41 165.004   1
  -4   3   7 4855.53 174.576   1
  -4   3   6 27361.6 473.161   1
   4  -3   4 26767.8 494.907  -2
   4   3  -6 26767.8 494.907   1
   4  -3  -5 18510.0 369.882   1
   4   3   2 13209.1 526.716  -2
   4  -3  -4 13209.1 526.716   1
   4   3   1 24874.0 672.124  -2
   4  -3  -3 24874.0 672.124   1
   4   3   0 21300.9 277.587  -2
   4  -3  -2 21300.9 277.587   1
   4  -3  -1 75109.1 1568.59   1
   4  -3  -1 114861. 649.750  -2
   4   3  -1 114861. 649.750   1
   4   3  -2 44897.9 432.074  -2
   4  -3   0 44897.9 432.074   1
   4  -3   1 4479.05 121.593   1
   4   3   2 4626.10 125.039   1
   4  -3  -4 7503.93 391.088  -2
   4   3   2 7503.93 391.088   1
   4   3   3 37894.4 195.210   1
   4   3   4 5473.99 86.8348   1
   4   3   5 47582.7 334.326   1
   4   3   6 2382.89 102.977   1
   4  -3   7 1239.41 93.2096   1
   4   3   8 25758.5 333.713   1
   4  -3   9 5371.14 137.872   1
   4   3  10 1721.57 77.5772   1
   4  -3  11 6591.51 136.201   1
   4   3  12 1337.16 54.6397   1
  -4   4  14 740.978 41.3865   1
  -4   4  13 4294.85 105.755   1
  -4   4  12 21.5932 51.6775   1
  -4   4  11 20267.4 285.535   1
   4   4 -10 2806.80 143.859   1
   4  -4  -9 1111.07 120.469   1
   4   4  -8 2216.63 151.431   1
  -4   4   7 16301.0 306.655   1
   4  -4  -6 2655.31 171.821   1
   4  -4   4 4098.69 233.774  -2
   4   4  -6 4098.69 233.774   1
  -4   4   5 30754.9 480.870   1
   4   4  -4 25577.0 466.162   1
   4   4   2 25782.1 710.186  -2
   4  -4  -4 25782.1 710.186   1
   4   4   1 7760.08 394.545  -2
   4  -4  -3 7760.08 394.545   1
   4   4   0 3667.07 136.840  -2
   4  -4  -2 3667.07 136.840   1
   4  -4  -1 44342.3 1203.22   1
   4   4  -1 67713.3 503.381  -2
   4  -4  -1 67713.3 503.381   1
   4  -4   1 24398.0 263.811   1
   4  -4   2 966.216 54.3990   1
   4  -4  -4 6399.80 519.232  -2
   4   4   2 6399.80 519.232   1
   4   4   3 2094.22 52.8345   1
   4  -4  -5 8681.82 631.117  -2
   4   4   3 8681.82 631.117   1
   4   4   4 10594.4 130.494   1
   4   4   5 8428.30 138.653   1
   4  -4   6 732.430 69.4496   1
   4   4   7 4315.11 129.076   1
   4  -4   8 7913.15 185.197   1
   4  -4   9 6493.12 168.194   1
   4   4  10 1511.44 80.9967   1
   4  -4  11 754.854 59.8050   1
   4   4  12 584.859 40.7534   1
  -4   5  14 1380.19 46.9457   1
  -4  -5  13 2222.33 79.1296   1
  -4   5  12 2932.67 106.018   1
  -4   5  11 1554.92 83.1473   1
  -4   5  10 17862.9 353.643   1
   4   5  -9 11923.9 290.577   1
   4   5  -8 2885.31 163.807   1
   4  -5  -7 27282.2 397.123   1
  -4   5   6 10466.1 307.795   1
   4  -5   4 12968.7 387.630  -2
   4   5  -6 12968.7 387.630   1
  -4   5   5 3583.07 181.555   1
   4  -5   3 4905.10 231.394  -2
   4   5  -5 4905.10 231.394   1
   4  -5  -4 16832.2 832.820   1
   4  -5   2 17956.9 845.947  -2
   4   5  -4 17956.9 845.947   1
   4   5   1 4271.11 190.026  -2
   4  -5  -3 4271.11 190.026   1
   4  -5  -2 518.974 204.699   1
   4  -5   0 3838.63 142.444  -2
   4   5  -2 3838.63 142.444   1
   4  -5  -1 19627.0 264.625  -2
   4   5  -1 19627.0 264.625   1
   4  -5   0 12348.4 432.380   1
   4   5   1 830.105 101.435   1
   4   5  -3 1593.55 119.148  -2
   4  -5   1 1593.55 119.148   1
   4   5   2 4650.93 79.9027   1
   4   5  -4 8572.34 589.540  -2
   4  -5   2 8572.34 589.540   1
   4   5   3 7576.70 88.1740   1
   4  -5   4 4015.07 85.7211   1
   4   5   5 7052.11 140.270   1
   4   5   6 3977.22 110.993   1
   4   5   7 2153.09 90.7392   1
   4  -5   8 9319.75 175.107   1
   4   5   9 27213.7 373.092   1
   4   5  10 8302.56 211.164   1
   4   5  11 6599.08 158.948   1
   4   5  12 2367.67 63.2644   1
  -4   6  14 809.330 74.1614   1
  -4   6  13 10243.8 143.971   1
  -4   6  12 23736.1 257.442   1
  -4  -6  11 23376.3 247.703   1
  -4   6  10 701.939 108.558   1
  -4   6   9 2366.73 148.911   1
   4   6  -8 1999.83 144.181   1
   4  -6  -7 12357.9 274.035   1
  -4   6   6 36579.7 565.958   1
   4  -6   4 38933.0 653.581  -2
   4   6  -6 38933.0 653.581   1
  -4   6   5 23693.3 434.497   1
   4  -6   3 25412.3 493.333  -2
   4   6  -5 25412.3 493.333   1
   4  -6  -4 63.2207 54.2461   1
   4  -6   2 128.555 94.2979  -2
   4   6  -4 128.555 94.2979   1
   4   6   1 5726.88 167.061  -2
   4  -6  -3 5726.88 167.061   1
   4   6   0 2280.49 114.530  -2
   4  -6  -2 2280.49 114.530   1
   4   6  -1 332.708 122.696   1
   4   6  -1 309.984 92.6390  -2
   4  -6  -1 309.984 92.6390   1
   4  -6  -2 6856.59 342.384  -2
   4   6   0 6856.59 342.384   1
   4   6   1 117.840 46.6107   1
   4   6  -3 1192.65 273.524  -2
   4  -6   1 1192.65 273.524   1
   4   6   2 457.817 46.5163   1
   4   6  -4 537.119 79.2221  -2
   4  -6   2 537.119 79.2221   1
   4   6   3 2346.24 57.8074   1
   4   6  -5 8365.47 618.890  -2
   4  -6   3 8365.47 618.890   1
   4   6   4 1278.70 62.2629   1
   4  -6   5 1309.84 67.9001   1
   4   6   6 1615.42 98.8657   1
   4   6   7 979.374 76.2992   1
   4   6   8 14643.2 252.830   1
   4   6   9 80.1964 58.5154   1
   4   6  10 682.891 67.5720   1
   4   6  11 1150.82 76.2528   1
   4  -6  12 2553.46 71.4072   1
  -4   7  14 9087.54 183.464   1
  -4   7  13 132.460 36.0583   1
  -4   7  12 947.082 69.1594   1
  -4  -7  11 671.478 64.4612   1
  -4   7  10 40258.5 352.301   1
   4   7  -9 4536.34 183.216   1
   4   7  -8 33156.3 457.430   1
   4   7  -7 391.176 91.4363   1
   4  -7  -6 657.625 117.942   1
   4  -7   4 1141.20 178.408  -2
   4   7  -6 1141.20 178.408   1
  -4   7   5 7567.81 258.621   1
   4  -7   3 7247.38 290.393  -2
   4   7  -5 7247.38 290.393   1
   4  -7  -4 6240.65 165.491   1
   4   7   2 6501.25 220.260  -2
   4  -7  -4 6501.25 220.260   1
   4  -7  -3 145.490 54.9083   1
   4   7   1 1487.14 87.9633  -2
   4  -7  -3 1487.14 87.9633   1
   4   7   0 2592.29 121.563  -2
   4  -7  -2 2592.29 121.563   1
   4   7  -1 1335.81 113.456  -2
   4  -7  -1 1335.81 113.456   1
   4   7   0 241.947 107.818   1
   4   7  -2 842.848 166.566  -2
   4  -7   0 842.848 166.566   1
   4   7   1 6504.31 169.415   1
   4   7  -3 6626.53 154.332  -2
   4  -7   1 6626.53 154.332   1
   4  -7   2 4624.34 93.7227   1
   4  -7  -4 5886.97 131.855  -2
   4   7   2 5886.97 131.855   1
   4   7   3 1309.19 61.3667   1
   4  -7  -5 2791.58 149.219  -2
   4   7   3 2791.58 149.219   1
   4   7   4 3794.83 90.2185   1
   4   7   5 674.927 56.0374   1
   4   7   6 228.859 51.4903   1
   4   7   7 305.707 51.3803   1
   4   7   8 950.205 71.4199   1
   4   7   9 8027.40 179.770   1
   4   7  10 23425.0 266.605   1
   4   7  11 2411.27 77.9329   1
  -4   8  13 41.9696 32.1128   1
  -4   8  12 28931.3 259.299   1
   4   8 -11 329.791 53.8346   1
  -4   8  10 32664.2 308.786   1
   4   8  -9 177.307 76.9565   1
  -4   8   8 2665.12 149.384   1
   4  -8  -7 3122.56 152.052   1
  -4   8   6 39476.0 449.545   1
  -4   8   5 201.160 122.581   1
   4  -8   3 889.157 129.458  -2
   4   8  -5 889.157 129.458   1
   4  -8  -4 5639.22 229.942   1
   4  -8   2 5490.65 166.306  -2
   4   8  -4 5490.65 166.306   1
   4  -8  -3 8845.44 282.503   1
   4  -8   1 8587.68 162.023  -2
   4   8  -3 8587.68 162.023   1
   4  -8  -2 525.982 105.057   1
   4  -8   0 483.807 65.2071  -2
   4   8  -2 483.807 65.2071   1
   4  -8  -1 1594.27 123.019  -2
   4   8  -1 1594.27 123.019   1
   4  -8   0 257.704 158.421   1
   4  -8  -2 435.146 65.7852  -2
   4   8   0 435.146 65.7852   1
   4  -8   1 99.8447 57.9159   1
   4  -8  -3 2037.39 97.9757  -2
   4   8   1 2037.39 97.9757   1
   4   8   2 254.331 51.1462   1
   4  -8  -4 1395.59 66.1949  -2
   4   8   2 1395.59 66.1949   1
   4  -8   3 2684.63 120.215   1
   4  -8  -5 2277.21 95.8935  -2
   4   8   3 2277.21 95.8935   1
   4   8   4-1.16692 35.0104   1
   4   8   5 3693.46 95.3956   1
   4  -8   6 4700.54 128.878   1
   4   8   7 15.1529 58.3445   1
   4   8   8 9417.66 209.634   1
   4   8   9 42.4768 53.7157   1
   4  -8  10 569.141 60.2982   1
   4  -8  11 3648.50 110.398   1
   4  -8  12 10159.9 188.416   1
  -4   9  13 1666.16 119.107   1
  -4   9  12 137.306 38.2473   1
  -4  -9  11 2539.55 86.4599   1
  -4   9  10 11638.3 183.188   1
  -4   9   9 8933.48 236.504   1
  -4   9   8 10184.8 253.820   1
  -4   9   7 22922.8 365.262   1
  -4   9   6 656.844 112.871   1
   4  -9   4 1233.86 180.927  -2
   4   9  -6 1233.86 180.927   1
  -4   9   5 135.438 100.125   1
   4  -9   3 199.258 117.181  -2
   4   9  -5 199.258 117.181   1
   4  -9  -4 16221.9 377.275   1
   4  -9   2 15358.0 215.526  -2
   4   9  -4 15358.0 215.526   1
   4  -9  -3 42.8709 73.9586   1
   4  -9   1 628.436 64.2671  -2
   4   9  -3 628.436 64.2671   1
  -4   9   2 5237.72 178.561   1
   4  -9   0 5625.10 104.819  -2
   4   9  -2 5625.10 104.819   1
   4  -9  -1 8415.28 243.551  -2
   4   9  -1 8415.28 243.551   1
   4  -9   0 1838.87 105.179   1
   4   9  -2 3040.26 98.3600  -2
   4  -9   0 3040.26 98.3600   1
   4   9   1 2583.51 104.501   1
   4  -9  -3 2486.88 71.7234  -2
   4   9   1 2486.88 71.7234   1
   4   9   2 2713.30 117.493   1
   4   9  -4 6185.48 111.138  -2
   4  -9   2 6185.48 111.138   1
   4   9   3 483.629 64.6945   1
   4  -9  -5 512.807 82.8969  -2
   4   9   3 512.807 82.8969   1
   4   9   4 3297.09 91.9758   1
   4  -9   5 1620.00 74.6463   1
   4   9   6 15777.1 211.804   1
   4   9   7 2160.09 100.230   1
   4   9   8 351.175 67.7016   1
   4   9   9 4603.29 128.503   1
   4   9  10 8018.62 143.568   1
   4  -9  11 815.008 58.2023   1
  -4  10  13 5409.69 180.685   1
  -4  10  12 6102.52 153.401   1
  -4  10  11 9505.32 141.400   1
  -4  10  10 3123.20 99.1757   1
   4  10  -9 326.106 75.6491   1
   4  10  -8 16268.8 330.704   1
  -4  10   7 261.844 83.5530   1
  -4  10   6 5399.38 232.533   1
   4 -10   4 5022.03 286.875  -2
   4  10  -6 5022.03 286.875   1
  -4  10   5 16156.7 413.665   1
   4 -10   3 16620.8 291.655  -2
   4  10  -5 16620.8 291.655   1
   4 -10   2 3879.57 122.083  -2
   4  10  -4 3879.57 122.083   1
   4 -10  -3 25462.2 476.101   1
   4 -10   1 24346.0 257.099  -2
   4  10  -3 24346.0 257.099   1
  -4  10   2 32343.9 424.813   1
   4  10   0 34780.8 286.550  -2
   4 -10  -2 34780.8 286.550   1
  -4  10   1 181.788 139.073   1
   4 -10  -1 420.280 127.706  -2
   4  10  -1 420.280 127.706   1
   4 -10   0 7413.61 163.905   1
   4 -10  -2 14713.4 148.269  -2
   4  10   0 14713.4 148.269   1
   4  10   1 6155.38 153.076   1
   4 -10  -3 11491.4 142.921  -2
   4  10   1 11491.4 142.921   1
   4  10   2 4219.77 105.301   1
   4 -10  -4 4699.84 172.591  -2
   4  10   2 4699.84 172.591   1
   4  10   3 2533.62 87.3291   1
   4 -10   4 313.954 48.2955   1
   4  10   5 13895.5 180.040   1
   4  10   6 38.9991 49.3830   1
   4  10   7 5742.70 155.143   1
   4 -10   8 4627.84 138.673   1
   4  10   9 240.178 51.8900   1
   4 -10  10 11611.5 202.082   1
   4 -10  11 5594.54 179.928   1
  -4  11  13 3161.73 134.675   1
  -4  11  12 1395.61 84.3141   1
  -4  11  11 672.395 87.3360   1
  -4  11  10 807.122 71.9802   1
  -4  11   9 19945.7 233.069   1
  -4  11   8 538.630 109.443   1
  -4  11   7 16031.4 350.351   1
  -4  11   6 12978.3 384.959   1
   4 -11   4 12446.1 413.399  -2
   4  11  -6 12446.1 413.399   1
  -4  11   5 373.703 137.260   1
   4 -11   3 3683.29 153.357  -2
   4  11  -5 3683.29 153.357   1
   4 -11   2 6611.81 177.119  -2
   4  11  -4 6611.81 177.119   1
   4 -11  -3 17340.6 398.765   1
   4 -11   1 15849.4 250.014  -2
   4  11  -3 15849.4 250.014   1
  -4  11   2 4596.09 176.591   1
   4 -11   0 4950.41 224.359  -2
   4  11  -2 4950.41 224.359   1
  -4  11   1 6193.87 208.478   1
   4 -11  -1 6599.40 136.942  -2
   4  11  -1 6599.40 136.942   1
   4  11   0 515.783 89.2268   1
   4  11  -2 1756.13 81.3816  -2
   4 -11   0 1756.13 81.3816   1
   4 -11   1 61.7325 48.2270   1
   4 -11  -3 4025.69 118.657  -2
   4  11   1 4025.69 118.657   1
   4  11   2 146.422 48.6167   1
   4 -11  -4 1266.66 170.609  -2
   4  11   2 1266.66 170.609   1
   4 -11   3 14740.8 187.839   1
   4  11   4 81.9098 50.1854   1
   4  11   5 3429.97 115.794   1
   4  11   6 27997.4 273.809   1
   4 -11   7 391.793 65.6086   1
   4  11   8 156.205 50.2160   1
   4 -11   9 11430.3 203.233   1
   4 -11  10 2288.99 151.671   1
   4 -11  11 3162.38 129.176   1
   4  12 -12 55.4875 64.8118   1
   4  12 -11 1696.35 149.552   1
   4  12 -10 105.693 105.925   1
   4  12  -9 1266.51 174.394   1
   4  12  -8 12359.8 432.638   1
   4  12  -7 9709.99 388.502   1
   4  12  -6 101.230 120.210   1
   4 -12   4 335.794 137.917  -2
   4  12  -6 335.794 137.917   1
   4 -12   3 14221.5 283.446  -2
   4  12  -5 14221.5 283.446   1
   4 -12   2 3079.91 204.590  -2
   4  12  -4 3079.91 204.590   1
  -4  12   3 1989.25 125.608   1
   4 -12   1 14897.9 347.256  -2
   4  12  -3 14897.9 347.256   1
  -4  12   2 25774.8 393.486   1
   4 -12   0 31610.9 588.039  -2
   4  12  -2 31610.9 588.039   1
  -4  12   1 21212.8 379.796   1
   4 -12  -1 25732.5 354.157  -2
   4  12  -1 25732.5 354.157   1
  -4  12   0 5065.30 159.798   1
   4 -12  -2 10860.1 248.686  -2
   4  12   0 10860.1 248.686   1
   4  12   1 56820.8 471.884   1
   4 -12  -3 59567.4 662.068  -2
   4  12   1 59567.4 662.068   1
   4  12   2 550.787 51.3384   1
   4  12   3 7942.67 152.153   1
  -4 -12   5 10356.7 448.131  -2
  -4  12  -3 10356.7 448.131   1
   4  12   4 1400.98 96.5506   1
   4 -12   5 4269.22 155.107   1
   4 -12   6 5564.16 220.464   1
   4 -12   7 23815.1 563.458   1
   4 -12   8 76.1719 102.300   1
   4 -12   9 747.943 109.842   1
   4 -12  10 6678.58 216.531   1
   4 -12  11 140.068 46.4556   1
   4  13 -12 651.241 80.4998   1
   4  13 -11 643.071 110.372   1
   4  13 -10 351.844 121.180   1
   4  13  -9 2405.90 207.356   1
   4  13  -8 6625.51 322.064   1
   4  13  -7 1171.23 176.687   1
  -4  13   3 51453.6 931.590   1
   4 -13  -2 19516.1 442.748   1
   4 -13   0 20322.0 374.579  -2
   4  13  -2 20322.0 374.579   1
  -4  13   1 16146.8 341.956   1
   4 -13  -1 20938.4 377.107  -2
   4  13  -1 20938.4 377.107   1
   4  13   0 1748.85 129.691   1
  -4 -13   2 6230.87 195.479  -2
  -4  13   0 6230.87 195.479   1
   4  13   1 1628.29 129.100   1
  -4 -13   3 13438.1 276.034  -2
  -4  13  -1 13438.1 276.034   1
   4  13   2 8962.27 165.584   1
  -4 -13   4 9624.79 433.157  -2
  -4  13  -2 9624.79 433.157   1
   4  13   3 48285.0 362.128   1
  -4 -13   5 46889.1 891.452  -2
  -4  13  -3 46889.1 891.452   1
   4  13   4 7168.41 157.957   1
   4  13   5 23287.9 271.427   1
   4  13   6 1392.04 128.687   1
   4 -13   7 2024.96 186.503   1
   4 -13   8 4164.10 226.604   1
   4  13   9 280.901 87.4638   1
   4 -13  10 334.619 70.4024   1
   4  14 -12 117.786 33.0281   1
   4  14 -11 123.918 47.9083   1
   4  14 -10 509.717 116.498   1
   4  14  -9 339.326 123.260   1
   4  14  -8 24.8698 118.522   1
  -4  14   4 22393.7 513.896   1
   4 -14   2 30468.6 612.935  -2
   4  14  -4 30468.6 612.935   1
  -4  14   3 97.4436 136.673   1
   4 -14   1 6411.03 297.974  -2
   4  14  -3 6411.03 297.974   1
  -4  14   2 203.453 67.6919   1
   4 -14   0 4507.04 296.008  -2
   4  14  -2 4507.04 296.008   1
  -4  14   1 13391.5 321.033   1
   4 -14  -1 18317.1 377.622  -2
   4  14  -1 18317.1 377.622   1
   4  14   0 22014.6 386.004   1
  -4 -14   2 22569.5 350.931  -2
  -4  14   0 22569.5 350.931   1
   4  14   1 29989.8 450.754   1
   4 -14  -3 32462.2 424.885  -2
   4  14   1 32462.2 424.885   1
  -4  14  -2 46141.7 436.619   1
   4 -14  -4 50166.3 550.720  -2
   4  14   2 50166.3 550.720   1
   4  14   3 863.420 88.4198   1
  -4 -14   5 1768.11 249.753  -2
  -4  14  -3 1768.11 249.753   1
   4  14   4 860.977 76.5593   1
   4  14   5 1012.39 97.3886   1
   4 -14   6 19452.9 305.286   1
   4 -14   7 9362.11 326.571   1
   4 -14   8 8117.44 216.498   1
   4 -14   9 633.530 88.5644   1
   4 -14  10 426.451 62.3709   1
  -4  15  12 59.4144 30.4557   1
   4  15 -11 146.931 43.8976   1
  -4  15  10 63.1353 51.0096   1
  -4  15   9 1574.11 95.4218   1
  -4  15   8 6913.85 305.634   1
  -4  15   7 50.7996 108.380   1
  -4  15   6 1872.67 135.782   1
  -4  15   5 1126.96 116.523   1
   4 -15   3 1115.63 189.745  -2
   4  15  -5 1115.63 189.745   1
  -4  15   4 22084.6 379.704   1
   4 -15   2 33543.5 646.699  -2
   4  15  -4 33543.5 646.699   1
   4  15  -3 906.620 123.506   1
   4 -15   1 1205.93 188.022  -2
   4  15  -3 1205.93 188.022   1
   4  15  -2 42887.2 495.956   1
  -4 -15   0 44520.8 576.238  -2
  -4  15   2 44520.8 576.238   1
   4  15  -1 321.700 138.862   1
  -4 -15   1 402.798 125.684  -2
  -4  15   1 402.798 125.684   1
   4  15   0 7582.24 247.825   1
   4 -15  -2 17839.0 330.469  -2
   4  15   0 17839.0 330.469   1
   4  15   1 1085.62 126.219   1
  -4 -15   3 1490.97 155.568  -2
  -4  15  -1 1490.97 155.568   1
   4  15   2 44759.1 458.747   1
   4 -15  -4 48202.3 515.061  -2
   4  15   2 48202.3 515.061   1
   4  15   3 852.744 86.5185   1
  -4 -15   5 1289.09 252.251  -2
  -4  15  -3 1289.09 252.251   1
  -4  15  -4 23642.2 344.082   1
   4  15   5 1095.97 92.7986   1
  -4  15  -6 6128.93 206.244   1
   4 -15   7 279.869 91.1236   1
   4  15   8 4760.57 158.457   1
   4  15   9 1101.70 87.6283   1
  -4  16  11 182.314 40.6544   1
  -4  16  10 1014.47 61.2618   1
  -4  16   9 178.436 67.6884   1
  -4  16   8 1347.85 113.677   1
  -4  16   7 494.960 90.9128   1
  -4  16   6 1952.03 133.544   1
   4 -16   4 2335.46 223.123  -2
   4  16  -6 2335.46 223.123   1
  -4  16   5 965.813 107.035   1
   4 -16   3 2661.63 232.153  -2
   4  16  -5 2661.63 232.153   1
  -4  16   4 27134.9 412.828   1
   4 -16   2 41462.8 717.639  -2
   4  16  -4 41462.8 717.639   1
   4 -16   1 1779.39 155.303  -2
   4  16  -3 1779.39 155.303   1
  -4  16   2 1906.10 154.295   1
   4 -16   0 10873.4 414.159  -2
   4  16  -2 10873.4 414.159   1
  -4  16   1 5374.67 181.807   1
   4 -16  -1 6706.58 282.156  -2
   4  16  -1 6706.58 282.156   1
   4  16   0 47141.9 585.229   1
  -4 -16   2 45414.3 517.439  -2
  -4  16   0 45414.3 517.439   1
   4  16   1 2419.05 160.848   1
   4 -16  -3 2857.24 178.875  -2
   4  16   1 2857.24 178.875   1
   4  16   2 52191.5 619.229   1
  -4 -16   4 59127.7 555.274  -2
  -4  16  -2 59127.7 555.274   1
   4  16   3 6741.19 170.150   1
  -4 -16   5 5649.28 377.394  -2
  -4  16  -3 5649.28 377.394   1
   4  16   4 1366.19 107.891   1
  -4  16  -5 206.049 104.826   1
   4 -16   6 18538.1 315.878   1
   4 -16   7 1875.93 134.933   1
   4  16   8 5547.84 150.027   1
   4  16   9 1670.91 284.041   1
  -4  17  11 10.2268 35.2280   1
  -4  17  10 202.876 46.5326   1
  -4  17   9 4634.33 129.455   1
  -4  17   8 9839.01 171.197   1
   4  17  -7 107.409 62.1887   1
  -4  17   6 3029.52 131.442   1
   4 -17   4 6774.79 318.181  -2
   4  17  -6 6774.79 318.181   1
  -4  17   5 9252.45 248.971   1
   4 -17   3 11339.5 291.311  -2
   4  17  -5 11339.5 291.311   1
  -4  17   4 4544.36 275.142   1
   4 -17   2 8544.75 350.083  -2
   4  17  -4 8544.75 350.083   1
   4 -17   1 17141.1 507.557  -2
   4  17  -3 17141.1 507.557   1
   4  17  -2 21411.9 568.143   1
  -4 -17   0 22793.8 423.555  -2
  -4  17   2 22793.8 423.555   1
  -4  17   1 1616.88 119.353   1
   4 -17  -1 1536.22 230.998  -2
   4  17  -1 1536.22 230.998   1
   4  17   0 6299.61 233.653   1
  -4 -17   2 10022.3 258.896  -2
  -4  17   0 10022.3 258.896   1
   4  17   1 948.326 126.434   1
  -4 -17   3 3697.80 185.534  -2
  -4  17  -1 3697.80 185.534   1
   4  17   2 18151.4 534.913   1
  -4 -17   4 19666.9 310.932  -2
  -4  17  -2 19666.9 310.932   1
   4  17   3 7978.07 198.262   1
  -4 -17   5 9646.73 450.021  -2
  -4  17  -3 9646.73 450.021   1
  -4  17  -4 14363.7 265.046   1
  -4  17  -5 5325.04 221.014   1
  -4  17  -6 459.029 146.001   1
  -4  17  -7 2304.33 188.158   1
   4  17   8 8996.72 306.262   1
   4  17   9-114.726 287.001   1
  -4  18  10 1810.97 83.9489   1
  -4  18   9 35.7562 41.2105   1
  -4  18   8 759.523 64.0548   1
  -4  18   7 7079.14 148.821   1
  -4  18   6 2293.24 110.694   1
   4 -18   4 2345.34 209.993  -2
   4  18  -6 2345.34 209.993   1
  -4  18   5 6401.08 205.294   1
   4 -18   3 8253.11 252.167  -2
   4  18  -5 8253.11 252.167   1
   4 -18   2 11796.6 284.032  -2
   4  18  -4 11796.6 284.032   1
  -4  18   3 162.901 119.806   1
   4 -18   1 2403.88 248.945  -2
   4  18  -3 2403.88 248.945   1
   4  18  -2 977.893 129.731   1
   4 -18   0 1727.65 224.912  -2
   4  18  -2 1727.65 224.912   1
   4  18  -1 2199.11 112.516   1
   4 -18  -1 2652.72 187.098  -2
   4  18  -1 2652.72 187.098   1
   4  18   0 4989.92 213.562   1
  -4 -18   2 5239.10 231.933  -2
  -4  18   0 5239.10 231.933   1
   4  18   1 12205.1 314.033   1
  -4 -18   3 11627.5 242.808  -2
  -4  18  -1 11627.5 242.808   1
   4  18   2 5670.77 314.987   1
   4 -18  -4 8162.32 209.834  -2
   4  18   2 8162.32 209.834   1
   4  18   3 5804.79 219.662   1
   4 -18  -5 6788.42 232.833  -2
   4  18   3 6788.42 232.833   1
   4  18   4 505.477 97.9857   1
  -4 -18   6 1057.34 235.190  -2
  -4  18  -4 1057.34 235.190   1
   4  18   5 139.046 96.5872   1
  -4  18  -6 8804.15 353.061   1
  -4  18  -7 14100.9 355.579   1
   4  18   8 228.059 108.626   1
   4  18   9 1887.71 318.346   1
   4  19 -10 75.7093 31.5362   1
  -4  19   9 19014.8 210.435   1
   4  19  -8 1037.79 63.3766   1
  -4  19   7 3553.79 104.183   1
  -4  19   6 5769.40 155.713   1
   4 -19   4 6225.01 283.444  -2
   4  19  -6 6225.01 283.444   1
  -4  19   5 68.2996 66.9806   1
   4 -19   3 2578.97 159.089  -2
   4  19  -5 2578.97 159.089   1
  -4 -19  -2 2543.00 163.873  -2
  -4  19   4 2543.00 163.873   1
  -4 -19  -1 30022.4 435.326  -2
  -4  19   3 30022.4 435.326   1
   4 -19   0 3745.50 165.819  -2
   4  19  -2 3745.50 165.819   1
  -4 -19   1 2450.80 125.579  -2
  -4  19   1 2450.80 125.579   1
   4  19   0 1928.04 149.334   1
  -4 -19   2 2625.78 183.971  -2
  -4  19   0 2625.78 183.971   1
   4  19   1 57.6036 125.603   1
   4 -19  -3 7215.75 195.852  -2
   4  19   1 7215.75 195.852   1
   4  19   2 710.910 154.800   1
  -4 -19   4 1109.16 113.792  -2
  -4  19  -2 1109.16 113.792   1
   4  19   3 12081.3 418.920   1
  -4 -19   5 11402.6 278.199  -2
  -4  19  -3 11402.6 278.199   1
  -4  19  -4 286.362 100.463   1
   4  19   5 1243.02 124.081   1
  -4  19  -6 2467.83 195.901   1
  -4  19  -7 81.2664 85.5295   1
   4  19   8 2430.51 167.478   1
  -4  20   9 1166.33 70.8798   1
  -4  20   8 4860.62 118.332   1
  -4  20   7 3732.84 98.9651   1
  -4  20   6 263.625 57.3066   1
   4 -20   4 761.415 149.041  -2
   4  20  -6 761.415 149.041   1
   4 -20   3 8679.64 239.314  -2
   4  20  -5 8679.64 239.314   1
  -4 -20  -2 1651.79 142.566  -2
  -4  20   4 1651.79 142.566   1
  -4 -20  -1 6894.70 188.585  -2
  -4  20   3 6894.70 188.585   1
  -4 -20   0 5001.08 151.088  -2
  -4  20   2 5001.08 151.088   1
  -4 -20   1 370.605 79.0196  -2
  -4  20   1 370.605 79.0196   1
   4  20   0 990.789 123.009   1
  -4 -20   2 2106.14 172.234  -2
  -4  20   0 2106.14 172.234   1
   4  20   1 11625.4 423.554   1
  -4 -20   3 11973.4 237.440  -2
  -4  20  -1 11973.4 237.440   1
   4  20   2 2750.51 224.986   1
   4 -20  -4 2811.74 135.346  -2
   4  20   2 2811.74 135.346   1
   4 -20  -5 2152.01 120.629  -2
   4  20   3 2152.01 120.629   1
   4  20   4 2908.35 216.289   1
  -4 -20   6 2848.44 260.045  -2
  -4  20  -4 2848.44 260.045   1
   4  20   5 857.873 103.815   1
  -4  20  -6 53.6036 97.2560   1
   4  20   8 1514.25 157.361   1
   4  21  -9 9735.72 213.611   1
  -4  21   8 7404.22 151.391   1
  -4  21   7 8689.70 187.825   1
  -4  21   6 665.246 84.0747   1
  -4 -21  -3 825.626 110.711  -2
  -4  21   5 825.626 110.711   1
  -4  21   4 4730.06 236.478   1
   4 -21   2 4683.52 208.121  -2
   4  21  -4 4683.52 208.121   1
  -4 -21  -1 7115.47 182.075  -2
  -4  21   3 7115.47 182.075   1
  -4 -21   0 125.430 83.0138  -2
  -4  21   2 125.430 83.0138   1
  -4 -21   1 899.608 96.4758  -2
  -4  21   1 899.608 96.4758   1
   4 -21  -2 186.200 75.2578  -2
   4  21   0 186.200 75.2578   1
  -4 -21   3 1993.54 105.320  -2
  -4  21  -1 1993.54 105.320   1
   4  21   2 623.576 139.663   1
   4 -21  -4 1291.77 106.762  -2
   4  21   2 1291.77 106.762   1
   4  21   3 573.462 137.827   1
  -4 -21   5 772.316 195.667  -2
  -4  21  -3 772.316 195.667   1
  -4  21  -4 282.424 87.7260   1
  -4  21  -5 1964.11 122.922   1
  -4  21  -6 3000.16 173.587   1
   4  21   7 1233.01 121.429   1
   4  22  -8 3199.26 112.720   1
   4  22  -7 1563.00 139.223   1
  -4  22   6 3151.28 104.977   1
   4 -22   3 1678.16 102.116  -2
   4  22  -5 1678.16 102.116   1
  -4 -22  -2 6456.28 167.087  -2
  -4  22   4 6456.28 167.087   1
  -4 -22  -1 520.918 92.0507  -2
  -4  22   3 520.918 92.0507   1
   4 -22   0 712.820 92.2015  -2
   4  22  -2 712.820 92.2015   1
  -4 -22   1 107.537 59.9547  -2
  -4  22   1 107.537 59.9547   1
   4  22   0 2526.46 210.506   1
  -4 -22   2 2768.22 124.460  -2
  -4  22   0 2768.22 124.460   1
   4 -22   1 1875.00 134.240   1
   4 -22  -3 1973.23 98.6910  -2
   4  22   1 1973.23 98.6910   1
   4  22   2 2327.80 194.303   1
  -4 -22   4 3959.47 134.312  -2
  -4  22  -2 3959.47 134.312   1
   4 -22  -5 3067.36 163.646  -2
   4  22   3 3067.36 163.646   1
  -4  22  -4-69.7248 70.3531   1
  -4  22  -5 43.1248 67.4944   1
  -4  22  -6 1677.91 119.721   1
   4  22   7 2154.08 121.005   1
   4  23  -8 9409.12 223.298   1
   4  23  -7 80.7563 52.1755   1
   4  23  -6 242.541 70.4640   1
   4 -23   3 1303.74 122.628  -2
   4  23  -5 1303.74 122.628   1
   4 -23   2 4337.08 183.526  -2
   4  23  -4 4337.08 183.526   1
  -4 -23  -1 70.6559 75.1353  -2
  -4  23   3 70.6559 75.1353   1
  -4 -23   0 2456.13 113.410  -2
  -4  23   2 2456.13 113.410   1
  -4 -23   1 92.5015 49.4963  -2
  -4  23   1 92.5015 49.4963   1
  -4 -23   2 765.154 66.7765  -2
  -4  23   0 765.154 66.7765   1
   4 -23  -3 750.632 74.3375  -2
   4  23   1 750.632 74.3375   1
   4 -23   2 1415.69 113.917   1
   4 -23  -4 2772.08 151.105  -2
   4  23   2 2772.08 151.105   1
  -4 -23   5 595.450 103.880  -2
  -4  23  -3 595.450 103.880   1
  -4  23  -4 236.269 72.8250   1
  -4  23  -5 173.456 57.9689   1
   4 -23   6 450.151 58.6689   1
   4  24  -7 112.157 56.5559   1
   4  24  -6 3750.89 124.768   1
   4 -24   3 192.602 66.9818  -2
   4  24  -5 192.602 66.9818   1
   4 -24   2 2202.84 133.339  -2
   4  24  -4 2202.84 133.339   1
   4 -24   1 1788.90 187.308  -2
   4  24  -3 1788.90 187.308   1
   4 -24   0 1095.00 95.7163  -2
   4  24  -2 1095.00 95.7163   1
   4 -24  -1 130.238 88.8523  -2
   4  24  -1 130.238 88.8523   1
   4 -24  -2 5179.24 128.373  -2
   4  24   0 5179.24 128.373   1
   4 -24  -3 2607.79 98.8180  -2
   4  24   1 2607.79 98.8180   1
  -4 -24   4 3183.28 141.963  -2
  -4  24  -2 3183.28 141.963   1
   4  24   3 521.096 102.591   1
  -4 -24   5 511.727 130.707  -2
  -4  24  -3 511.727 130.707   1
  -4  24  -4 198.485 37.8354   1
   4  24   5 94.2652 65.7052   1
   4  25  -6 277.389 63.7516   1
   4 -25   3 1030.33 68.3047  -2
   4  25  -5 1030.33 68.3047   1
   4 -25   2 7621.24 147.466  -2
   4  25  -4 7621.24 147.466   1
   4 -25   1 1700.49 90.2492  -2
   4  25  -3 1700.49 90.2492   1
   4 -25   0 4445.54 127.584  -2
   4  25  -2 4445.54 127.584   1
   4 -25  -1 483.169 58.9372  -2
   4  25  -1 483.169 58.9372   1
   4 -25  -2 1469.97 105.139  -2
   4  25   0 1469.97 105.139   1
   4 -25  -3 607.487 121.217  -2
   4  25   1 607.487 121.217   1
  -4 -25   4 2493.19 117.493  -2
  -4  25  -2 2493.19 117.493   1
  -4 -25   5 1813.70 97.4170  -2
  -4  25  -3 1813.70 97.4170   1
   4  25   4 2530.40 121.700   1
   4 -26   2 720.810 105.062  -2
   4  26  -4 720.810 105.062   1
   4 -26   1 2639.14 156.232  -2
   4  26  -3 2639.14 156.232   1
   4 -26   0 292.084 101.558  -2
   4  26  -2 292.084 101.558   1
   4 -26  -1 575.404 107.298  -2
   4  26  -1 575.404 107.298   1
   4 -26  -2 1533.80 118.391  -2
   4  26   0 1533.80 118.391   1
   4 -26  -3 8353.95 208.315  -2
   4  26   1 8353.95 208.315   1
   4 -26  -4 1808.26 113.880  -2
   4  26   2 1808.26 113.880   1
  -5   0  12-6.88496 80.7145   1
  -5   0  10 2323.09 182.737   1
   5   0  -8 2840.04 203.591   1
   5   0   4 8788.69 824.820  -2
   5   0  -6 8788.69 824.820   1
   5   0   2 5283.57 188.038  -2
   5   0  -4 5283.57 188.038   1
   5   0   0 44879.6 338.795  -2
   5   0  -2 44879.6 338.795   1
   5   0   0 13324.0 425.373   1
   5   0  -2 21905.0 329.958  -2
   5   0   0 21905.0 329.958   1
   5   0  -4 7244.63 148.056  -2
   5   0   2 7244.63 148.056   1
   5   0   4 33948.1 422.740   1
   5   0  -6 36516.3 500.681  -2
   5   0   4 36516.3 500.681   1
   5   0   6 5884.25 155.255   1
   5   0   8 472.811 97.4459   1
   5   0  10 23258.9 276.661   1
  -5  -1  13 58.1163 57.3386   1
  -5   1  12 6595.39 131.065   1
  -5   1  11 1814.86 97.1135   1
  -5   1  10 5321.43 259.260   1
  -5   1   9-11.4996 107.286   1
  -5   1   8 0.89789 111.955   1
  -5   1   7 1012.67 158.211   1
   5   1   5 898.276 455.912  -2
   5  -1  -7 898.276 455.912   1
  -5  -1  -4 28581.9 533.517  -2
  -5   1   6 28581.9 533.517   1
   5   1   3 2394.38 464.870  -2
   5  -1  -5 2394.38 464.870   1
   5   1   2 10394.2 178.701  -2
   5  -1  -4 10394.2 178.701   1
   5   1   1 2699.46 107.077  -2
   5  -1  -3 2699.46 107.077   1
   5  -1  -2 2427.81 187.608   1
   5   1   0 8199.16 224.294  -2
   5  -1  -2 8199.16 224.294   1
   5   1  -1 7010.85 148.477  -2
   5  -1  -1 7010.85 148.477   1
   5   1  -2 26367.4 209.475  -2
   5  -1   0 26367.4 209.475   1
   5   1  -3 7460.38 99.6247  -2
   5  -1   1 7460.38 99.6247   1
   5   1   2 3081.43 165.290   1
   5   1  -4 5013.94 103.480  -2
   5  -1   2 5013.94 103.480   1
   5   1   3 1754.69 89.3726   1
   5   1  -5 2396.44 112.793  -2
   5  -1   3 2396.44 112.793   1
   5  -1   4 40.4942 56.3724   1
   5   1  -6 7534.29 242.801  -2
   5  -1   4 7534.29 242.801   1
   5  -1   5 582.615 51.3027   1
   5  -1   6 7318.96 146.063   1
   5  -1   7 157.372 71.1801   1
   5  -1   8 6986.55 182.571   1
   5  -1   9 753.004 67.0531   1
   5  -1  10 1698.53 70.1709   1
   5  -1  11 196.098 33.7238   1
  -5  -2  13 2434.00 119.930   1
  -5   2  12 23.7371 55.0770   1
  -5   2  11 689.057 88.0469   1
  -5   2  10 1545.32 169.274   1
  -5   2   9 1518.99 171.790   1
   5  -2  -8 3054.51 203.913   1
  -5   2   7 8482.64 350.187   1
   5   2   5 10438.5 659.280  -2
   5  -2  -7 10438.5 659.280   1
  -5   2   6 5847.76 300.557   1
   5   2   4 9970.69 837.098  -2
   5  -2  -6 9970.69 837.098   1
  -5  -2  -3 2281.09 202.520  -2
  -5   2   5 2281.09 202.520   1
  -5  -2  -2 1053.27 82.3546  -2
  -5   2   4 1053.27 82.3546   1
   5  -2  -3 5108.25 251.159   1
   5   2   1 4695.04 173.770  -2
   5  -2  -3 4695.04 173.770   1
   5  -2  -2 11350.4 249.848   1
   5   2   0 12699.8 264.509  -2
   5  -2  -2 12699.8 264.509   1
   5   2  -1 14096.3 153.068  -2
   5  -2  -1 14096.3 153.068   1
   5   2  -2 10814.6 150.413  -2
   5  -2   0 10814.6 150.413   1
   5  -2   1-11.7003 121.703   1
   5   2  -3 1130.86 58.8477  -2
   5  -2   1 1130.86 58.8477   1
   5  -2   2 1062.13 166.745   1
   5   2  -4 1173.92 59.1082  -2
   5  -2   2 1173.92 59.1082   1
   5   2   3 8040.24 161.149   1
   5   2  -5 8497.20 175.038  -2
   5  -2   3 8497.20 175.038   1
   5   2   4 15409.6 214.186   1
   5   2  -6 18504.2 317.370  -2
   5  -2   4 18504.2 317.370   1
   5   2   5 9207.34 158.663   1
   5  -2   6 2468.63 110.415   1
   5  -2   7 7.49646 44.9902   1
   5  -2   8 1762.13 104.656   1
   5  -2   9 11176.7 188.584   1
   5  -2  10 8084.00 131.697   1
   5   2  11 1471.70 51.0514   1
  -5  -3  13 2149.95 77.7947   1
  -5   3  12 679.123 58.8804   1
  -5   3  11 15762.1 231.134   1
  -5   3  10 4502.07 248.776   1
  -5   3   9 283.222 127.658   1
  -5   3   8 349.547 115.407   1
  -5   3   7 12708.7 428.325   1
   5   3   5 15539.0 758.792  -2
   5  -3  -7 15539.0 758.792   1
  -5  -3  -4 938.042 157.473  -2
  -5   3   6 938.042 157.473   1
  -5  -3  -3 16095.6 381.620  -2
  -5   3   5 16095.6 381.620   1
  -5  -3  -2 5673.10 139.018  -2
  -5   3   4 5673.10 139.018   1
   5  -3  -3 1886.33 168.850   1
   5  -3   1 3738.20 136.683  -2
   5   3  -3 3738.20 136.683   1
   5  -3  -2 840.127 129.013   1
   5  -3   0 1848.57 85.4314  -2
   5   3  -2 1848.57 85.4314   1
   5   3  -1 17242.7 159.748  -2
   5  -3  -1 17242.7 159.748   1
   5  -3  -2 4756.65 91.1965  -2
   5   3   0 4756.65 91.1965   1
   5  -3   1 8077.15 337.814   1
   5  -3  -3 8202.29 100.266  -2
   5   3   1 8202.29 100.266   1
   5  -3   2 1739.68 188.178   1
   5  -3  -4 2917.51 66.3731  -2
   5   3   2 2917.51 66.3731   1
   5   3   3 9848.45 185.499   1
   5  -3  -5 13079.8 135.806  -2
   5   3   3 13079.8 135.806   1
   5  -3   4 1299.13 88.0286   1
   5  -3  -6 1703.09 99.5476  -2
   5   3   4 1703.09 99.5476   1
   5  -3   5 8725.21 153.070   1
   5  -3  -7 12615.3 458.531  -2
   5   3   5 12615.3 458.531   1
   5   3   6 162.901 56.2885   1
   5   3   7 5605.10 133.177   1
   5   3   8 656.019 79.0707   1
   5   3   9 8663.08 144.317   1
   5   3  10 703.747 55.1642   1
   5   3  11 1878.18 55.6965   1
  -5   4  13 2063.81 59.8157   1
  -5   4  12 447.121 51.6570   1
  -5   4  11 2434.64 104.053   1
  -5   4  10 1791.94 182.863   1
  -5   4   9 5782.65 297.687   1
  -5   4   8 59.2398 100.717   1
  -5   4   7 10445.8 338.334   1
   5  -4   5 15748.0 446.860  -2
   5   4  -7 15748.0 446.860   1
  -5   4   6 319.020 142.827   1
   5   4   4 377.408 128.345  -2
   5  -4  -6 377.408 128.345   1
   5  -4   3 5689.56 163.462  -2
   5   4  -5 5689.56 163.462   1
   5  -4  -4 2199.24 172.502   1
  -5  -4  -2 2446.38 124.458  -2
  -5   4   4 2446.38 124.458   1
   5  -4  -3 5853.43 264.047   1
   5   4   1 5671.54 123.236  -2
   5  -4  -3 5671.54 123.236   1
   5  -4  -2 754.164 123.979   1
   5  -4   0 670.554 66.1858  -2
   5   4  -2 670.554 66.1858   1
   5   4  -1 43949.6 248.933  -2
   5  -4  -1 43949.6 248.933   1
   5  -4  -2 163.801 39.6233  -2
   5   4   0 163.801 39.6233   1
   5  -4  -3 1571.20 56.8026  -2
   5   4   1 1571.20 56.8026   1
   5   4   2 131.999 89.4887   1
   5  -4  -4 683.576 50.2402  -2
   5   4   2 683.576 50.2402   1
   5   4   3 16869.2 307.396   1
   5  -4  -5 17977.2 149.737  -2
   5   4   3 17977.2 149.737   1
   5   4   4-68.2030 83.8998   1
   5  -4  -6 111.448 68.1689  -2
   5   4   4 111.448 68.1689   1
   5  -4   5 35649.9 327.480   1
   5  -4  -7 36394.3 728.837  -2
   5   4   5 36394.3 728.837   1
   5   4   6 1847.31 84.4494   1
   5   4   7 79.4351 49.7852   1
   5   4   8 146.342 58.9792   1
   5   4   9 16221.2 281.707   1
   5   4  10 41.2531 36.8891   1
   5   4  11 7385.69 95.4076   1
  -5   5  13 5491.60 84.6253   1
  -5   5  12 3013.85 73.7626   1
  -5   5  11 13693.4 207.767   1
  -5   5  10 1717.01 177.634   1
   5   5  -9 1105.79 111.609   1
   5  -5  -8 319.721 114.253   1
   5  -5   6 1379.88 227.772  -2
   5   5  -8 1379.88 227.772   1
  -5   5   7 8875.80 311.301   1
   5  -5   5 10309.6 406.440  -2
   5   5  -7 10309.6 406.440   1
   5  -5   4 1335.35 110.265  -2
   5   5  -6 1335.35 110.265   1
   5  -5   3 20545.9 223.788  -2
   5   5  -5 20545.9 223.788   1
  -5   5   4 178.298 126.940   1
   5   5   2 267.242 61.3892  -2
   5  -5  -4 267.242 61.3892   1
   5  -5  -3 1166.35 152.500   1
   5   5   1 3047.16 101.507  -2
   5  -5  -3 3047.16 101.507   1
   5   5   0 1860.43 77.4408  -2
   5  -5  -2 1860.43 77.4408   1
   5   5  -1 12352.9 146.002  -2
   5  -5  -1 12352.9 146.002   1
   5  -5  -2 6646.50 99.8221  -2
   5   5   0 6646.50 99.8221   1
   5  -5   1 9018.81 359.389   1
   5  -5  -3 10641.7 120.373  -2
   5   5   1 10641.7 120.373   1
   5  -5   2 757.236 145.660   1
   5  -5  -4 609.209 52.2655  -2
   5   5   2 609.209 52.2655   1
   5  -5   3 1753.39 158.888   1
   5  -5  -5 6460.55 107.535  -2
   5   5   3 6460.55 107.535   1
   5  -5   4 302.331 92.5401   1
   5  -5  -6 575.181 76.2888  -2
   5   5   4 575.181 76.2888   1
   5   5   5 2570.39 94.9554   1
   5  -5   6 3745.58 118.252   1
   5   5   7 8228.87 141.124   1
   5  -5   8 2543.32 94.1091   1
   5   5   9 8130.45 199.005   1
   5   5  10 464.647 57.6361   1
   5  -5  11 73.6618 28.5249   1
  -5   6  13 75.5266 47.7594   1
  -5   6  12 3676.56 83.2629   1
  -5   6  11 891.771 72.0829   1
  -5   6  10 5514.44 279.840   1
  -5   6   9 5326.01 208.113   1
  -5   6   8 6221.37 264.961   1
   5  -6   6 7133.61 433.603  -2
   5   6  -8 7133.61 433.603   1
  -5   6   7 1011.25 140.646   1
   5  -6   5 2303.14 278.418  -2
   5   6  -7 2303.14 278.418   1
  -5   6   6 3035.07 248.780   1
   5  -6   4 7129.35 282.166  -2
   5   6  -6 7129.35 282.166   1
  -5   6   5 6310.11 329.174   1
   5  -6   3 9105.58 178.464  -2
   5   6  -5 9105.58 178.464   1
   5  -6  -4 7208.62 297.375   1
   5  -6   2 7988.84 133.742  -2
   5   6  -4 7988.84 133.742   1
   5  -6  -3 9172.82 325.936   1
   5  -6   1 9104.25 151.099  -2
   5   6  -3 9104.25 151.099   1
   5  -6  -2 10420.8 347.260   1
   5  -6   0 10393.4 158.641  -2
   5   6  -2 10393.4 158.641   1
   5  -6  -1 15431.3 164.487  -2
   5   6  -1 15431.3 164.487   1
   5   6  -2 3039.11 76.1271  -2
   5  -6   0 3039.11 76.1271   1
   5  -6   1 3227.18 241.042   1
   5  -6  -3 5579.93 92.9434  -2
   5   6   1 5579.93 92.9434   1
   5  -6   2 6284.20 290.818   1
   5  -6  -4 8224.62 108.384  -2
   5   6   2 8224.62 108.384   1
   5  -6   3 12489.4 286.595   1
   5  -6  -5 14342.2 167.783  -2
   5   6   3 14342.2 167.783   1
   5   6   4 19342.4 574.680   1
   5  -6  -6 20258.6 234.563  -2
   5   6   4 20258.6 234.563   1
   5  -6   5 7892.41 157.836   1
   5  -6  -7 7484.06 341.803  -2
   5   6   5 7484.06 341.803   1
   5   6   6 215.469 59.9505   1
   5   6   7 55.9206 53.2775   1
   5   6   8 799.858 79.0480   1
   5   6   9 4104.44 117.848   1
   5  -6  10 6350.75 135.804   1
  -5   7  12 18689.4 180.038   1
  -5   7  11 2337.12 74.2275   1
  -5   7  10 9057.79 342.412   1
   5   7  -9 645.706 109.889   1
  -5   7   8 2994.06 198.708   1
   5  -7   6 7988.49 548.778  -2
   5   7  -8 7988.49 548.778   1
  -5   7   7 4165.49 282.478   1
   5  -7   5 5146.42 277.412  -2
   5   7  -7 5146.42 277.412   1
   5  -7   4 26576.5 293.243  -2
   5   7  -6 26576.5 293.243   1
  -5  -7  -3 4420.19 120.628  -2
  -5   7   5 4420.19 120.628   1
  -5   7   4 4301.55 182.780   1
   5  -7   2 6661.43 136.723  -2
   5   7  -4 6661.43 136.723   1
   5  -7  -3 423.317 109.825   1
   5  -7   1 1079.82 85.7740  -2
   5   7  -3 1079.82 85.7740   1
   5  -7  -2 617.717 135.784   1
   5   7   0 4015.67 116.705  -2
   5  -7  -2 4015.67 116.705   1
   5   7  -1 104.492 52.4249  -2
   5  -7  -1 104.492 52.4249   1
   5  -7  -2 13313.1 133.023  -2
   5   7   0 13313.1 133.023   1
   5  -7  -3 2995.09 73.0685  -2
   5   7   1 2995.09 73.0685   1
   5  -7   2 12208.4 385.591   1
   5  -7  -4 13938.6 131.713  -2
   5   7   2 13938.6 131.713   1
   5  -7   3 684.014 118.400   1
   5  -7  -5 1876.18 82.9117  -2
   5   7   3 1876.18 82.9117   1
   5   7   4 1032.80 229.264   1
   5  -7  -6 7093.05 134.783  -2
   5   7   4 7093.05 134.783   1
   5   7   5 3684.75 177.231   1
   5  -7  -7 4139.06 147.573  -2
   5   7   5 4139.06 147.573   1
   5   7   6 15478.9 199.580   1
   5   7   7 1292.34 95.6301   1
   5   7   8 9370.42 156.312   1
   5   7   9 190.035 46.5476   1
   5   7  10 119.442 34.6470   1
  -5   8  12 270.881 37.8499   1
  -5   8  11 3.01148 37.3306   1
  -5   8  10 9136.48 145.106   1
   5   8  -9 35.2766 75.9213   1
  -5   8   8 26786.1 450.746   1
   5  -8   6 29878.9 785.174  -2
   5   8  -8 29878.9 785.174   1
  -5   8   7 5047.32 202.039   1
   5  -8   5 6537.02 241.672  -2
   5   8  -7 6537.02 241.672   1
   5  -8   4 6455.39 165.727  -2
   5   8  -6 6455.39 165.727   1
   5  -8   3 244.103 60.2582  -2
   5   8  -5 244.103 60.2582   1
   5  -8  -4 7323.11 302.941   1
   5   8   2 7469.36 148.333  -2
   5  -8  -4 7469.36 148.333   1
   5  -8  -3 711.787 138.247   1
   5  -8   1 2439.56 109.119  -2
   5   8  -3 2439.56 109.119   1
   5   8   0 23144.4 216.780  -2
   5  -8  -2 23144.4 216.780   1
   5   8  -1 287.568 66.2173  -2
   5  -8  -1 287.568 66.2173   1
   5  -8  -2 13419.5 136.797  -2
   5   8   0 13419.5 136.797   1
   5  -8  -3 8513.32 110.570  -2
   5   8   1 8513.32 110.570   1
   5  -8   2 3231.97 221.865   1
   5  -8  -4 5298.36 88.7234  -2
   5   8   2 5298.36 88.7234   1
   5  -8  -5 160.067 52.0051  -2
   5   8   3 160.067 52.0051   1
   5   8  -6 24033.6 223.673  -2
   5  -8   4 24033.6 223.673   1
   5   8   5 3089.73 152.211   1
   5   8  -7 3816.20 144.943  -2
   5  -8   5 3816.20 144.943   1
   5   8   6 5734.67 121.503   1
   5   8   7 146.674 59.1521   1
   5   8   8 6403.83 127.605   1
   5   8   9 52.7362 39.6633   1
   5  -8  10 7734.62 135.063   1
  -5   9  12 11741.3 269.277   1
  -5  -9  11 2674.83 74.0557   1
  -5   9  10 4319.55 89.7744   1
  -5   9   9 3170.94 118.113   1
  -5   9   8 7541.92 200.502   1
   5  -9   6 7749.08 396.030  -2
   5   9  -8 7749.08 396.030   1
  -5   9   7 130.439 86.7375   1
   5  -9   5 1382.88 147.459  -2
   5   9  -7 1382.88 147.459   1
  -5   9   6 17500.2 527.533   1
   5  -9   4 16743.0 261.671  -2
   5   9  -6 16743.0 261.671   1
   5  -9   3 5476.59 144.271  -2
   5   9  -5 5476.59 144.271   1
   5  -9  -4 16544.6 432.166   1
   5  -9   2 17972.3 212.562  -2
   5   9  -4 17972.3 212.562   1
   5  -9  -3 4273.63 237.972   1
   5   9   1 4733.70 133.578  -2
   5  -9  -3 4733.70 133.578   1
   5  -9   0 5362.46 149.513  -2
   5   9  -2 5362.46 149.513   1
   5   9  -1 4172.52 89.8390  -2
   5  -9  -1 4172.52 89.8390   1
   5  -9  -2 11344.1 118.492  -2
   5   9   0 11344.1 118.492   1
   5  -9  -3 4319.14 83.9929  -2
   5   9   1 4319.14 83.9929   1
   5  -9   2 10907.2 362.645   1
   5  -9  -4 16601.9 152.593  -2
   5   9   2 16601.9 152.593   1
   5  -9  -5 2407.67 89.2957  -2
   5   9   3 2407.67 89.2957   1
   5  -9  -6 3810.36 109.172  -2
   5   9   4 3810.36 109.172   1
   5  -9   5 5185.09 254.234   1
   5  -9  -7 4936.88 163.031  -2
   5   9   5 4936.88 163.031   1
   5   9   6 1831.88 91.1920   1
   5   9   7 1978.31 95.9729   1
   5   9   8 3768.10 94.9973   1
   5  -9   9 1715.55 88.1852   1
   5  -9  10 639.527 74.9673   1
  -5  10  12 533.015 77.5700   1
  -5  10  11 465.113 105.016   1
   5  10 -10 1152.98 56.3760   1
  -5  10   9 8291.97 164.270   1
  -5  10   8 4941.68 160.061   1
   5 -10   6 5871.50 325.109  -2
   5  10  -8 5871.50 325.109   1
  -5  10   7 9309.32 391.698   1
   5  10   5 10486.9 232.321  -2
   5 -10  -7 10486.9 232.321   1
  -5  10   6 1030.80 182.076   1
   5 -10   4 2508.95 131.971  -2
   5  10  -6 2508.95 131.971   1
   5 -10   3 3536.79 127.165  -2
   5  10  -5 3536.79 127.165   1
  -5  10   4 3058.22 158.293   1
   5 -10   2 3809.69 139.211  -2
   5  10  -4 3809.69 139.211   1
   5 -10  -3 30317.4 582.609   1
   5  10   1 30283.6 297.226  -2
   5 -10  -3 30283.6 297.226   1
   5 -10  -2 22084.9 513.755   1
   5 -10   0 23543.7 333.196  -2
   5  10  -2 23543.7 333.196   1
   5 -10  -1 18291.8 169.429  -2
   5  10  -1 18291.8 169.429   1
   5 -10   0 7769.96 341.329   1
   5 -10  -2 12498.2 151.152  -2
   5  10   0 12498.2 151.152   1
   5  10  -3 8059.88 104.214  -2
   5 -10   1 8059.88 104.214   1
   5 -10  -4 4768.06 105.154  -2
   5  10   2 4768.06 105.154   1
   5 -10  -5 9923.83 168.409  -2
   5  10   3 9923.83 168.409   1
   5 -10  -6 6719.68 155.867  -2
   5  10   4 6719.68 155.867   1
   5 -10   5 5098.57 163.037   1
   5 -10  -7 7055.03 287.740  -2
   5  10   5 7055.03 287.740   1
   5  10   6 2067.96 88.3128   1
   5  10   7 600.481 63.5331   1
   5 -10   8 3304.29 100.911   1
   5 -10   9 257.544 46.3033   1
   5 -10  10 726.277 71.3148   1
  -5  11  12 965.576 87.4077   1
  -5  11  11 6909.62 241.154   1
  -5  11  10 3441.42 138.040   1
  -5  11   9 1142.20 88.2198   1
  -5  11   8 3723.40 167.782   1
   5 -11   6 3742.68 262.985  -2
   5  11  -8 3742.68 262.985   1
  -5  11   7 8111.46 364.101   1
   5 -11   5 8143.32 246.956  -2
   5  11  -7 8143.32 246.956   1
   5 -11   4 5475.37 177.307  -2
   5  11  -6 5475.37 177.307   1
  -5  11   5 28990.3 672.048   1
   5 -11   3 29482.0 341.317  -2
   5  11  -5 29482.0 341.317   1
   5 -11  -4 263.155 102.173   1
   5 -11   2 245.343 65.1100  -2
   5  11  -4 245.343 65.1100   1
   5 -11  -3 5474.92 267.993   1
   5 -11   1 11893.6 369.930  -2
   5  11  -3 11893.6 369.930   1
   5 -11  -2 6193.67 285.736   1
   5 -11   0 5378.22 137.802  -2
   5  11  -2 5378.22 137.802   1
   5 -11  -1 4821.40 106.077  -2
   5  11  -1 4821.40 106.077   1
   5 -11  -2 1195.12 65.6935  -2
   5  11   0 1195.12 65.6935   1
   5 -11  -3 32059.8 244.483  -2
   5  11   1 32059.8 244.483   1
   5 -11  -4 104.757 63.1042  -2
   5  11   2 104.757 63.1042   1
   5 -11  -5 10181.4 169.156  -2
   5  11   3 10181.4 169.156   1
   5 -11  -6 1298.77 79.5158  -2
   5  11   4 1298.77 79.5158   1
   5 -11   5 454.031 136.399   1
   5 -11  -7 1982.65 110.478  -2
   5  11   5 1982.65 110.478   1
   5  11   6 83.8819 46.8801   1
   5 -11   7 7924.45 174.112   1
   5  11   8 100.543 84.5147   1
   5 -11   9 595.763 87.0812   1
   5 -11  10 18.5894 34.6928   1
  -5  12  12-52.3134 31.9808   1
  -5  12  11 131.369 73.6478   1
   5  12 -10 1124.77 89.8568   1
  -5  12   9 22134.2 350.736   1
  -5  12   8 2741.58 213.902   1
   5 -12   6 1938.50 208.927  -2
   5  12  -8 1938.50 208.927   1
  -5  12   7 5971.11 312.469   1
   5 -12   5 7178.14 221.644  -2
   5  12  -7 7178.14 221.644   1
   5 -12   4 235.066 86.7971  -2
   5  12  -6 235.066 86.7971   1
  -5  12   5 156.165 143.862   1
   5 -12   3 1729.91 150.882  -2
   5  12  -5 1729.91 150.882   1
   5 -12  -4 1202.73 143.314   1
   5 -12   2 1180.56 145.110  -2
   5  12  -4 1180.56 145.110   1
   5 -12  -3 35780.7 621.323   1
   5 -12   1 30948.8 403.178  -2
   5  12  -3 30948.8 403.178   1
   5 -12  -2 209.820 104.943   1
   5 -12   0 659.397 86.5952  -2
   5  12  -2 659.397 86.5952   1
   5 -12  -1 15768.3 233.070  -2
   5  12  -1 15768.3 233.070   1
   5 -12  -2 381.155 69.7980  -2
   5  12   0 381.155 69.7980   1
   5 -12  -3 7288.07 172.617  -2
   5  12   1 7288.07 172.617   1
   5 -12  -4 1562.14 125.704  -2
   5  12   2 1562.14 125.704   1
   5 -12  -5 9803.21 171.485  -2
   5  12   3 9803.21 171.485   1
   5 -12  -6 132.324 59.7272  -2
   5  12   4 132.324 59.7272   1
   5 -12   5 4815.20 194.736   1
   5  12   6 192.180 85.9902   1
   5  12   7 115.116 90.0515   1
   5  12   8 1880.92 135.264   1
   5 -12   9 2862.56 131.666   1
  -5  13  11 2600.12 136.480   1
   5  13 -10 58.9784 44.8350   1
  -5  13   9 486.108 66.5944   1
  -5  13   8 125.511 112.945   1
   5 -13   6 621.960 158.689  -2
   5  13  -8 621.960 158.689   1
  -5  13   7 8201.75 348.054   1
   5 -13   5 9434.13 367.543  -2
   5  13  -7 9434.13 367.543   1
  -5  13   6 5869.39 312.544   1
   5 -13   4 6561.98 324.798  -2
   5  13  -6 6561.98 324.798   1
   5 -13   3 17470.5 361.604  -2
   5  13  -5 17470.5 361.604   1
  -5 -13  -2 14290.9 484.040  -2
  -5  13   4 14290.9 484.040   1
   5 -13  -3 1103.94 151.815   1
   5 -13   1 6023.70 339.309  -2
   5  13  -3 6023.70 339.309   1
   5 -13  -2 3460.77 221.754   1
   5 -13   0 5071.44 185.124  -2
   5  13  -2 5071.44 185.124   1
   5 -13  -1 5966.74 288.534   1
   5 -13  -1 7933.07 280.775  -2
   5  13  -1 7933.07 280.775   1
   5 -13  -2 9919.37 213.501  -2
   5  13   0 9919.37 213.501   1
   5 -13  -3 22918.3 304.968  -2
   5  13   1 22918.3 304.968   1
   5 -13  -4 16677.6 250.447  -2
   5  13   2 16677.6 250.447   1
   5 -13  -5 3652.32 142.590  -2
   5  13   3 3652.32 142.590   1
   5 -13  -6 4796.12 153.246  -2
   5  13   4 4796.12 153.246   1
   5  13   5 616.438 98.4074   1
   5  13   6 1893.58 126.852   1
   5  13   7 9046.95 223.928   1
   5  13   8 1532.03 81.7779   1
   5 -13   9 402.883 37.6506   1
  -5  14  11 1009.26 68.1122   1
  -5  14  10 3048.10 117.255   1
   5  14  -9 1090.01 75.2702   1
  -5  14   8 5335.82 147.108   1
  -5  14   7 3389.97 231.036   1
   5 -14   5 3864.81 252.493  -2
   5  14  -7 3864.81 252.493   1
   5 -14   4 1008.91 134.806  -2
   5  14  -6 1008.91 134.806   1
   5 -14   3 2165.15 164.188  -2
   5  14  -5 2165.15 164.188   1
  -5  14   4 8966.42 380.330   1
   5 -14   2 10681.5 445.548  -2
   5  14  -4 10681.5 445.548   1
   5 -14  -3 14398.0 384.009   1
   5 -14   1 14177.0 509.357  -2
   5  14  -3 14177.0 509.357   1
   5 -14  -2 18038.0 449.260   1
   5 -14   0 19690.5 340.432  -2
   5  14  -2 19690.5 340.432   1
   5 -14  -1 1791.43 182.397   1
   5 -14  -1 2526.56 151.278  -2
   5  14  -1 2526.56 151.278   1
  -5 -14   2 7843.73 176.811  -2
  -5  14   0 7843.73 176.811   1
   5 -14  -3 4941.80 170.037  -2
   5  14   1 4941.80 170.037   1
   5 -14  -4 3966.75 190.121  -2
   5  14   2 3966.75 190.121   1
   5 -14  -5 10275.4 203.591  -2
   5  14   3 10275.4 203.591   1
   5 -14  -6 2249.27 114.135  -2
   5  14   4 2249.27 114.135   1
   5 -14   5 3730.78 205.238   1
   5 -14  -7 4214.10 286.829  -2
   5  14   5 4214.10 286.829   1
   5  14   6 2792.29 135.732   1
   5  14   7 591.097 87.2119   1
   5  14   8 350.556 48.9108   1
   5  15 -11 1016.94 85.0564   1
   5  15 -10 3113.11 178.793   1
   5  15  -9 2791.06 134.155   1
   5  15  -8-37.5785 91.3516   1
   5 -15   5 104.623 82.3848  -2
   5  15  -7 104.623 82.3848   1
   5 -15   4 1142.09 181.923  -2
   5  15  -6 1142.09 181.923   1
   5 -15   3 2355.48 246.674  -2
   5  15  -5 2355.48 246.674   1
   5 -15   2 29902.3 704.516  -2
   5  15  -4 29902.3 704.516   1
   5 -15   1 759.413 193.770  -2
   5  15  -3 759.413 193.770   1
   5 -15  -2 438.650 113.222   1
   5 -15   0 1904.26 163.299  -2
   5  15  -2 1904.26 163.299   1
   5 -15  -1 4573.35 250.277   1
   5 -15  -1 5360.75 205.690  -2
   5  15  -1 5360.75 205.690   1
   5 -15   0 8762.39 347.629   1
  -5 -15   2 8470.02 188.344  -2
  -5  15   0 8470.02 188.344   1
  -5 -15   3 375.988 87.7000  -2
  -5  15  -1 375.988 87.7000   1
   5 -15  -4 26895.7 400.320  -2
   5  15   2 26895.7 400.320   1
   5 -15  -5 6209.75 205.766  -2
   5  15   3 6209.75 205.766   1
   5 -15  -6 865.374 199.382  -2
   5  15   4 865.374 199.382   1
   5  15   5 649.789 85.2922   1
   5  15   6 5517.61 162.943   1
   5  15   7 121.384 56.8572   1
   5  15   8 9165.14 204.469   1
   5  16 -10 1471.23 126.559   1
   5  16  -9 2428.88 177.209   1
   5  16  -8 9087.46 226.663   1
   5 -16   5 1118.67 166.463  -2
   5  16  -7 1118.67 166.463   1
   5 -16   3 5136.15 327.266  -2
   5  16  -5 5136.15 327.266   1
   5 -16   2 4869.16 327.010  -2
   5  16  -4 4869.16 327.010   1
   5 -16   1 1070.96 146.822  -2
   5  16  -3 1070.96 146.822   1
   5 -16  -2 5808.35 247.931   1
   5 -16   0 5877.17 250.841  -2
   5  16  -2 5877.17 250.841   1
   5 -16  -1 444.701 111.818   1
   5 -16  -1 781.915 127.177  -2
   5  16  -1 781.915 127.177   1
   5 -16   0 1488.87 171.556   1
  -5 -16   2 2739.70 124.320  -2
  -5  16   0 2739.70 124.320   1
  -5 -16   3 2002.07 111.277  -2
  -5  16  -1 2002.07 111.277   1
   5 -16  -4 7144.24 191.264  -2
   5  16   2 7144.24 191.264   1
   5 -16  -5 2945.74 173.705  -2
   5  16   3 2945.74 173.705   1
   5 -16  -6 5929.81 309.781  -2
   5  16   4 5929.81 309.781   1
   5 -16  -7 4969.05 276.225  -2
   5  16   5 4969.05 276.225   1
   5  16   6 7307.32 290.594   1
   5  16   7 1026.65 187.426   1
   5 -16   8 2370.55 112.172   1
  -5  17  10 2396.18 84.2965   1
  -5  17   9 82.7203 53.6061   1
  -5  17   8 8.43618 67.9672   1
   5 -17   5 362.570 159.263  -2
   5  17  -7 362.570 159.263   1
   5 -17   2 4435.53 308.533  -2
   5  17  -4 4435.53 308.533   1
   5 -17   1 4699.50 228.226  -2
   5  17  -3 4699.50 228.226   1
   5 -17  -2 183.130 90.4749   1
   5 -17   0 703.593 134.546  -2
   5  17  -2 703.593 134.546   1
   5 -17  -1 570.890 114.160   1
   5 -17  -1 242.505 67.7902  -2
   5  17  -1 242.505 67.7902   1
   5 -17   0 2986.27 204.129   1
   5 -17  -2 3161.19 114.165  -2
   5  17   0 3161.19 114.165   1
   5 -17   1 13857.8 424.311   1
  -5 -17   3 13265.5 239.407  -2
  -5  17  -1 13265.5 239.407   1
  -5 -17   4 8006.82 209.194  -2
  -5  17  -2 8006.82 209.194   1
   5 -17  -5 1976.55 145.895  -2
   5  17   3 1976.55 145.895   1
   5 -17  -6 377.843 168.489  -2
   5  17   4 377.843 168.489   1
   5  17   5 287.866 121.171   1
   5  17   6 19860.8 427.147   1
   5  17   7 8555.19 297.348   1
   5 -17   8 9635.33 181.103   1
  -5  18   9 8004.14 155.100   1
  -5  18   8 1412.77 93.6339   1
  -5  18   7 102.836 91.3148   1
   5 -18   5 723.199 162.363  -2
   5  18  -7 723.199 162.363   1
  -5 -18  -4 1633.21 169.530  -2
  -5  18   6 1633.21 169.530   1
  -5 -18  -3 2610.09 209.821  -2
  -5  18   5 2610.09 209.821   1
  -5 -18  -2 724.780 101.508  -2
  -5  18   4 724.780 101.508   1
  -5 -18  -1 4635.90 173.474  -2
  -5  18   3 4635.90 173.474   1
   5 -18   0 889.792 143.244  -2
   5  18  -2 889.792 143.244   1
   5 -18  -1 736.096 110.485   1
   5 -18  -1 811.102 139.123  -2
   5  18  -1 811.102 139.123   1
   5 -18   0 57.4777 82.8134   1
   5 -18  -2 160.770 77.4643  -2
   5  18   0 160.770 77.4643   1
   5 -18   1-31.7563 97.6338   1
  -5 -18   3 1293.57 113.001  -2
  -5  18  -1 1293.57 113.001   1
  -5 -18   4 1962.48 123.492  -2
  -5  18  -2 1962.48 123.492   1
   5 -18  -5 6337.57 204.293  -2
   5  18   3 6337.57 204.293   1
   5 -18  -6 4794.39 258.172  -2
   5  18   4 4794.39 258.172   1
   5  18   5 1928.80 167.017   1
   5  18   6 1974.81 157.763   1
   5  18   7 46.5819 214.440   1
  -5  19   9 973.060 57.9033   1
  -5  19   8 530.417 64.7040   1
   5 -19   6 528.941 109.831  -2
   5  19  -8 528.941 109.831   1
  -5  19   7 175.036 63.9621   1
  -5 -19  -4 251.040 120.396  -2
  -5  19   6 251.040 120.396   1
  -5 -19  -3 1467.46 130.102  -2
  -5  19   5 1467.46 130.102   1
  -5 -19  -2 1740.03 116.555  -2
  -5  19   4 1740.03 116.555   1
  -5 -19  -1 5411.45 180.112  -2
  -5  19   3 5411.45 180.112   1
  -5 -19   0 1722.94 122.021  -2
  -5  19   2 1722.94 122.021   1
   5 -19  -1 625.321 92.9340   1
   5 -19  -1 409.919 119.081  -2
   5  19  -1 409.919 119.081   1
   5 -19   0 1976.05 152.308   1
   5 -19  -2 2579.08 214.322  -2
   5  19   0 2579.08 214.322   1
   5 -19   1 21747.7 466.940   1
  -5 -19   3 21449.1 307.652  -2
  -5  19  -1 21449.1 307.652   1
   5 -19  -4 698.434 79.8178  -2
   5  19   2 698.434 79.8178   1
   5 -19  -5 2130.40 133.969  -2
   5  19   3 2130.40 133.969   1
   5 -19  -6 603.426 151.738  -2
   5  19   4 603.426 151.738   1
   5  19   5 2689.64 166.643   1
   5  19   6 168.090 57.4469   1
   5 -19   7 23285.4 292.269   1
  -5  20   8 794.521 59.1912   1
  -5  20   7 835.035 76.1214   1
   5 -20   5 2221.89 168.425  -2
   5  20  -7 2221.89 168.425   1
  -5 -20  -4 491.296 73.4400  -2
  -5  20   6 491.296 73.4400   1
  -5 -20  -3 2694.88 141.089  -2
  -5  20   5 2694.88 141.089   1
  -5 -20  -2 1151.37 97.9790  -2
  -5  20   4 1151.37 97.9790   1
  -5 -20  -1 2578.95 131.241  -2
  -5  20   3 2578.95 131.241   1
  -5 -20   0 267.644 82.2635  -2
  -5  20   2 267.644 82.2635   1
  -5 -20   1 1230.43 90.3891  -2
  -5  20   1 1230.43 90.3891   1
   5 -20   0 554.177 91.6366   1
   5 -20  -2 676.299 141.879  -2
   5  20   0 676.299 141.879   1
   5 -20   1 7.80501 81.0143   1
   5 -20  -3 698.244 108.114  -2
   5  20   1 698.244 108.114   1
   5 -20   2 4216.67 208.425   1
   5 -20  -4 4118.74 137.451  -2
   5  20   2 4118.74 137.451   1
   5 -20   3 5215.62 229.762   1
   5 -20  -5 5464.71 252.801  -2
   5  20   3 5464.71 252.801   1
   5 -20   4 492.027 100.535   1
   5 -20  -6 582.493 139.894  -2
   5  20   4 582.493 139.894   1
   5  20   5 11883.3 200.769   1
   5 -20   6 127.809 50.0834   1
  -5  21   7 1544.15 63.1768   1
  -5  21   6 322.955 73.9422   1
   5 -21   4 991.697 100.290  -2
   5  21  -6 991.697 100.290   1
  -5 -21  -3 4413.93 153.690  -2
  -5  21   5 4413.93 153.690   1
  -5 -21  -2 2808.84 136.743  -2
  -5  21   4 2808.84 136.743   1
  -5 -21  -1 4665.10 152.702  -2
  -5  21   3 4665.10 152.702   1
  -5 -21   0 844.973 78.8535  -2
  -5  21   2 844.973 78.8535   1
   5 -21  -1 165.100 82.5857  -2
   5  21  -1 165.100 82.5857   1
   5 -21  -2 1751.76 165.711  -2
   5  21   0 1751.76 165.711   1
   5 -21   1 4494.83 180.901   1
   5 -21  -3 5415.32 248.014  -2
   5  21   1 5415.32 248.014   1
   5 -21   2 865.545 105.681   1
   5 -21  -4 1446.16 106.083  -2
   5  21   2 1446.16 106.083   1
   5 -21   3 9900.92 264.552   1
   5 -21  -5 9995.99 296.071  -2
   5  21   3 9995.99 296.071   1
   5 -21   4 4718.65 179.622   1
   5 -21  -6 5097.23 200.387  -2
   5  21   4 5097.23 200.387   1
   5 -21   5 1702.47 77.3101   1
   5  22  -7 385.878 73.3606   1
  -5  22   6 1122.20 55.8401   1
  -5 -22  -3 1872.61 96.4639  -2
  -5  22   5 1872.61 96.4639   1
  -5 -22  -2 4949.49 151.740  -2
  -5  22   4 4949.49 151.740   1
  -5 -22  -1 878.571 69.4745  -2
  -5  22   3 878.571 69.4745   1
  -5 -22   0 2667.16 128.166  -2
  -5  22   2 2667.16 128.166   1
  -5 -22   1 6508.08 187.785  -2
  -5  22   1 6508.08 187.785   1
  -5 -22   2 637.630 89.6158  -2
  -5  22   0 637.630 89.6158   1
  -5 -22   3 1736.24 110.578  -2
  -5  22  -1 1736.24 110.578   1
   5 -22   2 4738.24 158.336   1
   5 -22   3-26.3332 52.4459   1
   5 -22  -5 464.693 113.985  -2
   5  22   3 464.693 113.985   1
   5 -22   4 2158.77 104.569   1
   5 -22  -6 2730.69 132.733  -2
   5  22   4 2730.69 132.733   1
   5  23  -6 6180.88 148.313   1
   5 -23   3 1408.39 109.206  -2
   5  23  -5 1408.39 109.206   1
  -5 -23  -2 9631.89 161.298  -2
  -5  23   4 9631.89 161.298   1
  -5 -23  -1 2839.24 106.830  -2
  -5  23   3 2839.24 106.830   1
  -5 -23   0 2063.71 106.303  -2
  -5  23   2 2063.71 106.303   1
  -5 -23   1 123.888 64.0091  -2
  -5  23   1 123.888 64.0091   1
  -5 -23   2 8487.00 183.744  -2
  -5  23   0 8487.00 183.744   1
  -5 -23   3 750.030 109.351  -2
  -5  23  -1 750.030 109.351   1
  -5 -23   4 10691.2 258.457  -2
  -5  23  -2 10691.2 258.457   1
   5 -24   2 8548.35 179.636  -2
   5  24  -4 8548.35 179.636   1
   5 -24   1 1882.97 109.657  -2
   5  24  -3 1882.97 109.657   1
   5 -24   0 12545.3 253.613  -2
   5  24  -2 12545.3 253.613   1
   5 -24  -1 625.180 85.8406  -2
   5  24  -1 625.180 85.8406   1
  -6   0  12 39906.0 402.784   1
   6   0 -10 4423.13 294.159   1
   6   0  -8 583.889 248.282   1
   6   0  -6 48638.2 830.276   1
   6   0  -4 1154.27 91.3589   1
   6   0  -2 476.630 93.3882   1
   6   0   0 12650.0 203.334   1
   6   0   2 359.231 60.9381   1
   6   0   4 784.096 76.6644   1
   6   0   6 1985.33 165.164   1
   6   0   8 7001.59 172.762   1
  -6  -1  12 3072.73 126.531   1
  -6  -1  11 114.568 47.0827   1
   6   1 -10 8024.76 263.253   1
   6  -1  -9 3328.75 253.543   1
   6   1  -8 27770.8 430.121   1
   6  -1  -7 9312.64 331.008   1
   6   1  -6 6162.77 240.076   1
   6  -1  -5 1475.74 138.915   1
   6  -1  -4 2100.29 140.452   1
   6  -1   1 2271.03 187.484  -2
   6   1  -4 2271.03 187.484   1
   6   1  -3 602.051 81.4215   1
   6  -1   0 641.446 147.857  -2
   6   1  -3 641.446 147.857   1
   6  -1  -2 17583.0 295.709   1
   6   1  -1 18961.6 998.588  -2
   6  -1  -2 18961.6 998.588   1
   6  -1  -1 1656.93 101.546   1
   6   1  -2 5419.55 285.018  -2
   6  -1  -1 5419.55 285.018   1
   6  -1   0 425.331 56.9416   1
   6  -1   1 2184.57 70.4569   1
   6  -1   2 680.614 53.0341   1
   6  -1   3 30.5631 43.4034   1
   6  -1   4 6227.80 123.400   1
   6  -1   5 103.035 51.7021   1
   6  -1   6 51.5865 69.2369   1
   6  -1   7 1172.54 86.0602   1
   6  -1   8 114.182 44.2826   1
   6   1   9 6784.12 102.598   1
  -6  -2  12 15054.5 248.876   1
  -6  -2  11 23483.9 304.101   1
   6  -2 -10 8057.14 209.405   1
   6  -2  -9 2128.64 263.224   1
   6  -2  -8 5614.29 235.765   1
   6  -2  -7 2803.19 191.709   1
   6  -2  -6 23673.9 402.688   1
   6  -2  -5 15615.1 326.610   1
   6  -2  -4 405.994 98.1624   1
   6   2   1 454.172 155.840  -2
   6  -2  -4 454.172 155.840   1
   6  -2  -3 10009.6 273.715   1
   6   2   0 11376.3 444.507  -2
   6  -2  -3 11376.3 444.507   1
   6  -2  -2 5785.49 190.044   1
   6  -2  -1 1688.30 72.9696   1
   6  -2   0 2455.44 74.4628   1
   6   2   1 2188.41 73.5122   1
   6  -2   2 213.925 43.6471   1
   6  -2   3 1121.73 72.0778   1
   6  -2   4 1848.27 87.5476   1
   6  -2   5 3705.70 113.470   1
   6  -2   6 257.845 84.2101   1
   6  -2   7 1724.48 97.0960   1
   6  -2   8 10752.1 164.889   1
   6  -2   9 696.407 45.9095   1
  -6   3  12 719.125 50.2525   1
  -6  -3  11 3487.81 90.1642   1
  -6   3  10 1157.39 85.7238   1
  -6   3   9 3532.30 144.366   1
   6   3  -8 955.042 86.5410   1
  -6   3   7 25227.6 311.409   1
  -6   3   6 3858.86 129.740   1
   6   3  -5 126.439 66.2706   1
  -6   3   4 11984.5 232.090   1
   6  -3   1 12008.7 303.786  -2
   6   3  -4 12008.7 303.786   1
  -6   3   3 3361.47 139.240   1
   6  -3   0 3990.81 213.321  -2
   6   3  -3 3990.81 213.321   1
   6   3  -2 1026.76 66.8729   1
   6  -3  -1 11397.7 785.763  -2
   6   3  -2 11397.7 785.763   1
   6  -3  -1 44481.9 261.182   1
   6  -3  -2 44240.4 639.679  -2
   6   3  -1 44240.4 639.679   1
   6   3   0 80.8640 35.5961   1
   6  -3   1 42.1186 34.1918   1
   6   3   2 1911.95 61.8073   1
   6   3   3 8280.78 134.231   1
   6   3   4 1280.70 67.0567   1
   6   3   5 7203.36 150.644   1
   6   3   6 7136.51 141.431   1
   6   3   7 740.215 72.7739   1
   6   3   8 1163.36 57.0808   1
   6  -3   9 6114.85 102.333   1
  -6  -4  12 49.1456 31.6178   1
  -6  -4  11 8802.89 143.110   1
  -6   4  10 186.250 60.2371   1
  -6   4   9 599.768 85.8445   1
  -6   4   8 10763.8 239.118   1
  -6   4   7 6582.26 168.853   1
  -6   4   6 94.1276 64.0897   1
  -6   4   5 9443.38 187.435   1
  -6   4   4 7317.73 185.726   1
   6  -4   1 10733.4 285.502  -2
   6   4  -4 10733.4 285.502   1
  -6   4   3 1915.63 96.5601   1
   6  -4   0 2118.89 177.143  -2
   6   4  -3 2118.89 177.143   1
   6   4  -2 25900.4 254.502   1
   6   4  -1 30356.4 869.553  -2
   6  -4  -2 30356.4 869.553   1
   6   4  -1 21278.6 213.353   1
   6   4  -2 28262.7 382.773  -2
   6  -4  -1 28262.7 382.773   1
   6   4   0 262.901 41.8858   1
   6   4  -3 683.545 160.071  -2
   6  -4   0 683.545 160.071   1
   6   4   1 17364.5 153.019   1
   6   4   2 735.432 47.7284   1
   6   4   3 8762.12 137.619   1
   6   4   4 4161.64 100.115   1
   6   4   5 2226.06 88.8350   1
   6   4   6 2509.35 85.9646   1
   6   4   7 5203.91 134.759   1
   6   4   8 898.370 75.5291   1
   6  -4   9 8342.97 114.311   1
  -6   5  11 664.134 49.3300   1
  -6   5  10 666.174 71.3082   1
  -6   5   9 225.562 70.5491   1
  -6   5   8 2303.28 126.598   1
  -6   5   7 3245.17 123.892   1
  -6   5   6 6518.97 167.460   1
   6  -5  -5 868.042 80.9491   1
  -6   5   4 5470.45 161.676   1
   6  -5   1 5157.16 228.027  -2
   6   5  -4 5157.16 228.027   1
  -6   5   3 21088.2 264.332   1
   6  -5   0 24949.7 610.003  -2
   6   5  -3 24949.7 610.003   1
   6   5  -2 8350.77 150.044   1
   6   5  -1 12810.7 583.737  -2
   6  -5  -2 12810.7 583.737   1
   6   5  -1 17627.6 198.753   1
   6   5  -2 19816.7 307.716  -2
   6  -5  -1 19816.7 307.716   1
   6   5   0 2559.31 72.9914   1
   6  -5  -3 6883.96 213.054  -2
   6   5   0 6883.96 213.054   1
   6   5   1 429.865 42.0156   1
   6  -5   2 647.927 49.1375   1
   6  -5   3 30914.9 244.921   1
   6  -5   4 9406.99 140.304   1
   6   5   5 26847.8 252.065   1
   6   5   6 970.521 61.4177   1
   6   5   7 1812.86 95.3032   1
   6   5   8 3354.23 116.124   1
   6   5   9 4697.33 100.111   1
  -6   6  11 1252.86 55.8034   1
  -6   6  10 341.604 62.4753   1
   6   6  -9 960.476 86.1081   1
  -6   6   8 3168.30 136.540   1
  -6   6   7 7339.04 200.819   1
  -6   6   6 6076.76 159.019   1
   6   6  -5 3722.26 125.109   1
  -6   6   4 10643.4 259.157   1
   6   6   1 14480.0 338.172  -2
   6  -6  -4 14480.0 338.172   1
  -6   6   3 878.165 79.5200   1
   6   6   0 7776.12 464.005  -2
   6  -6  -3 7776.12 464.005   1
   6  -6  -2 4556.96 117.006   1
   6   6  -1 6968.43 196.797  -2
   6  -6  -2 6968.43 196.797   1
   6  -6  -1 10172.1 161.061   1
   6  -6  -2 11110.8 245.510  -2
   6   6  -1 11110.8 245.510   1
   6  -6   0 30724.9 213.146   1
   6   6  -3 31492.0 414.634  -2
   6  -6   0 31492.0 414.634   1
   6  -6   1 17095.0 150.017   1
   6  -6   2 27023.0 201.665   1
   6   6   3 4790.40 103.280   1
   6   6   4 736.988 63.5279   1
   6  -6   5 112.688 48.4200   1
   6  -6   6 10663.6 143.411   1
   6  -6   7 5187.56 134.809   1
   6  -6   8 6658.16 123.131   1
   6  -6   9 4080.89 92.4081   1
  -6   7  11 72.2541 28.4265   1
   6   7 -10 299.091 42.3091   1
  -6   7   9 350.022 70.5162   1
  -6   7   8 752.724 88.6691   1
  -6   7   7 34.4132 72.5050   1
   6   7  -6 624.874 77.4478   1
   6  -7  -5 1345.54 87.2534   1
  -6   7   4 1574.09 142.869   1
   6  -7   1 1569.99 167.552  -2
   6   7  -4 1569.99 167.552   1
   6  -7  -3 4921.09 139.348   1
   6   7   0 7571.10 457.500  -2
   6  -7  -3 7571.10 457.500   1
   6  -7  -2 41498.0 358.253   1
   6   7  -1 45617.4 445.207  -2
   6  -7  -2 45617.4 445.207   1
   6   7  -1 4988.07 121.552   1
   6   7  -2 14869.4 261.035  -2
   6  -7  -1 14869.4 261.035   1
   6  -7   0 13343.4 157.243   1
   6  -7  -3 13015.1 255.039  -2
   6   7   0 13015.1 255.039   1
   6   7   1 602.930 45.1116   1
   6  -7  -4 963.483 177.947  -2
   6   7   1 963.483 177.947   1
   6  -7   2 7413.77 117.234   1
   6   7   3 8300.72 135.491   1
   6   7   4 65387.6 362.288   1
   6   7   5 3634.08 96.0296   1
   6  -7   6 6072.02 124.139   1
   6   7   7-30.5054 46.0961   1
   6  -7   8 1826.34 66.7336   1
   6  -7   9 1111.72 77.8659   1
  -6   8  11 37.9463 53.3793   1
  -6   8  10 2957.05 85.1458   1
  -6   8   9-27.9638 57.2905   1
  -6   8   8 478.022 75.6564   1
   6   8  -7 232.349 74.1957   1
  -6   8   6 6947.20 193.297   1
  -6   8   5 83.8524 73.8434   1
   6   8   2 8326.67 374.529  -2
   6  -8  -5 8326.67 374.529   1
  -6   8   4 8912.67 262.870   1
   6  -8   1 7450.34 631.473  -2
   6   8  -4 7450.34 631.473   1
  -6   8   3 735.358 73.2895   1
   6  -8   0 8676.82 473.733  -2
   6   8  -3 8676.82 473.733   1
   6   8  -2 1028.60 97.1032   1
   6   8  -1 1744.07 121.132  -2
   6  -8  -2 1744.07 121.132   1
   6   8  -1 3520.53 103.737   1
   6   8  -2 3482.05 144.673  -2
   6  -8  -1 3482.05 144.673   1
   6  -8   0 40629.0 285.905   1
   6  -8  -3 40617.8 415.867  -2
   6   8   0 40617.8 415.867   1
   6  -8   1 1252.09 59.4221   1
   6   8  -4 3604.39 164.351  -2
   6  -8   1 3604.39 164.351   1
   6  -8   2 38221.4 255.284   1
   6   8   3 2953.46 93.7543   1
   6   8   4 136.524 46.7860   1
   6  -8   5 1392.20 77.5040   1
   6  -8   6 18787.9 212.166   1
   6   8   7 49.3514 33.9483   1
   6  -8   8 11100.6 170.563   1
   6  -8   9 608.656 55.5752   1
  -6   9  11 760.409 75.0539   1
  -6   9  10 240.438 53.4290   1
  -6   9   9 236.641 70.5482   1
  -6   9   8 368.259 69.4517   1
  -6   9   7 348.798 77.7232   1
  -6   9   6 4831.69 160.651   1
  -6   9   5 11675.7 231.637   1
  -6   9   4 1976.85 143.712   1
  -6   9   3 3518.48 104.290   1
   6   9   0 8378.31 199.779  -2
   6  -9  -3 8378.31 199.779   1
   6  -9  -2 30581.7 300.558   1
   6   9  -1 31991.6 361.039  -2
   6  -9  -2 31991.6 361.039   1
   6  -9  -1 3372.18 118.663   1
   6   9  -2 10279.8 212.308  -2
   6  -9  -1 10279.8 212.308   1
   6  -9   0 22437.6 217.407   1
   6   9  -3 24001.0 303.299  -2
   6  -9   0 24001.0 303.299   1
   6  -9   1 2083.03 66.4148   1
   6   9   2 15648.7 155.542   1
   6   9   3 2200.88 86.4225   1
   6   9   4 33923.0 301.334   1
   6   9   5 6258.34 127.239   1
   6  -9   6 7518.91 131.012   1
   6  -9   7 6901.95 126.052   1
   6  -9   8 3940.20 155.642   1
  -6  10  11 1159.16 80.3806   1
  -6  10  10 3149.89 157.352   1
  -6  10   9 146.922 96.8166   1
  -6  10   8 155.266 70.3279   1
  -6  10   7 2108.41 106.706   1
  -6  10   6 177.080 71.7526   1
  -6  10   5 6216.52 318.981   1
  -6  10   4 21105.8 378.445   1
   6 -10   1 26864.8 490.357  -2
   6  10  -4 26864.8 490.357   1
   6  10  -3 1188.37 71.1773   1
   6 -10   0 2321.71 134.962  -2
   6  10  -3 2321.71 134.962   1
   6 -10  -2 954.855 74.3397   1
   6  10  -1 4012.52 159.204  -2
   6 -10  -2 4012.52 159.204   1
   6 -10  -1 13711.5 244.479   1
   6  10  -2 13649.1 217.026  -2
   6 -10  -1 13649.1 217.026   1
   6  10   0 5937.24 134.314   1
   6  10  -3 5995.65 180.828  -2
   6 -10   0 5995.65 180.828   1
   6  10   1 21232.8 207.539   1
   6  10   2 7136.22 113.939   1
   6 -10   3 10789.8 184.122   1
   6  10   4 742.362 65.9176   1
   6 -10   5 2222.25 79.5542   1
   6 -10   6 6024.88 132.820   1
   6 -10   7 7177.94 154.977   1
   6 -10   8 235.730 60.2402   1
  -6  11  10 230.352 71.2696   1
  -6  11   9 12753.0 325.629   1
  -6  11   8 2635.92 187.338   1
  -6  11   7 5730.52 274.508   1
  -6  11   6 17260.3 481.961   1
  -6  11   5 1150.94 169.812   1
   6 -11   2 903.859 133.256  -2
   6  11  -5 903.859 133.256   1
  -6  11   4 6236.25 177.595   1
   6  11   1 5240.54 171.847  -2
   6 -11  -4 5240.54 171.847   1
  -6  11   3 11907.2 202.606   1
   6  11   0 14525.8 258.347  -2
   6 -11  -3 14525.8 258.347   1
   6  11  -2 82.1690 51.9534   1
   6  11  -1 800.749 97.2817  -2
   6 -11  -2 800.749 97.2817   1
   6 -11  -1 2964.98 107.303   1
   6  11  -2 3094.70 131.835  -2
   6 -11  -1 3094.70 131.835   1
   6 -11   0 16815.5 208.901   1
   6  11   1 579.778 62.9871   1
   6  11   2 1171.75 88.9360   1
   6  11   3 6627.59 160.742   1
   6 -11   4 146.881 63.0163   1
   6  11   5 7790.43 204.656   1
   6 -11   6 134.132 59.7637   1
   6 -11   7 2095.66 86.4905   1
   6 -11   8 17814.7 248.795   1
  -6  12  10 1173.76 96.6744   1
  -6  12   9 5927.09 221.172   1
  -6  12   8 78.2764 96.1976   1
  -6  12   7 6246.33 276.633   1
  -6  12   6 2057.28 191.787   1
  -6  12   5 18321.1 350.714   1
  -6  12   4 4279.67 185.131   1
   6  12  -3 4984.11 136.293   1
   6  12  -2 2019.09 112.883   1
   6 -12  -1 747.220 59.1697   1
   6 -12   0 4988.97 118.411   1
   6 -12   1 10797.0 194.470   1
   6 -12   2 530.805 74.3036   1
   6  12   3 1079.95 108.430   1
   6 -12   4 1402.61 124.075   1
   6 -12   5 288.417 70.5267   1
   6 -12   6 189.492 55.9267   1
   6 -12   7 9636.10 153.744   1
  -6  13  10 6442.55 175.820   1
  -6  13   9 12793.4 220.236   1
  -6  13   8 8304.64 205.637   1
  -6  13   7 4617.88 171.469   1
  -6  13   6 2231.46 135.746   1
  -6  13   5 2347.10 146.168   1
  -6  13   4 7338.41 228.849   1
  -6  13   3 7335.94 190.518   1
   6  13  -2 583.221 81.3698   1
   6  13  -1 4519.98 128.417   1
   6  13   0 1508.75 108.895   1
   6 -13   1 956.534 76.5964   1
   6  13   2 205.642 70.3792   1
   6 -13   3 2944.37 135.060   1
   6  13   4 114.780 69.8213   1
   6 -13   5 2222.87 142.015   1
   6 -13   6 2199.79 92.7783   1
   6 -13   7 64.2245 31.9980   1
  -6  14   9 4010.75 123.014   1
  -6  14   8 1341.78 96.5492   1
  -6  14   7 1435.32 108.133   1
  -6  14   6 6285.70 197.756   1
  -6  14   5 6305.94 205.884   1
  -6  14   4 8321.04 233.779   1
  -6  14   3 426.058 90.9733   1
   6  14  -2 3.50196 62.9564   1
   6  14  -1 23.3795 48.3989   1
   6  14   0 280.464 101.497   1
   6  14   1 1030.10 134.476   1
   6  14   2 1560.26 159.672   1
   6 -14   3 548.805 72.9206   1
   6 -14   4 92.8965 57.5799   1
   6 -14   5 105.662 59.2652   1
   6 -14   6 1257.21 66.0224   1
   6 -14   7 2300.42 97.4644   1
  -6  15   9 2121.74 111.194   1
  -6  15   8 23447.3 291.967   1
  -6  15   7 64.1272 65.7753   1
  -6  15   6 3527.78 150.316   1
  -6  15   5 392.507 84.6728   1
  -6  15   4 6752.80 208.861   1
  -6  15   3 353.074 87.9902   1
   6  15  -2 596.121 77.5109   1
   6 -15  -1 782.676 156.189  -2
   6  15  -2 782.676 156.189   1
   6  15  -1 77.8136 79.3360   1
   6  15   0 521.213 107.246   1
   6  15   1 512.939 109.683   1
   6  15   2 340.909 80.2468   1
   6 -15   3 11.7977 114.234   1
   6 -15   4 1948.14 171.529   1
   6 -15   6 2719.21 134.232   1
  -6  16   9 702.317 66.6054   1
  -6  16   8 2027.10 92.8541   1
  -6  16   7 238.026 65.0384   1
  -6  16   6 4742.47 159.083   1
  -6  16   5 52.1554 72.4487   1
  -6  16   4 10890.7 248.828   1
  -6  16   3 3628.55 157.006   1
  -6  16   2 44.7033 53.2989   1
   6  16  -1 190.557 80.5324   1
   6  16   0 1561.96 125.871   1
   6  16   1 232.474 70.6057   1
   6 -16   2 3524.10 150.002   1
   6 -16   3 742.353 129.497   1
   6 -16   4 108.817 83.0105   1
   6 -16   5 1099.38 105.902   1
  -6  17   8 7801.51 145.444   1
  -6  17   7 3902.37 124.955   1
  -6  17   6 141.574 64.1739   1
  -6  17   5 601.862 83.0685   1
  -6  17   4 7861.57 204.515   1
  -6  17   3 877.426 93.6273   1
  -6  17   2 988.388 99.3745   1
   6 -17  -1 1258.38 118.857   1
   6 -17   0 95.7616 64.8410   1
   6  17   1 924.624 91.0975   1
   6 -17   2 1350.79 98.5726   1
   6 -17   3 272.214 93.2994   1
   6 -17   4 846.937 106.520   1
   6 -17   5 57.0533 57.4713   1
   6  18  -7 63.5816 81.2146   1
   6  18  -6 3392.96 180.857   1
   6  18  -5 7028.58 259.662   1
   6  18  -4 239.329 106.459   1
   6  18  -3 6060.24 252.482   1
   6  18  -2 4303.38 215.606   1
   6 -18  -1 815.369 94.6080   1
   6 -18  -2 1985.07 167.494  -2
   6  18  -1 1985.07 167.494   1
   6 -18   0 3579.47 127.514   1
   6 -18   1 6391.33 165.948   1
   6 -18   2 2130.21 150.732   1
   6 -18   3 861.530 104.406   1
   6 -18   4 2504.28 133.684   1
   6 -18   5 1231.45 84.4968   1
   6  19  -7 983.949 58.1022   1
   6  19  -6 3159.96 105.710   1
   6  19  -5 389.043 99.6186   1
   6  19  -4 3010.46 180.578   1
   6  19  -3 11206.6 313.584   1
   6 -19   0 14179.2 325.013  -2
   6  19  -3 14179.2 325.013   1
   6 -19  -1 869.460 133.490  -2
   6  19  -2 869.460 133.490   1
   6 -19  -2 3601.80 189.776  -2
   6  19  -1 3601.80 189.776   1
   6 -19   0 321.142 57.3023   1
   6  19   1 114.772 51.4385   1
   6 -19   2 51.4395 65.6515   1
   6 -19   3 6761.69 198.718   1
   6 -19   4 153.935 51.3969   1
  -6  20   6 247.543 50.0789   1
  -6  20   5 3839.56 110.398   1
  -6  20   4 1772.48 89.7211   1
   6 -20   1 8923.16 235.451  -2
   6  20  -4 8923.16 235.451   1
  -6  20   3 2001.81 133.002   1
   6 -20   0 2829.26 157.422  -2
   6  20  -3 2829.26 157.422   1
  -6 -20   1 1600.00 100.238  -2
  -6  20   2 1600.00 100.238   1
   6 -20  -2 3207.64 165.380  -2
   6  20  -1 3207.64 165.380   1
   6 -20  -3 2659.88 153.058  -2
   6  20   0 2659.88 153.058   1
   6 -20   1 27301.3 325.843   1
   6 -20   2 3028.97 120.627   1
  -6  20  -3 1502.85 105.090   1
   6  21  -5 1511.69 86.3048   1
  -6  21   4 417.803 63.3493   1
   6 -21   1 608.890 88.9551  -2
   6  21  -4 608.890 88.9551   1
  -6  21   3 6796.46 193.320   1
   6 -21   0 9328.43 219.595  -2
   6  21  -3 9328.43 219.595   1
  -6 -21   1 3192.01 106.198  -2
  -6  21   2 3192.01 106.198   1
   6  21  -1 4298.05 160.673   1
  -6 -21   2 3505.24 166.381  -2
  -6  21   1 3505.24 166.381   1
  -6 -21   3 4077.11 169.418  -2
  -6  21   0 4077.11 169.418   1
  -6  21  -1 450.104 74.0450   1
  -6  21  -2 1958.10 102.897   1
   6  22  -3 399.984 57.4534   1
   6 -22  -1 122.561 65.4380  -2
   6  22  -2 122.561 65.4380   1
  -7   0  10 3039.40 71.1436   1
   7   0  -8 9852.37 96.7448   1
   7   0  -6 3659.71 96.3620   1
   7   0  -4 1074.57 125.263   1
   7   0  -2 24978.7 178.446   1
   7   0   0 7758.42 126.969   1
   7   0   2 1829.25 72.7624   1
   7   0   4 25718.2 128.710   1
   7   0   6 2838.36 54.7065   1
  -7   1  -7 6381.33 208.539  -2
  -7  -1  10 6381.33 208.539   1
   7   1   6 1107.88 111.287  -2
   7  -1  -9 1107.88 111.287   1
   7   1   5 158.915 98.6858  -2
   7  -1  -8 158.915 98.6858   1
   7  -1   4 769.286 122.788  -2
   7   1  -7 769.286 122.788   1
   7   1   3 18977.8 343.002  -2
   7  -1  -6 18977.8 343.002   1
   7  -1   2 1924.03 220.311  -2
   7   1  -5 1924.03 220.311   1
   7  -1   1 3684.02 278.486  -2
   7   1  -4 3684.02 278.486   1
   7   1   0 2669.65 187.838  -2
   7  -1  -3 2669.65 187.838   1
   7   1  -1 300.922 99.5082  -2
   7  -1  -2 300.922 99.5082   1
   7   1  -2 1107.22 140.361  -2
   7  -1  -1 1107.22 140.361   1
   7   1  -3 7119.55 237.857  -2
   7  -1   0 7119.55 237.857   1
   7   1  -4 3562.97 140.214  -2
   7  -1   1 3562.97 140.214   1
   7   1  -5 2738.95 143.618  -2
   7  -1   2 2738.95 143.618   1
   7   1  -6 6373.32 185.666  -2
   7  -1   3 6373.32 185.666   1
   7   1  -7 1774.00 126.160  -2
   7  -1   4 1774.00 126.160   1
   7   1  -8 155.787 46.2530  -2
   7  -1   5 155.787 46.2530   1
   7   1  -9 3644.85 128.063  -2
   7  -1   6 3644.85 128.063   1
   7   1 -10 822.959 51.2249  -2
   7  -1   7 822.959 51.2249   1
  -7   2  -7 1829.67 132.253  -2
  -7  -2  10 1829.67 132.253   1
   7   2   6 1945.69 126.051  -2
   7  -2  -9 1945.69 126.051   1
   7  -2   5 5130.43 167.866  -2
   7   2  -8 5130.43 167.866   1
   7   2   4 13515.9 303.035  -2
   7  -2  -7 13515.9 303.035   1
   7   2   3 4760.97 226.679  -2
   7  -2  -6 4760.97 226.679   1
   7   2   2 553.167 170.072  -2
   7  -2  -5 553.167 170.072   1
   7  -2   1 1342.25 202.393  -2
   7   2  -4 1342.25 202.393   1
   7   2   0 4280.77 217.269  -2
   7  -2  -3 4280.77 217.269   1
   7  -2  -1 11102.1 297.822  -2
   7   2  -2 11102.1 297.822   1
   7   2  -2 10285.8 220.456  -2
   7  -2  -1 10285.8 220.456   1
   7   2  -3 7546.99 206.453  -2
   7  -2   0 7546.99 206.453   1
   7   2  -4 419.196 77.8888  -2
   7  -2   1 419.196 77.8888   1
   7   2  -5 667.533 82.8922  -2
   7  -2   2 667.533 82.8922   1
   7   2  -6 6308.33 188.231  -2
   7  -2   3 6308.33 188.231   1
   7   2  -7 14317.7 304.711  -2
   7  -2   4 14317.7 304.711   1
   7   2  -8 5363.96 190.339  -2
   7  -2   5 5363.96 190.339   1
   7   2  -9 1248.16 84.5800  -2
   7  -2   6 1248.16 84.5800   1
   7  -2 -10 487.873 51.1860  -2
   7   2   7 487.873 51.1860   1
  -7   3  -7 2091.89 92.1112  -2
  -7  -3  10 2091.89 92.1112   1
   7  -3  -9 757.846 131.743   1
   7  -3   6 477.397 100.805  -2
   7   3  -9 477.397 100.805   1
   7  -3   5 1698.20 134.854  -2
   7   3  -8 1698.20 134.854   1
   7   3   4 6095.43 187.249  -2
   7  -3  -7 6095.43 187.249   1
   7  -3   3 3650.57 174.550  -2
   7   3  -6 3650.57 174.550   1
   7  -3   2 9454.18 378.123  -2
   7   3  -5 9454.18 378.123   1
   7  -3   1 1397.45 149.264  -2
   7   3  -4 1397.45 149.264   1
   7   3   0 5098.72 212.949  -2
   7  -3  -3 5098.72 212.949   1
   7   3  -1 2157.28 112.514  -2
   7  -3  -2 2157.28 112.514   1
   7  -3  -2 3955.13 132.419  -2
   7   3  -1 3955.13 132.419   1
   7   3  -3 2149.59 110.331  -2
   7  -3   0 2149.59 110.331   1
   7   3  -4 4807.59 166.178  -2
   7  -3   1 4807.59 166.178   1
   7  -3  -5 3924.25 115.719  -2
   7   3   2 3924.25 115.719   1
   7  -3  -6 10776.7 191.940  -2
   7   3   3 10776.7 191.940   1
   7  -3  -7 1904.68 105.913  -2
   7   3   4 1904.68 105.913   1
   7  -3  -8 1890.97 107.036  -2
   7   3   5 1890.97 107.036   1
   7  -3  -9 269.753 57.3201  -2
   7   3   6 269.753 57.3201   1
   7  -3 -10 2752.74 85.1366  -2
   7   3   7 2752.74 85.1366   1
  -7   4  -7 655.839 62.1253  -2
  -7  -4  10 655.839 62.1253   1
   7   4   6 2513.35 173.902  -2
   7  -4  -9 2513.35 173.902   1
   7   4   5 3444.91 171.661  -2
   7  -4  -8 3444.91 171.661   1
   7  -4   4 10552.0 220.582  -2
   7   4  -7 10552.0 220.582   1
   7   4   3 2653.22 222.608  -2
   7  -4  -6 2653.22 222.608   1
   7  -4   2 550.215 169.945  -2
   7   4  -5 550.215 169.945   1
   7   4   1 8.25602 87.2771  -2
   7  -4  -4 8.25602 87.2771   1
   7   4   0 9078.37 267.016  -2
   7  -4  -3 9078.37 267.016   1
   7   4  -1 7113.97 186.603  -2
   7  -4  -2 7113.97 186.603   1
   7  -4  -2 28962.1 316.876  -2
   7   4  -1 28962.1 316.876   1
   7  -4  -3 2250.67 102.945  -2
   7   4   0 2250.67 102.945   1
   7   4  -4 74.2174 55.4377  -2
   7  -4   1 74.2174 55.4377   1
   7  -4  -5 401.439 54.3914  -2
   7   4   2 401.439 54.3914   1
   7  -4  -6 9789.60 166.323  -2
   7   4   3 9789.60 166.323   1
   7  -4  -7 2913.52 117.037  -2
   7   4   4 2913.52 117.037   1
   7  -4  -8 13932.8 210.559  -2
   7   4   5 13932.8 210.559   1
   7  -4  -9 709.668 85.9956  -2
   7   4   6 709.668 85.9956   1
   7  -4 -10 328.127 52.1440  -2
   7   4   7 328.127 52.1440   1
  -7  -5  10 328.242 57.0674   1
  -7  -5  -7 426.230 72.6371  -2
  -7   5  10 426.230 72.6371   1
   7   5   6 330.581 126.621  -2
   7  -5  -9 330.581 126.621   1
   7   5   5 1782.86 220.352  -2
   7  -5  -8 1782.86 220.352   1
   7   5   4 2652.26 317.154  -2
   7  -5  -7 2652.26 317.154   1
   7  -5   3 1449.21 232.758  -2
   7   5  -6 1449.21 232.758   1
   7  -5   2 12291.5 414.933  -2
   7   5  -5 12291.5 414.933   1
   7  -5   1 4022.30 170.616  -2
   7   5  -4 4022.30 170.616   1
   7  -5   0 1879.64 146.525  -2
   7   5  -3 1879.64 146.525   1
   7  -5  -1 3239.11 135.833  -2
   7   5  -2 3239.11 135.833   1
   7   5  -2 5271.87 145.708  -2
   7  -5  -1 5271.87 145.708   1
   7   5  -3 5194.35 142.247  -2
   7  -5   0 5194.35 142.247   1
   7  -5  -4 7055.26 219.612  -2
   7   5   1 7055.26 219.612   1
   7   5  -5 5194.25 144.942  -2
   7  -5   2 5194.25 144.942   1
   7  -5  -6 3478.06 116.205  -2
   7   5   3 3478.06 116.205   1
   7  -5  -7 1063.72 74.7064  -2
   7   5   4 1063.72 74.7064   1
   7  -5  -8 540.980 82.4827  -2
   7   5   5 540.980 82.4827   1
   7  -5  -9 235.053 58.8253  -2
   7   5   6 235.053 58.8253   1
   7   5 -10 3554.37 157.257  -2
   7  -5   7 3554.37 157.257   1
   7   6   6 1065.88 143.144  -2
   7  -6  -9 1065.88 143.144   1
   7   6   5 2842.03 247.149  -2
   7  -6  -8 2842.03 247.149   1
  -7  -6  -4 4083.10 228.111  -2
  -7   6   7 4083.10 228.111   1
  -7  -6  -3 4618.00 200.512  -2
  -7   6   6 4618.00 200.512   1
  -7  -6  -2 3025.19 132.150  -2
  -7   6   5 3025.19 132.150   1
  -7  -6  -1 2376.14 127.628  -2
  -7   6   4 2376.14 127.628   1
  -7  -6   0 9165.79 206.094  -2
  -7   6   3 9165.79 206.094   1
   7  -6  -1 14766.3 228.080  -2
   7   6  -2 14766.3 228.080   1
  -7  -6   2 13412.7 197.996  -2
  -7   6   1 13412.7 197.996   1
   7   6  -3 4123.60 117.588  -2
   7  -6   0 4123.60 117.588   1
   7  -6  -4 636.748 87.6571  -2
   7   6   1 636.748 87.6571   1
   7   6  -5 893.652 88.7634  -2
   7  -6   2 893.652 88.7634   1
   7  -6  -6 10875.8 182.111  -2
   7   6   3 10875.8 182.111   1
   7  -6  -7 8486.30 177.680  -2
   7   6   4 8486.30 177.680   1
   7  -6  -8 2449.57 109.574  -2
   7   6   5 2449.57 109.574   1
   7   6  -9 1242.70 94.8248  -2
   7  -6   6 1242.70 94.8248   1
   7   6 -10 814.498 83.9582  -2
   7  -6   7 814.498 83.9582   1
  -7   7  -6 1710.00 75.6225  -2
  -7  -7   9 1710.00 75.6225   1
  -7  -7  -5 300.030 83.2922  -2
  -7   7   8 300.030 83.2922   1
  -7  -7  -4 668.050 135.119  -2
  -7   7   7 668.050 135.119   1
  -7  -7  -3 8815.64 174.973  -2
  -7   7   6 8815.64 174.973   1
  -7  -7  -2 3965.30 144.867  -2
  -7   7   5 3965.30 144.867   1
  -7  -7  -1 5212.21 168.296  -2
  -7   7   4 5212.21 168.296   1
   7   7   0 2758.56 125.549  -2
   7  -7  -3 2758.56 125.549   1
  -7  -7   1 1045.11 76.7763  -2
  -7   7   2 1045.11 76.7763   1
  -7  -7   2 322.353 47.0374  -2
  -7   7   1 322.353 47.0374   1
   7   7  -3 8952.39 159.872  -2
   7  -7   0 8952.39 159.872   1
   7  -7  -4 2093.35 116.530  -2
   7   7   1 2093.35 116.530   1
   7  -7  -5 14051.0 331.188  -2
   7   7   2 14051.0 331.188   1
   7   7  -6 4455.99 217.721  -2
   7  -7   3 4455.99 217.721   1
   7  -7  -7 3442.37 167.602  -2
   7   7   4 3442.37 167.602   1
   7   7  -8 355.830 79.7079  -2
   7  -7   5 355.830 79.7079   1
   7   7  -9 3868.48 196.760  -2
   7  -7   6 3868.48 196.760   1
   7   8  -9 334.874 74.9925   1
   7   8   6 1072.55 140.873  -2
   7  -8  -9 1072.55 140.873   1
   7   8   5 7050.76 188.709  -2
   7  -8  -8 7050.76 188.709   1
  -7  -8  -4 2438.09 108.952  -2
  -7   8   7 2438.09 108.952   1
  -7  -8  -3 2923.21 128.454  -2
  -7   8   6 2923.21 128.454   1
  -7  -8  -2 2244.70 108.510  -2
  -7   8   5 2244.70 108.510   1
  -7  -8  -1 1333.85 98.5089  -2
  -7   8   4 1333.85 98.5089   1
   7   8   0 1161.17 93.3031  -2
   7  -8  -3 1161.17 93.3031   1
  -7  -8   1 11165.7 176.683  -2
  -7   8   2 11165.7 176.683   1
  -7  -8   2 2759.36 98.0727  -2
  -7   8   1 2759.36 98.0727   1
   7   8  -3 4836.56 149.337  -2
   7  -8   0 4836.56 149.337   1
   7   8  -4 632.142 90.6907  -2
   7  -8   1 632.142 90.6907   1
   7   8  -5 2790.97 203.479  -2
   7  -8   2 2790.97 203.479   1
   7   8  -6 2033.39 170.330  -2
   7  -8   3 2033.39 170.330   1
   7  -8  -7 10439.5 250.758  -2
   7   8   4 10439.5 250.758   1
   7   8  -8 1706.91 105.374  -2
   7  -8   5 1706.91 105.374   1
   7   8  -9 3891.88 184.377  -2
   7  -8   6 3891.88 184.377   1
   7   9   6 1169.43 130.042  -2
   7  -9  -9 1169.43 130.042   1
  -7  -9  -5 251.543 89.4836  -2
  -7   9   8 251.543 89.4836   1
  -7  -9  -4 151.407 104.085  -2
  -7   9   7 151.407 104.085   1
  -7  -9  -3 1234.40 87.9182  -2
  -7   9   6 1234.40 87.9182   1
  -7  -9  -2 3220.04 117.280  -2
  -7   9   5 3220.04 117.280   1
   7   9   1 6218.80 158.027  -2
   7  -9  -4 6218.80 158.027   1
  -7  -9   0 2708.30 105.672  -2
  -7   9   3 2708.30 105.672   1
  -7  -9   1 358.048 64.9608  -2
  -7   9   2 358.048 64.9608   1
  -7  -9   2 1001.35 69.4980  -2
  -7   9   1 1001.35 69.4980   1
   7  -9  -3 3558.84 130.102  -2
   7   9   0 3558.84 130.102   1
   7   9  -4 3896.32 181.659  -2
   7  -9   1 3896.32 181.659   1
   7  -9  -5 6430.58 271.419  -2
   7   9   2 6430.58 271.419   1
   7   9  -6 4163.15 217.391  -2
   7  -9   3 4163.15 217.391   1
   7  -9  -7 117.261 78.2334  -2
   7   9   4 117.261 78.2334   1
   7   9  -8 619.146 79.5726  -2
   7  -9   5 619.146 79.5726   1
   7   9  -9 2659.09 138.611  -2
   7  -9   6 2659.09 138.611   1
   7  10   6 1478.18 125.365  -2
   7 -10  -9 1478.18 125.365   1
  -7 -10  -5 3474.03 134.718  -2
  -7  10   8 3474.03 134.718   1
  -7 -10  -4 1291.49 152.034  -2
  -7  10   7 1291.49 152.034   1
  -7 -10  -3 5516.52 281.462  -2
  -7  10   6 5516.52 281.462   1
  -7 -10  -2 2064.45 212.229  -2
  -7  10   5 2064.45 212.229   1
  -7 -10  -1 154.345 96.4607  -2
  -7  10   4 154.345 96.4607   1
  -7 -10   0 3466.24 108.707  -2
  -7  10   3 3466.24 108.707   1
  -7 -10   1 5236.45 129.872  -2
  -7  10   2 5236.45 129.872   1
  -7 -10   2 4619.92 141.476  -2
  -7  10   1 4619.92 141.476   1
   7 -10  -3 2612.19 110.676  -2
   7  10   0 2612.19 110.676   1
   7 -10  -4 70.2776 47.0194  -2
   7  10   1 70.2776 47.0194   1
   7 -10  -5 5928.69 220.733  -2
   7  10   2 5928.69 220.733   1
   7 -10  -6 3429.41 196.953  -2
   7  10   3 3429.41 196.953   1
   7  10  -7 3111.97 151.100  -2
   7 -10   4 3111.97 151.100   1
   7  10  -8 7332.00 168.285  -2
   7 -10   5 7332.00 168.285   1
  -7 -11  -5 290.845 68.8855  -2
  -7  11   8 290.845 68.8855   1
  -7 -11  -4 215.966 101.941  -2
  -7  11   7 215.966 101.941   1
  -7 -11  -3 713.231 142.826  -2
  -7  11   6 713.231 142.826   1
  -7 -11  -2 4414.17 272.656  -2
  -7  11   5 4414.17 272.656   1
  -7 -11  -1 2659.99 134.892  -2
  -7  11   4 2659.99 134.892   1
  -7 -11   0 1024.13 103.716  -2
  -7  11   3 1024.13 103.716   1
   7 -11  -1 389.286 85.2225  -2
   7  11  -2 389.286 85.2225   1
  -7 -11   2 357.496 83.8073  -2
  -7  11   1 357.496 83.8073   1
   7 -11  -3 335.112 53.3667  -2
   7  11   0 335.112 53.3667   1
   7 -11  -4 10539.9 258.869  -2
   7  11   1 10539.9 258.869   1
   7 -11  -5 1263.40 125.653  -2
   7  11   2 1263.40 125.653   1
   7 -11  -6 2589.22 159.036  -2
   7  11   3 2589.22 159.036   1
   7  11  -7 631.330 82.0149  -2
   7 -11   4 631.330 82.0149   1
   7  11  -8 1022.70 71.8488  -2
   7 -11   5 1022.70 71.8488   1
   7  12   5 2605.23 180.798  -2
   7 -12  -8 2605.23 180.798   1
  -7 -12  -4 2035.57 145.605  -2
  -7  12   7 2035.57 145.605   1
  -7 -12  -3 1383.66 154.252  -2
  -7  12   6 1383.66 154.252   1
  -7 -12  -2 891.060 154.706  -2
  -7  12   5 891.060 154.706   1
  -7 -12  -1 368.828 94.9018  -2
  -7  12   4 368.828 94.9018   1
  -7 -12   0 2623.24 131.384  -2
  -7  12   3 2623.24 131.384   1
  -7 -12   1 688.925 92.4858  -2
  -7  12   2 688.925 92.4858   1
  -7 -12   2 1580.26 133.078  -2
  -7  12   1 1580.26 133.078   1
   7  12  -3 2417.39 112.943  -2
   7 -12   0 2417.39 112.943   1
   7 -12  -4 598.950 89.3175  -2
   7  12   1 598.950 89.3175   1
   7 -12  -5 338.618 81.7002  -2
   7  12   2 338.618 81.7002   1
   7  12  -6 3514.90 134.586  -2
   7 -12   3 3514.90 134.586   1
   7  12  -7 443.363 76.1339  -2
   7 -12   4 443.363 76.1339   1
   7  12  -8 8981.92 236.977  -2
   7 -12   5 8981.92 236.977   1
  -7 -13  -4 2361.27 138.734  -2
  -7  13   7 2361.27 138.734   1
  -7 -13  -3 2543.59 148.702  -2
  -7  13   6 2543.59 148.702   1
  -7 -13  -2 3441.25 143.447  -2
  -7  13   5 3441.25 143.447   1
  -7 -13  -1 3552.03 153.260  -2
  -7  13   4 3552.03 153.260   1
  -7 -13   0 1483.92 115.011  -2
  -7  13   3 1483.92 115.011   1
  -7 -13   1 172.568 84.6817  -2
  -7  13   2 172.568 84.6817   1
  -7 -13   2 156.734 86.8552  -2
  -7  13   1 156.734 86.8552   1
   7 -13  -3 5157.98 185.703  -2
   7  13   0 5157.98 185.703   1
   7 -13  -4 8674.16 310.589  -2
   7  13   1 8674.16 310.589   1
   7 -13  -5 2399.98 188.403  -2
   7  13   2 2399.98 188.403   1
   7  13  -6 3676.48 234.374  -2
   7 -13   3 3676.48 234.374   1
  -7 -14  -4 1582.87 90.7980  -2
  -7  14   7 1582.87 90.7980   1
  -7 -14  -3 1374.44 106.818  -2
  -7  14   6 1374.44 106.818   1
  -7 -14  -2 623.980 78.5678  -2
  -7  14   5 623.980 78.5678   1
  -7 -14  -1 1469.25 106.177  -2
  -7  14   4 1469.25 106.177   1
  -7 -14   0 4345.11 155.463  -2
  -7  14   3 4345.11 155.463   1
  -7 -14   1 1982.74 129.638  -2
  -7  14   2 1982.74 129.638   1
  -7 -14   2 2732.01 146.586  -2
  -7  14   1 2732.01 146.586   1
  -7 -14   3 1309.29 93.8788  -2
  -7  14   0 1309.29 93.8788   1
   7 -14  -4 1417.76 146.035  -2
   7  14   1 1417.76 146.035   1
   7  14  -5 2188.53 204.640  -2
   7 -14   2 2188.53 204.640   1
   7  14  -6 814.397 127.819  -2
   7 -14   3 814.397 127.819   1
  -7 -15  -3 1453.00 94.5895  -2
  -7  15   6 1453.00 94.5895   1
  -7 -15  -2 2546.58 101.436  -2
  -7  15   5 2546.58 101.436   1
  -7 -15  -1 14414.9 228.930  -2
  -7  15   4 14414.9 228.930   1
  -7 -15   0 1331.85 115.145  -2
  -7  15   3 1331.85 115.145   1
  -7 -15   1 254.820 85.3596  -2
  -7  15   2 254.820 85.3596   1
  -7 -15   2 46.4837 46.2356  -2
  -7  15   1 46.4837 46.2356   1
  -7 -15   3 4557.55 277.029  -2
  -7  15   0 4557.55 277.029   1
  -7 -15   4 3649.57 160.011  -2
  -7  15  -1 3649.57 160.011   1
   7  15  -5 9591.81 303.939  -2
   7 -15   2 9591.81 303.939   1
   7  15  -6 1571.29 130.835  -2
   7 -15   3 1571.29 130.835   1
  -7 -16  -2 91.5260 82.0892  -2
  -7  16   5 91.5260 82.0892   1
  -7 -16  -1 4600.11 147.140  -2
  -7  16   4 4600.11 147.140   1
  -7 -16   0 1667.27 113.440  -2
  -7  16   3 1667.27 113.440   1
  -7 -16   1 7117.40 205.912  -2
  -7  16   2 7117.40 205.912   1
  -7 -16   2 1520.76 116.155  -2
  -7  16   1 1520.76 116.155   1
  -7 -16   3 6721.72 306.036  -2
  -7  16   0 6721.72 306.036   1
  -7 -16   4 1494.39 162.226  -2
  -7  16  -1 1494.39 162.226   1
  -7 -16   5 296.744 100.747  -2
  -7  16  -2 296.744 100.747   1
  -7 -17  -1 9914.50 172.998  -2
  -7  17   4 9914.50 172.998   1
  -7 -17   0 4045.24 136.380  -2
  -7  17   3 4045.24 136.380   1
  -7 -17   1 33.0199 34.6414  -2
  -7  17   2 33.0199 34.6414   1
  -7 -17   2 527.453 77.1784  -2
  -7  17   1 527.453 77.1784   1
  -7 -17   3 3571.62 210.084  -2
  -7  17   0 3571.62 210.084   1
  -7 -17   4 8328.20 281.876  -2
  -7  17  -1 8328.20 281.876   1
  -7 -18   0 9951.21 234.799  -2
  -7  18   3 9951.21 234.799   1
  -7 -18   1 4728.94 129.946  -2
  -7  18   2 4728.94 129.946   1
  -7 -18   2 3408.38 174.362  -2
  -7  18   1 3408.38 174.362   1
  -7 -18   3 1550.49 134.576  -2
  -7  18   0 1550.49 134.576   1
   8   0  -6 972.818 129.026   1
   8   0  -4 1064.39 163.791   1
   8   0   0 8400.32 281.210  -2
   8   0  -4 8400.32 281.210   1
   8   0  -2 929.305 62.2872   1
   8   0   0 27686.2 534.758   1
   8   0   2 34622.1 386.633   1
   8   0   4 2020.80 103.561   1
   8  -1  -7 9.58486 77.2700   1
   8   1  -6 1506.60 102.673   1
   8   1  -5 1138.58 86.7437   1
   8  -1  -4 7.91085 60.8738   1
   8  -1  -3 1027.41 89.7438   1
   8   1  -2 26382.8 539.184   1
   8   1  -1 30506.7 482.647  -2
   8  -1  -2 30506.7 482.647   1
   8  -1  -1 1861.58 191.864   1
   8  -1   0 4989.58 140.821   1
   8   1   1 120.389 59.1314   1
   8   1   2 2147.12 100.589   1
   8  -1   3 3041.37 103.431   1
   8   1   4 30841.2 243.895   1
   8  -2  -7 780.486 103.083   1
   8   2  -6 262.465 74.0977   1
   8  -2  -5 1515.38 75.4109   1
   8  -2  -4 3483.98 124.108   1
   8  -2   0 3472.33 196.992  -2
   8   2  -4 3472.33 196.992   1
   8  -2  -3 12.5379 50.2461   1
   8   2  -2 5045.68 167.483   1
   8   2  -1 6171.57 241.129  -2
   8  -2  -2 6171.57 241.129   1
   8   2  -1 4437.24 176.275   1
   8  -2   0 121.420 70.8941   1
   8   2   1 3525.13 100.933   1
   8   2   2 9409.69 151.021   1
   8   2   3 7684.33 174.160   1
   8  -3  -7 2804.50 147.074   1
   8   3  -6 4224.72 141.776   1
   8  -3  -5 1011.66 82.5137   1
   8  -3  -4 2929.93 115.461   1
   8  -3   0 5474.11 223.901  -2
   8   3  -4 5474.11 223.901   1
   8  -3  -3 7655.64 156.634   1
   8   3  -2 1796.35 142.152   1
   8   3  -1 5886.97 171.969  -2
   8  -3  -2 5886.97 171.969   1
   8   3  -1 17193.3 303.221   1
   8  -3   0 10761.5 225.582   1
   8   3   1 74.8861 58.0712   1
   8   3   2 99.4554 82.3127   1
   8  -3   3 9340.14 252.261   1
   8  -4  -7 1269.52 115.879   1
   8   4  -6 1779.58 101.612   1
   8   4  -5 2913.34 142.694   1
   8  -4  -4 2101.10 102.187   1
   8  -4   0 2487.11 166.468  -2
   8   4  -4 2487.11 166.468   1
   8  -4  -3 4242.05 117.172   1
   8   4  -2 6889.64 209.339   1
   8   4  -1 8867.98 190.558  -2
   8  -4  -2 8867.98 190.558   1
   8   4  -1 2566.19 142.731   1
   8  -4   0 1463.96 102.267   1
   8  -4   1 3697.70 139.557   1
   8  -4   2 77.3454 82.4392   1
   8  -4   3 4553.02 171.083   1
   8  -4   4 71.4855 48.4622   1
   8  -5  -7 7571.73 218.451   1
   8  -5  -6 724.441 154.406   1
   8   5  -5 1951.44 123.672   1
   8   5  -4 1571.71 165.965   1
   8  -5  -3 3697.30 99.1073   1
   8   5  -2 1789.74 128.710   1
   8   5  -1 3008.40 185.945  -2
   8  -5  -2 3008.40 185.945   1
   8   5  -1 4389.41 167.296   1
   8  -5   0 1705.83 90.9020   1
   8  -5   1 531.869 100.457   1
   8   5   2 54.6004 74.3892   1
   8  -5   3 1205.17 94.4152   1
   8  -6  -7 438.409 87.1031   1
   8  -6  -6 9870.94 332.137   1
   8   6  -5 3429.29 150.548   1
   8   6  -4 1951.54 161.142   1
   8   6  -3 3286.69 154.431   1
   8   6  -2 192.541 87.1421   1
   8   6  -1 2030.51 126.799   1
   8   6   0 774.299 92.6055   1
   8  -6   1 100.628 78.8018   1
   8  -6   2 186.032 80.6397   1
   8  -6   3 118.362 51.3360   1
   8  -7  -6 1606.60 171.563   1
   8   7  -4 225.769 87.5325   1
   8   7  -3 712.076 100.465   1
   8   7  -2 4128.70 160.421   1
   8   7  -1 662.561 94.7346   1
   8   7   0 326.899 163.306   1
   8   7   1 151.524 63.7888   1
   8  -7   2 680.467 84.5280   1
   8  -7   3 201.276 51.0393   1
   8  -8  -6 6080.88 241.755   1
   8   8  -4 2847.93 135.392   1
   8   8  -3 2192.91 127.884   1
   8  -8  -2 17.2513 75.0912   1
   8   8  -1 245.312 74.7276   1
   8   8   0 314.160 163.036   1
   8   8   1 25.0197 166.072   1
   8  -8   2 112.307 52.9946   1
   8  -9  -5 147.858 106.782   1
   8  -9  -4 2794.40 195.963   1
   8   9  -3 209.741 81.5428   1
   8   9  -2 2984.80 135.363   1
   8   9  -1 1034.30 188.317   1
   8   9   0 748.078 200.468   1
   8   9   1 651.095 158.689   1
   8 -10  -5 1699.03 136.967   1
   8 -10  -4 198.093 91.6571   1
   8 -10  -3 6062.58 213.351   1
   8  10  -2 2658.62 217.196   1
   8  10  -1 291.060 159.888   1
   8  10   0 1145.67 172.373   1
   8  10   1 670.687 130.488   1
   8  11  -1 1282.70 148.275   1
   8  11   0-44.2870 85.9031   1
   1   0 -14 405.782 67.4603   2
   1   0 -12 194.598 118.381   2
   1   0 -10 3020.15 138.203   2
   1   0  -8 806.214 86.0162   2
  -1   0   6 494.737 105.248   2
   1   0  -4 13207.0 671.753   2
   1   0  -2 23511.6 436.766   2
   1   0   0 383.587 92.3925   2
   1   0   2 12823.3 345.995   2
   1   0   4 5932.55 313.719   2
   1   0   6 2729.90 276.239   2
  -1   0  -8 562.210 72.9864   2
  -1   0 -10 7964.76 211.164   2
   1   0  12 931.087 87.7112   2
  -1   0 -14 1052.57 76.2010   2
   1   1 -15 180.112 59.3554   2
   1   1 -14 59.6500 44.9424   2
   1   1 -13-55.5424 90.2119   2
   1   1 -12 925.989 147.564   2
   1   1 -11 354.547 96.0160   2
   1  -1 -10 663.687 78.9847   2
   1  -1  -9 195.845 63.4501   2
   1  -1  -8 282.313 56.9178   2
  -1  -1   7 197.843 93.1994   2
  -1  -1   6 13993.7 283.102   2
   1   1  -5 1351.98 440.964   2
   1   1  -4 8510.52 520.915   2
   1   1  -2 1784.77 106.108   2
   1   1  -1 10672.3 197.997   2
   1   1   0 14316.8 305.442   2
   1  -1   1 9340.18 276.975   2
   1  -1   2 2146.88 113.693   2
   1  -1   3 33.7348 66.3743   2
   1  -1   4 1241.66 124.818   2
   1  -1   5 1271.86 137.354   2
   1  -1   6 12137.1 382.548   2
  -1   1  -7 44.1625 77.3121   2
  -1  -1  -8 1175.19 71.7539   2
   1   1   9 37.6061 48.3123   2
  -1   1 -10 18.1191 54.3390   2
  -1   1 -11 579.804 59.3588   2
  -1   1 -12 3041.22 99.3692   2
   1  -1  13 69.7150 50.0783   2
   1  -1  14 902.323 61.5546   2
   1   2 -15 429.274 41.7710   2
   1   2 -14 123.100 58.1423   2
   1   2 -13 292.256 110.684   2
   1   2 -12 53.4717 106.870   2
   1  -2 -11 845.551 92.5092   2
   1  -2 -10 1402.89 107.479   2
   1  -2  -9 1309.87 94.6201   2
   1  -2  -8 1354.65 68.1881   2
  -1  -2   7 1530.94 168.754   2
  -1  -2   6 144.608 57.0981   2
  -1   2   5 3507.43 171.282   2
   1   2  -4 7599.76 488.829   2
   1   2  -3 1116.31 198.409   2
   1   2  -2 2287.71 123.247   2
   1   2  -1 2044.42 104.780   2
   1   2   0 110.406 85.2834   2
   1  -2   2 939.167 146.709   2
   1  -2   3 1200.55 109.498   2
   1  -2   4 4218.49 195.812   2
   1  -2   5 3848.83 207.584   2
  -1   2  -6 580.152 110.697   2
  -1   2  -7 1704.16 160.668   2
  -1   2  -8 653.153 62.4681   2
  -1   2  -9 3365.67 114.642   2
  -1   2 -10 3919.24 129.682   2
  -1   2 -11 934.775 73.8199   2
   1   2  12 385.234 63.4583   2
   1   2  13 38.3570 62.3363   2
   1   2  14 531.285 62.2632   2
   1   3 -15 84.2073 26.0421   2
   1   3 -14 19.7704 33.6974   2
   1   3 -13 405.631 78.3317   2
   1   3 -12 32.9350 77.1506   2
   1  -3 -11 3202.83 120.453   2
   1  -3 -10 1000.78 80.2095   2
   1  -3  -9 166.268 49.3322   2
   1   3  -8 105.674 37.1617   2
  -1  -3   7 3624.21 216.143   2
  -1  -3   6 121.670 106.404   2
  -1   3   5 12574.4 236.349   2
   1  -3  -4 5713.04 307.459   2
   1  -3  -3 294.392 118.007   2
   1   3  -2 746.234 63.2865   2
   1  -3  -1 13377.1 216.980   2
   1   3   0 6485.67 151.492   2
   1   3   1 10014.8 206.081   2
   1  -3   2 1442.77 163.474   2
   1  -3   3 783.761 82.1853   2
   1  -3   4 1392.64 104.129   2
   1  -3   5 14224.9 375.756   2
  -1  -3  -6 100.964 78.5108   2
  -1  -3  -7 3612.08 197.486   2
  -1   3  -8 362.134 49.3398   2
  -1   3  -9 582.591 61.6058   2
  -1   3 -10 26.6149 52.8653   2
  -1   3 -11 3269.03 98.7164   2
   1  -3  12 90.4323 48.5865   2
  -1  -3 -13 645.063 51.0756   2
   1  -3  14 174.782 41.9025   2
   1   4 -15 954.254 42.5791   2
  -1  -4  14 3.15383 32.5963   2
   1   4 -13 128.788 70.5914   2
   1   4 -12-61.7838 71.0462   2
   1  -4 -11 2684.92 112.665   2
   1  -4 -10 180.736 58.2673   2
   1  -4  -9 2556.77 90.4425   2
   1  -4  -8 162.598 41.6743   2
  -1  -4   7 575.127 119.310   2
  -1  -4   6 126.564 93.9397   2
   1  -4  -5 14604.0 500.072   2
  -1   4   4 324.985 43.6424   2
   1  -4  -3 2096.06 155.779   2
   1  -4  -2 178.399 52.4620   2
   1  -4  -1 13156.5 147.805   2
   1   4   0 236.311 50.0598   2
   1   4   1 7316.92 150.125   2
   1  -4   2 430.343 142.703   2
   1  -4   3 6703.79 341.700   2
   1  -4   4 68.9287 100.346   2
   1  -4   5 19876.0 366.034   2
  -1  -4  -6 548.758 98.9548   2
  -1  -4  -7 345.979 94.1356   2
  -1   4  -8 94.1322 50.2071   2
  -1   4  -9 5138.03 135.606   2
  -1   4 -10 17.2547 44.2142   2
  -1   4 -11 3860.01 101.486   2
   1  -4  12 125.931 53.1233   2
   1  -4  13-19.9104 40.0911   2
  -1   4 -14 259.891 52.0898   2
   1   5 -15 14.6787 21.6444   2
  -1  -5  14 488.844 41.8173   2
   1   5 -13 1387.29 87.9360   2
   1   5 -12 741.797 96.2938   2
   1  -5 -11 1683.37 93.2455   2
   1  -5 -10 219.517 58.5454   2
   1  -5  -9 103.883 45.9604   2
   1  -5  -8 153.362 44.1034   2
  -1  -5   7 3353.87 156.814   2
  -1  -5   6 119.729 94.5720   2
   1  -5  -5 13727.0 459.378   2
   1  -5  -4 1042.21 147.946   2
   1  -5  -3 443.730 102.040   2
   1   5  -2 959.741 64.7617   2
   1  -5  -1 15181.3 155.871   2
   1  -5   0 5663.99 116.033   2
   1   5   1 17473.6 225.282   2
   1  -5   2 15.6096 91.5648   2
   1  -5   3 56.6089 145.921   2
   1  -5   4 3848.57 311.766   2
   1  -5   5 12417.9 413.278   2
   1  -5   6 1415.45 137.439   2
  -1  -5  -7 5050.32 185.142   2
  -1   5  -8 38.4676 50.3637   2
  -1   5  -9 114.787 53.8274   2
   1   5  10 171.280 46.9546   2
  -1   5 -11 660.789 63.1905   2
  -1   5 -12 162.448 52.9980   2
  -1   5 -13 548.992 52.9312   2
  -1   5 -14 525.243 51.0064   2
   1   6 -15 287.576 52.6137   2
   1   6 -14 1123.73 55.0719   2
   1   6 -13 69.1384 55.9562   2
   1   6 -12-13.6742 70.9897   2
   1  -6 -11 1726.66 92.8462   2
   1  -6 -10 2611.88 99.6976   2
   1  -6  -9 1843.18 79.5790   2
   1  -6  -8 639.812 56.9765   2
  -1  -6   7 8.00628 84.6339   2
  -1  -6   6-134.191 75.8451   2
   1  -6  -5 1279.37 171.905   2
   1  -6  -4 4236.29 227.980   2
   1  -6  -3 7848.99 243.715   2
   1  -6  -2 2825.27 108.102   2
   1   6  -1 590.236 45.7371   2
   1  -6   0-8.02868 38.3613   2
   1  -6   1 1573.81 77.0151   2
   1  -6   2 7582.13 396.540   2
   1  -6   3 8860.58 390.948   2
   1  -6   4 9401.50 497.716   2
   1  -6   5 565.620 162.996   2
   1  -6   6-13.7611 79.6397   2
  -1  -6  -7 30.0498 68.9727   2
  -1   6  -8 1086.49 66.7288   2
  -1   6  -9 1762.20 83.1934   2
  -1   6 -10 2277.14 77.6300   2
  -1  -6 -11 1457.67 74.9572   2
   1  -6  12 10.0741 42.6182   2
   1  -6  13 113.879 36.9510   2
  -1   6 -14 41.8348 37.0475   2
   1   7 -14 412.388 47.9805   2
  -1   7  13 460.991 46.6554   2
   1   7 -12 3937.96 133.812   2
   1  -7 -11-55.5692 52.8033   2
   1  -7 -10 944.258 67.4460   2
   1  -7  -9 1081.85 67.8034   2
   1  -7  -8 1933.96 77.9390   2
  -1  -7   7 1742.40 165.492   2
  -1  -7   6 15174.3 396.788   2
   1  -7  -5 1338.56 168.808   2
   1  -7  -4 1144.87 140.534   2
   1  -7  -3 3109.99 162.463   2
   1  -7  -2 6943.64 181.615   2
   1  -7  -1 571.821 43.3651   2
   1  -7   0 16641.0 169.546   2
   1  -7   1 4908.60 116.263   2
   1  -7   2 4643.15 334.902   2
   1  -7   3 768.923 187.459   2
   1  -7   4 1832.68 218.149   2
   1  -7   5 15.1690 106.265   2
   1  -7   6 11234.8 384.902   2
  -1   7  -7 848.364 58.2311   2
  -1   7  -8 1348.92 72.3998   2
  -1   7  -9 1948.83 70.3165   2
  -1  -7 -10 95.1592 43.2192   2
   1  -7  11 27.0681 46.3317   2
  -1  -7 -12 651.187 54.8181   2
  -1  -7 -13 120.886 37.2155   2
  -1   7 -14 126.592 34.7030   2
   1   8 -14 1042.00 53.7131   2
   1   8 -13 153.083 38.0602   2
   1   8 -12 397.803 68.8313   2
   1  -8 -11 168.459 61.1371   2
   1  -8 -10 6413.37 131.361   2
   1  -8  -9 6.07955 45.7118   2
   1  -8  -8 5535.40 115.913   2
  -1  -8   7 2388.33 124.151   2
  -1  -8   6 1837.66 159.534   2
   1  -8  -5-5.44782 95.0009   2
   1  -8  -4 6238.93 247.212   2
   1  -8  -3 650.450 93.0332   2
   1  -8  -2 2605.98 114.744   2
   1   8  -1 1348.17 73.5932   2
   1  -8   0 1259.47 90.8852   2
   1  -8   1 11569.7 167.174   2
   1  -8   2 1347.25 92.3052   2
   1  -8   3 187.780 199.819   2
   1  -8   4 15447.0 524.346   2
   1  -8   5 485.834 111.183   2
   1  -8   6 2285.11 193.838   2
  -1  -8  -7 896.076 60.9217   2
  -1   8  -8 4173.69 88.3107   2
   1  -8   9 12.5477 40.3093   2
  -1  -8 -10 3772.16 96.3802   2
   1  -8  11 33.6068 44.2635   2
  -1  -8 -12 36.6571 38.6652   2
  -1  -8 -13 309.870 39.2268   2
   1  -8  14 363.553 52.6059   2
  -1  -9  14 282.035 87.4306   2
  -1  -9  13 376.855 45.0066   2
   1   9 -12 2465.73 106.062   2
   1  -9 -11 1577.73 83.3788   2
   1  -9 -10 335.413 52.3459   2
   1  -9  -9-32.5650 43.0205   2
   1  -9  -8 1917.81 76.2836   2
   1  -9  -7 438.021 73.1793   2
  -1  -9   6 9850.55 317.821   2
   1  -9  -5 1443.81 157.497   2
   1  -9  -4 10476.6 302.816   2
   1  -9  -3 291.337 58.7852   2
   1  -9  -2 3782.51 121.442   2
   1  -9   0 18881.3 155.434   2
   1  -9   1 385.928 50.1264   2
   1  -9   2 5067.51 143.260   2
   1  -9   3 28.2647 166.635   2
   1  -9   4 5018.01 220.121   2
   1  -9   5 932.001 55.4561   2
   1  -9   6 1948.24 79.8089   2
  -1  -9  -7 399.105 42.4296   2
  -1  -9  -8 50.5345 38.7509   2
   1  -9   9 854.706 55.8684   2
  -1  -9 -10 74.5522 40.6457   2
  -1  -9 -11 439.383 51.0728   2
  -1  -9 -12 415.449 44.9540   2
  -1  -9 -13 233.278 50.6671   2
   1  -9  14 173.451 43.1364   2
   1  10 -14 472.709 57.5250   2
   1  10 -13 389.158 65.3898   2
   1  10 -12 1617.00 64.4791   2
   1 -10 -11 399.586 59.1186   2
   1 -10 -10 2100.15 71.2599   2
   1 -10  -9 2169.75 83.2496   2
   1 -10  -8 617.457 61.6190   2
  -1 -10   7 1280.10 101.837   2
  -1 -10   6 687.481 112.925   2
  -1 -10   5 2972.25 167.468   2
   1 -10  -4 1448.14 95.4708   2
   1 -10  -3 23664.2 268.380   2
   1 -10  -2 3884.35 93.2126   2
   1 -10  -1 4258.94 176.103   2
   1 -10   0 1357.85 95.9889   2
   1 -10   1 2943.63 95.1033   2
   1  10   2 515.993 58.2610   2
   1  10   3 10603.8 202.742   2
  -1 -10  -4 1517.09 148.088   2
   1 -10   5 1711.69 86.2748   2
  -1 -10  -6 267.086 50.3417   2
  -1 -10  -7-16.7086 36.1739   2
  -1 -10  -8 886.977 53.2030   2
  -1 -10  -9 81.7387 40.5351   2
  -1 -10 -10 494.330 49.5768   2
  -1 -10 -11 315.096 46.2587   2
  -1 -10 -12 200.766 40.0673   2
  -1 -10 -13 34.1171 58.7326   2
   1 -10  14 787.727 54.8791   2
   1  11 -14-57.0587 43.3969   2
  -1 -11  13 2413.68 183.965   2
  -1 -11  12 50.0253 46.7909   2
   1  11 -11 1625.42 86.1721   2
   1 -11 -10 727.716 51.3988   2
   1 -11  -9 29.2476 41.5660   2
  -1 -11   8 333.172 55.8208   2
  -1 -11   7 9947.27 197.979   2
  -1 -11   6 2834.24 109.628   2
  -1 -11   5 9782.17 214.162   2
   1 -11  -4 808.081 77.8630   2
   1 -11  -3 120.044 54.0540   2
   1 -11  -2 1927.23 92.9808   2
   1 -11  -1 6577.79 150.928   2
   1 -11   0 3393.80 103.569   2
   1 -11   1 7796.09 178.092   2
   1 -11   2 187.249 47.3613   2
   1 -11   3 18.9334 49.3784   2
   1  11   4 1513.25 96.9705   2
  -1 -11  -5 375.068 87.3484   2
  -1 -11  -6 171.848 46.0576   2
  -1 -11  -7 2777.28 108.797   2
  -1 -11  -8 250.488 53.9003   2
   1 -11   9-2.57487 51.6208   2
  -1 -11 -10 798.350 61.5700   2
  -1 -11 -11 442.984 49.6460   2
  -1 -11 -12 4.98936 50.2156   2
   1 -11  13 2718.74 184.882   2
   1  12 -14 95.0084 40.0957   2
  -1 -12  13 198.200 111.184   2
  -1 -12  12 246.341 131.098   2
  -1 -12  11 779.028 75.4999   2
   1 -12 -10 27.6759 39.2832   2
  -1 -12   9 9300.58 201.588   2
  -1 -12   8 1787.82 101.447   2
  -1 -12   7 886.813 78.8282   2
  -1 -12   6 1500.51 81.6080   2
  -1 -12   5 1154.48 71.9081   2
   1 -12  -4 1167.05 140.028   2
   1 -12  -3 19352.9 426.968   2
   1 -12  -2 1970.90 149.666   2
  -1 -12   1 307.044 76.6601   2
  -1 -12   0-23.3429 55.1680   2
   1 -12   1 274.209 59.1996   2
   1 -12   2 300.521 103.126   2
   1 -12   3 5470.68 295.866   2
   1 -12   4-120.076 130.168   2
   1 -12   5 331.840 87.8869   2
  -1 -12  -6 149.601 69.2425   2
  -1 -12  -7 209.507 57.1613   2
  -1 -12  -8 33.5535 58.2312   2
  -1 -12  -9 3359.61 110.224   2
   1 -12  10 39.9828 43.0581   2
  -1 -12 -11 615.671 134.472   2
  -1 -12 -12-4.45459 44.5182   2
   1 -12  13 232.346 105.088   2
   1  13 -13 797.443 72.9506   2
  -1 -13  12 319.034 136.119   2
   1 -13 -11 385.493 119.527   2
   1 -13 -10 197.471 64.7666   2
   1 -13  -9 109.134 58.7302   2
  -1 -13   8 1586.36 97.1416   2
  -1 -13   7 8468.61 189.350   2
  -1 -13   6 2865.00 115.644   2
   1 -13  -5 5124.29 149.777   2
  -1 -13   4 529.253 99.3640   2
   1 -13  -3 47.9103 88.6119   2
   1 -13  -2 112.808 82.0284   2
  -1 -13   1 9899.58 276.926   2
   1 -13   0 1617.81 89.0551   2
   1 -13   1 6769.30 173.710   2
   1 -13   2 3256.23 143.226   2
   1 -13   3 362.731 118.861   2
   1 -13   4 3116.99 164.988   2
  -1 -13  -5 909.625 89.6118   2
  -1 -13  -6 676.946 97.9758   2
  -1 -13  -7 3667.02 204.683   2
  -1 -13  -8 1445.25 147.986   2
  -1 -13  -9-1.24791 89.1941   2
  -1 -13 -10 100.952 111.383   2
  -1 -13 -11 6.57788 60.2074   2
  -1 -13 -12 727.985 70.1035   2
   1 -13  13 2233.65 91.7323   2
   1  14 -13 12.7141 49.0873   2
  -1 -14  12 158.682 112.626   2
   1 -14 -11 188.797 113.069   2
   1 -14 -10 364.495 68.5880   2
  -1 -14   9 1155.94 86.9227   2
  -1 -14   8 2811.16 123.614   2
   1 -14  -7 32.5953 59.7577   2
   1 -14  -6 754.470 76.7592   2
   1 -14  -5 1893.10 107.260   2
  -1 -14   4 6921.52 143.253   2
  -1 -14   3 4909.06 165.070   2
   1 -14  -2 17729.1 423.321   2
  -1 -14   1 188.292 83.0960   2
  -1 -14   0 508.243 102.914   2
   1 -14   1 1059.53 84.5225   2
  -1 -14  -2 6253.90 163.248   2
   1 -14   3 4006.91 140.017   2
   1 -14   4 2468.80 123.877   2
  -1 -14  -5 959.637 90.1231   2
  -1 -14  -6 141.425 69.5290   2
  -1 -14  -7 9.99138 70.9491   2
  -1 -14  -8 653.960 96.2857   2
  -1 -14  -9 1159.62 115.242   2
  -1 -14 -10 124.567 77.1893   2
  -1 -14 -11 1292.68 99.5768   2
   1 -14  12-6.46128 63.4344   2
   1 -14  13-29.9753 43.8161   2
  -1 -15  13 70.3398 35.7093   2
   1  15 -12 901.287 79.9290   2
   1 -15 -11 264.482 109.845   2
   1 -15 -10 77.8861 56.9231   2
   1 -15  -9 1244.02 87.1399   2
  -1 -15   8 1160.13 94.2511   2
   1 -15  -7-57.7098 56.2059   2
   1 -15  -6 664.676 85.8879   2
  -1 -15   5 381.397 62.6068   2
  -1 -15   4 3195.73 109.112   2
  -1 -15   3 170.877 70.3968   2
  -1 -15   2 1316.37 99.0636   2
  -1 -15   1 5510.84 207.042   2
  -1 -15   0 1747.81 124.608   2
  -1 -15  -1 363.546 70.2401   2
   1 -15   2 5295.47 129.251   2
   1 -15   3 3645.43 84.4127   2
  -1 -15  -4 692.394 59.9561   2
  -1 -15  -5 1224.26 97.2109   2
  -1 -15  -6 1752.98 119.266   2
  -1 -15  -7-10.1978 73.3938   2
  -1 -15  -8 3535.62 165.264   2
  -1 -15  -9 3.18146 58.4924   2
  -1 -15 -10 173.778 69.4284   2
  -1 -15 -11 161.963 79.8206   2
   1 -15  12 4714.42 179.129   2
   1  16 -12-21.3320 47.1904   2
   1 -16 -11 191.758 113.534   2
   1 -16 -10 333.955 66.7136   2
   1 -16  -9 161.293 68.1767   2
  -1 -16   8 3528.28 131.612   2
   1 -16  -7 64.6989 67.2969   2
   1 -16  -6 66.3671 69.8387   2
  -1 -16   5 594.937 69.6638   2
  -1 -16   4 3544.94 131.113   2
  -1 -16   3 2525.44 135.375   2
  -1 -16   2 6843.80 196.932   2
  -1 -16   1 1671.91 92.5979   2
  -1 -16   0 106.399 54.6134   2
  -1 -16  -1 358.756 52.7947   2
   1 -16   2 8716.51 135.508   2
   1 -16   3 690.891 49.0165   2
   1 -16   4 4836.64 95.5236   2
  -1 -16  -5 980.020 78.1754   2
  -1 -16  -6 622.886 74.0038   2
  -1 -16  -7 191.071 77.0302   2
  -1 -16  -8 3966.96 141.755   2
  -1 -16  -9-43.9062 59.2460   2
  -1 -16 -10 2308.59 141.817   2
   1 -16  11 87.4365 48.9450   2
   1 -16  12 792.562 82.8200   2
  -1 -17  12 820.532 62.3807   2
   1  17 -11 156.576 64.2050   2
   1 -17 -10 133.140 52.6938   2
   1 -17  -9 104.143 65.1877   2
  -1 -17   8 357.422 67.2537   2
   1 -17  -7 947.646 97.1120   2
  -1 -17   6 1772.96 109.341   2
   1 -17  -5 65.7640 58.8371   2
   1 -17  -4 39.9848 57.5516   2
   1 -17  -3 451.119 81.8919   2
  -1 -17   2 1788.68 103.186   2
  -1 -17   1 63.2711 43.6436   2
  -1 -17   0 1166.17 65.2159   2
  -1 -17  -1 3208.04 84.5522   2
  -1 -17  -2 1938.54 77.6681   2
  -1 -17  -3 304.817 47.5658   2
  -1 -17  -4-11.3977 41.9380   2
  -1 -17  -5 145.468 44.8344   2
   1 -17   6 9349.97 155.397   2
  -1 -17  -7 5552.34 187.122   2
  -1 -17  -8 5501.77 164.934   2
  -1 -17  -9-15.4946 55.6685   2
   1 -17  10 97.2506 55.2540   2
   1 -17  11 478.763 52.7025   2
   1 -17  12 2351.38 104.619   2
  -1 -18  12 67.8537 72.8527   2
  -1 -18  11 8.76741 53.1406   2
   1 -18 -10-11.5920 41.7393   2
   1 -18  -9 975.105 93.6417   2
   1 -18  -8 647.946 83.1602   2
   1 -18  -7 428.812 75.0327   2
   1 -18  -6 68.4891 73.6314   2
  -1 -18   5 1697.93 105.996   2
  -1 -18   4 814.870 85.8294   2
  -1 -18   3 7556.85 228.293   2
  -1 -18   2 1331.87 118.902   2
  -1 -18   1 32.8215 43.4049   2
  -1 -18   0 109.468 42.7219   2
  -1 -18  -1 374.684 55.6210   2
  -1 -18  -2 2979.52 87.6335   2
  -1 -18  -3 13521.4 188.334   2
  -1 -18  -4 2984.95 97.3991   2
   1 -18   5 17.4236 51.2878   2
  -1 -18  -6 271.428 62.3178   2
   1 -18   7 1479.66 92.7327   2
   1 -18   8 987.423 90.9521   2
   1 -18   9 3772.80 131.353   2
   1 -18  10 983.038 74.4792   2
   1 -18  11 393.550 72.5553   2
  -1 -19  12 44.5602 55.2035   2
  -1 -19  11 308.876 108.556   2
  -1 -19  10 10.7124 28.4723   2
  -1 -19   9 46.7770 45.1927   2
   1 -19  -8 122.587 72.1683   2
   1 -19  -7 392.102 90.7059   2
   1 -19  -6 7.16025 67.9635   2
  -1 -19   5 214.055 66.7587   2
   1 -19  -4 1012.16 92.8187   2
  -1 -19   3 29.3222 56.3732   2
  -1 -19   2 264.008 57.4543   2
  -1 -19   1 1431.55 75.6451   2
  -1 -19   0 1288.56 77.0091   2
  -1 -19  -1 6150.83 138.375   2
   1 -19   2 49.6506 41.8662   2
   1 -19   3 354.361 51.1335   2
  -1 -19  -4 63.0988 51.4638   2
  -1 -19  -5 2134.25 109.617   2
   1 -19   6 37.9203 54.3475   2
   1 -19   7 11367.4 279.493   2
   1 -19   8 41.0973 74.4201   2
   1 -19   9 551.493 66.1214   2
   1 -19  10-1.74351 45.5513   2
   1 -19  11 496.351 57.0122   2
  -1 -20  11 190.721 86.2407   2
  -1 -20  10 56.8692 111.126   2
  -1 -20   9 1288.80 81.9796   2
   1 -20  -8 168.478 61.6086   2
  -1 -20   7 502.290 80.2732   2
   1 -20  -6 656.082 92.7128   2
  -1 -20   5 412.114 74.9614   2
   1 -20  -4 53.8298 61.7212   2
  -1 -20   3 4274.30 135.982   2
  -1 -20   2 15.3954 50.0379   2
   1 -20  -1 1954.76 101.736   2
   1 -20   0 772.217 70.7561   2
  -1 -20  -1 1947.06 88.7056   2
  -1 -20  -2 2266.04 96.3848   2
  -1 -20  -3 9726.91 142.154   2
   1 -20   4 277.348 52.9546   2
   1 -20   5 3331.99 128.523   2
  -1 -20  -6 136.156 68.8645   2
   1 -20   7 574.869 112.899   2
   1 -20   8 437.389 101.549   2
  -1 -20  -9 2460.84 111.572   2
   1 -20  10 43.9405 48.1948   2
   1 -20  11 121.428 65.7089   2
  -1 -21  11 300.710 75.6680   2
  -1 -21  10 353.330 113.251   2
  -1 -21   9 1105.87 172.731   2
   1 -21  -8-31.6697 56.9272   2
   1 -21  -7 1310.36 98.7915   2
   1 -21  -6-69.3353 74.0089   2
  -1 -21   5 581.385 90.4245   2
  -1 -21   4 109.110 64.8295   2
  -1 -21   3 75.6320 58.4525   2
  -1 -21   2 1260.81 98.4675   2
   1 -21  -1 122.887 58.8010   2
   1 -21   0 431.092 63.4678   2
  -1 -21  -1 1328.27 80.3749   2
  -1 -21  -2 82.1913 52.6923   2
  -1 -21  -3 2990.65 89.8718   2
   1 -21   4 3186.67 100.623   2
   1 -21   5 1282.05 82.5816   2
   1 -21   6 1242.56 92.1298   2
   1 -21   7 4194.81 204.451   2
   1 -21   8 711.538 100.627   2
   1 -21   9 404.958 50.6377   2
   1 -21  10 0.61250 34.8967   2
  -1 -22  10 317.585 99.7799   2
  -1 -22   9 359.593 64.4315   2
  -1 -22   8 2823.99 138.995   2
   1 -22  -7 730.017 123.147   2
   1 -22  -6 65.2802 110.040   2
   1 -22  -5 277.008 121.334   2
  -1 -22   4 2263.01 132.403   2
  -1 -22   3 1145.43 96.6191   2
  -1 -22   2 1454.21 112.700   2
   1 -22  -1 6355.31 162.089   2
   1 -22   0 414.885 70.3464   2
  -1 -22  -1 68.2875 57.0601   2
  -1 -22  -2 4122.33 122.200   2
   1 -22   3 585.097 68.7012   2
   1 -22   4 1826.05 77.4025   2
   1 -22   5 541.958 61.4150   2
   1 -22   6-24.0548 50.7580   2
   1 -22   7 406.609 71.1774   2
   1 -22   8 1453.36 92.1107   2
   1 -22   9 68.0602 42.0609   2
  -1 -23  10 193.261 63.2531   2
  -1 -23   9 1381.05 147.928   2
   1 -23  -8 1711.74 134.496   2
   1 -23  -7 16.3239 92.0795   2
   1 -23  -6 2849.15 195.231   2
  -1 -23   5 147.550 88.1454   2
   1 -23  -4 384.598 82.7975   2
  -1 -23   3 655.240 89.7485   2
  -1 -23   2 1597.42 97.7474   2
   1 -23  -1 373.437 65.4219   2
   1 -23   0 2939.51 117.350   2
  -1 -23  -1 496.059 73.7119   2
  -1 -23  -2 2878.07 116.900   2
   1 -23   3 2723.49 108.651   2
   1 -23   4 11.3766 50.8350   2
  -1 -23  -5 10.1746 72.5684   2
   1 -23   6 988.791 70.9350   2
   1 -23   7-31.7234 47.0328   2
   1 -23   8 766.619 62.1612   2
   1 -23   9-22.2053 57.4263   2
   1 -24  -8 2039.27 119.475   2
   1 -24  -7-61.3148 71.7537   2
   1 -24  -6-68.7038 81.9566   2
  -1 -24   5 74.4929 77.2842   2
  -1 -24   4 5059.95 201.056   2
  -1 -24   3 545.029 81.6521   2
  -1 -24   2 7234.52 200.639   2
  -1 -24   1 410.873 78.7184   2
   1 -24   0 188.868 58.7435   2
  -1 -24  -1 343.584 64.9361   2
  -1 -24  -2 1889.14 95.2024   2
   1 -24   3 296.769 70.0793   2
   1 -24   4 710.632 77.3599   2
  -1 -24  -5 158.538 69.5821   2
  -1 -24  -6 0.50766 58.9940   2
  -1 -24  -7 69.8901 53.0653   2
   1 -24   8 188.426 51.3929   2
   1 -25  -7 2101.22 127.524   2
  -1 -25   6 3328.16 138.693   2
  -1 -25   5 2430.77 133.680   2
  -1 -25   4 609.577 96.1074   2
  -1 -25   3 21.3405 62.5021   2
  -1 -25   2 28.9051 65.0167   2
  -1 -25   1 2399.46 122.607   2
  -1 -25   0 1585.27 103.535   2
  -1 -25  -1 814.875 110.820   2
  -1 -25  -2 569.259 90.7971   2
  -1 -25  -3 114.826 57.3160   2
   1 -25   4 78.7455 73.1528   2
   1 -25   5 37.2789 67.4002   2
   1 -25   6 304.591 97.4763   2
   1 -25   7 52.4804 73.1428   2
  -1 -26   8 459.237 69.6000   2
  -1 -26   7 826.720 61.9612   2
  -1 -26   6 41.9310 52.1435   2
  -1 -26   5 2108.81 116.915   2
  -1 -26   4 2277.28 127.748   2
  -1 -26   3 5877.64 191.173   2
  -1 -26   2 1283.24 94.0580   2
  -1 -26   1 1401.96 95.7284   2
  -1 -26   0 12.5493 60.6664   2
  -1 -26  -1 47.7859 68.9533   2
  -1 -26  -2 500.173 83.5320   2
  -1 -26  -3 472.936 77.2842   2
   1 -26   4 278.479 113.664   2
   1 -26   5 338.749 101.641   2
   1 -26   6 347.887 91.3891   2
  -1 -27   7 2245.71 119.739   2
  -1 -27   6 81.4768 43.0351   2
  -1 -27   5 4570.34 135.560   2
  -1 -27   4 1198.96 90.9586   2
  -1 -27   3-58.7282 58.4044   2
  -1 -27   2 23.6845 53.4349   2
  -1 -27   1 2180.25 102.312   2
  -1 -27   0 93.8286 48.9326   2
  -1 -27  -1 1105.77 77.0614   2
  -1 -27  -2 279.644 65.5696   2
   1 -27   3 261.277 95.8523   2
   1 -27   4 66.9973 85.5563   2
   1 -27   5 136.563 73.1304   2
  -1 -28   5 1382.98 69.9067   2
  -1 -28   4 24.9619 45.8911   2
  -1 -28   3 2544.34 108.690   2
  -1 -28   2 349.675 68.9079   2
  -1 -28   1 1389.54 65.9213   2
   1 -28   0 1521.66 77.4764   2
  -1 -28  -1 1862.40 80.8507   2
  -1 -28  -2 420.734 58.0632   2
   1 -28   3 588.644 90.1841   2
   1 -28   4 32.3121 41.5331   2
   1 -28   5 92.2335 54.1123   2
  -1 -29   4 863.998 78.4406   2
  -1 -29   3 438.544 41.0093   2
   1 -29  -2-13.0949 41.8365   2
   1 -29  -1 2128.18 88.5497   2
   1 -29   0 1501.32 75.8931   2
  -1 -29  -1 296.859 39.5569   2
   1 -29   2 888.028 91.8740   2
   1 -29   4 102.257 46.2137   2
   1 -30  -2 1052.52 74.7014   2
   1 -30  -1 120.738 50.7821   2
   1 -30   0 294.248 59.8298   2
   1 -30   1 2386.98 114.050   2
   2   0 -14 903.843 71.3735   2
   2   0 -12 8502.39 332.588   2
   2   0 -10 612.462 95.1975   2
   2   0  -8 227.463 61.6541   2
   2   0  -6 47933.4 580.973   2
   2   0  -4 206.972 78.5852   2
   2   0  -2 680.649 85.8045   2
   2   0   0 62890.0 657.335   2
   2   0   2 3799.94 212.138   2
   2   0   4 130.941 48.3118   2
   2   0   6 603.106 58.3494   2
   2   0   8 895.574 60.9733   2
   2   0  10 262.271 53.6998   2
   2   0  12 2087.66 74.2504   2
  -2   0 -14 3951.88 142.060   2
   2   1 -15 814.958 77.7715   2
   2   1 -14 1034.79 58.5810   2
   2   1 -13 112.317 63.8236   2
   2   1 -12 195.810 119.624   2
   2   1 -11 399.499 355.995   2
   2   1 -10 10425.7 348.880   2
   2   1  -8 1283.36 317.104   2
   2   1  -7 2278.59 663.186   2
   2   1  -1 13.2365 78.1668   2
   2   1   0 12.7825 127.391   2
   2  -1   8 461.234 228.501   2
  -2  -1 -12 538.005 132.558   2
  -2   1 -13 199.786 94.2284   2
  -2   1 -14 1504.30 96.9411   2
   2   2 -15 280.204 62.2152   2
   2   2 -14 58.0540 54.0798   2
   2   2 -13 881.157 83.0984   2
   2   2 -12 4447.15 251.165   2
   2  -2 -11 7726.94 244.890   2
   2   2 -10 3073.70 185.478   2
   2  -2  -9 416.594 259.465   2
  -2  -2   8 3692.73 313.597   2
   2   2  -2 5729.84 302.446   2
   2   2  -1 4405.56 204.924   2
  -2   2 -12 861.608 106.367   2
  -2  -2 -13 982.941 130.485   2
  -2   2 -14 1220.91 88.4974   2
   2   3 -15 418.179 54.9238   2
   2   3 -14 440.591 51.4009   2
   2   3 -13 78.4703 47.9899   2
   2   3 -12 754.715 103.370   2
   2  -3 -11 2792.29 163.737   2
   2  -3 -10 1662.97 118.623   2
   2  -3  -9 2006.38 220.024   2
  -2  -3   8 517.432 161.503   2
   2  -3  -2 2690.68 217.458   2
   2  -3  -1 22888.8 390.636   2
   2   3   0 22740.4 605.053   2
   2  -3   8 775.138 252.812   2
   2  -3   9 5881.36 581.296   2
  -2  -3 -12 731.687 141.083   2
  -2  -3 -13-27.2193 43.4057   2
  -2   3 -14 589.735 52.1331   2
   2  -4 -15 16.1429 19.9741   2
   2   4 -14 274.867 46.5817   2
   2   4 -13 386.007 77.6248   2
   2   4 -12 63.1579 53.9754   2
   2  -4 -11 2441.39 156.497   2
   2   4 -10 362.329 102.629   2
  -2  -4   9-54.4565 76.8690   2
  -2  -4   8 3961.00 188.357   2
   2   4  -1 38590.1 513.505   2
   2  -4   7 2425.65 391.316   2
   2  -4   8 1381.37 314.687   2
  -2  -4 -11 334.654 142.849   2
  -2  -4 -12 275.660 117.185   2
  -2  -4 -13 458.393 54.6333   2
  -2   4 -14 75.4074 34.9955   2
   2   5 -15 233.257 44.4879   2
   2   5 -14 39.7555 35.2801   2
   2   5 -13 170.203 69.1364   2
   2   5 -12 1014.48 67.3143   2
   2  -5 -11 594.003 87.7672   2
   2  -5 -10 831.153 160.342   2
  -2  -5   9 400.823 94.6132   2
  -2  -5   8 1504.76 135.064   2
   2  -5   8 1097.80 314.291   2
  -2  -5 -12 637.536 131.409   2
   2  -5  13 75.4261 34.6923   2
  -2   5 -14 29.7655 30.0026   2
   2   6 -14 209.701 51.5416   2
   2   6 -13 15.2209 60.3233   2
   2   6 -12 113.796 64.3851   2
   2  -6 -11 143.615 55.8114   2
   2  -6 -10 98.8763 78.3173   2
  -2  -6   9 132.993 77.8242   2
  -2  -6   8 262.096 91.1115   2
   2  -6  -7 2584.34 267.718   2
   2   6  10 542.245 291.412   2
   2  -6  13 111.956 39.1000   2
   2  -6  14 184.268 71.7499   2
   2   7 -14 42.9238 41.0475   2
   2   7 -13 128.619 59.3304   2
   2   7 -12 152.364 65.2873   2
   2   7 -11 527.521 78.9126   2
   2  -7 -10 486.852 116.861   2
  -2  -7   9 304.110 89.4537   2
  -2  -7   8 770.239 220.720   2
   2  -7  -7 763.874 198.678   2
  -2   7 -10 852.438 356.367   2
   2  -7  13 15.7201 34.9517   2
   2  -7  14 18.0772 61.8990   2
   2   8 -14 103.510 61.5324   2
   2   8 -13-7.06897 45.7760   2
   2   8 -12 86.0225 59.7870   2
   2   8 -11 95.5724 67.6857   2
  -2  -8  10 945.890 111.665   2
  -2  -8   9 1251.71 141.395   2
  -2  -8   8 76.2072 79.9457   2
   2  -8   9 2432.63 437.334   2
   2  -8  13-7.28040 28.0381   2
   2   9 -14 271.922 66.5941   2
   2   9 -13 125.748 44.8960   2
   2   9 -12 304.247 61.6597   2
   2   9 -11 9.04342 76.7917   2
  -2  -9  10-71.4284 62.6780   2
  -2  -9   9 658.323 219.051   2
  -2  -9   8 1055.76 247.123   2
  -2  -9 -12 375.115 108.786   2
   2  -9  13 300.014 50.7038   2
   2  10 -14 64.8577 48.4600   2
   2  10 -13 397.435 91.6776   2
   2  10 -12 258.873 58.5351   2
   2  10 -11 246.144 80.4376   2
  -2 -10  10 1055.01 145.395   2
  -2 -10   9 2632.69 259.425   2
  -2 -10   8-109.878 149.937   2
  -2 -10   7 1835.36 327.468   2
  -2 -10 -11 192.655 122.931   2
   2 -10  12 649.058 68.8667   2
  -2 -10 -13 735.111 58.0795   2
   2  11 -14 14.3321 41.9778   2
   2  11 -13 409.156 85.9361   2
  -2 -11  12 129.079 115.556   2
   2  11 -11 144.059 70.8984   2
  -2 -11  10 61.8930 97.7305   2
  -2 -11   9 6572.86 562.271   2
  -2 -11   8 5431.29 487.084   2
  -2 -11   7 2199.82 332.870   2
   2 -11  12 116.578 53.1646   2
   2 -11  13-10.4420 38.1924   2
   2  12 -13 1953.97 124.836   2
   2 -12 -12 2.14414 115.008   2
   2 -12 -11 2109.04 152.153   2
   2 -12 -10 1463.74 129.499   2
  -2 -12   9 268.595 185.193   2
  -2 -12   8 627.583 283.146   2
   2 -12  -4 7185.67 447.105   2
   2 -12   9-166.158 203.175   2
   2 -12  11 1857.72 199.572   2
   2 -12  12 103.919 43.6214   2
   2 -12  13 2458.64 81.6321   2
  -2 -13  13 473.808 57.1267   2
   2  13 -12 44.8053 80.7211   2
   2 -13 -11 855.953 122.543   2
   2 -13 -10 1848.78 198.410   2
  -2 -13   9 4694.14 451.953   2
  -2 -13   8 2016.20 324.443   2
  -2 -13   7 1837.41 314.500   2
  -2 -13 -12 327.351 67.1467   2
   2  14 -13 1169.85 85.0369   2
   2  14 -12 3148.73 159.991   2
   2 -14 -11 830.837 83.5634   2
   2 -14 -10 459.442 104.315   2
  -2 -14   9 515.171 239.690   2
  -2 -14   8 4158.47 458.777   2
  -2 -14 -11 592.959 86.8691   2
  -2 -14 -12 2668.85 105.095   2
  -2 -15  12 119.691 52.0460   2
   2 -15 -11 82.3978 73.8482   2
   2 -15 -10 3311.35 168.588   2
  -2 -15   8 9929.86 677.607   2
  -2 -15 -11 497.460 91.7633   2
   2 -15  12 883.437 108.123   2
  -2 -16  12 1929.20 84.8085   2
   2 -16 -11 50.7407 57.5189   2
   2 -16 -10 659.996 139.810   2
  -2 -16 -11 237.946 86.0421   2
   2 -16  12 3289.23 114.055   2
  -2 -17  12 63.4982 71.4513   2
  -2 -17  11 51.3517 88.9309   2
   2 -17 -10 1284.25 155.048   2
  -2 -18  11 965.230 116.676   2
   2 -18 -10 67.7396 96.3751   2
  -2 -19  11 92.2800 79.5470   2
   2 -19 -10 534.085 110.932   2
  -2 -20  11-72.8529 61.2470   2
   2 -20 -10-7.98054 61.6327   2
  -2 -21  10 80.0638 57.9601   2
  -2 -22  10 264.670 85.2681   2
   2 -23  -9 186.126 62.0699   2
  -2 -24   9 60.1035 66.8055   2
   2 -24   8 558.177 78.2892   2
   2 -25   7 218.569 85.1563   2
   3   0 -14 1096.56 66.2759   2
   3   0 -12 161.782 74.6169   2
   3   0 -10 4449.10 264.318   2
   3   0  -8 1765.77 322.593   2
   3   0  -6 153.209 265.230   2
   3   0  -4 3176.12 121.500   2
   3   0  -2 8768.44 209.799   2
   3   0   0 1645.27 255.596   2
   3   0   2 5583.48 410.903   2
   3   0   4 9232.28 271.041   2
   3   0   6 1348.95 110.772   2
   3   0   8 627.610 99.3511   2
   3   0  10 5227.19 164.119   2
  -3   0 -12 221.990 64.7272   2
   3   1 -15-14.2609 32.5580   2
   3   1 -14 189.667 46.2448   2
   3   1 -13 43.9521 44.5810   2
   3   1 -12 3851.08 129.532   2
   3   1 -11 731.386 78.5051   2
   3   1 -10 1381.57 179.712   2
   3   1  -9 124.904 150.490   2
   3   1  -8 1006.32 168.002   2
   3   1  -7 132.763 93.3301   2
   3   1  -6 21909.6 1076.59   2
   3   1  -5 1193.76 101.419   2
   3   1  -4 3838.54 132.394   2
   3   1  -3 295.583 61.8033   2
   3   1  -2 875.267 94.4652   2
   3   1  -1 3711.26 148.228   2
   3   1   0 12010.4 531.341   2
   3   1   1 3823.21 334.937   2
   3   1   2 1534.62 262.599   2
   3   1   3 264.290 196.978   2
   3   1   4 324.922 93.8815   2
   3  -1   5 478.506 95.0337   2
  -3   1  -6 4765.07 124.080   2
  -3   1  -7-8.05459 53.7659   2
   3  -1   8 744.147 77.7504   2
  -3   1  -9 294.880 56.6761   2
   3  -1  10-17.7252 44.2083   2
  -3   1 -11 45.2521 52.2792   2
  -3   1 -12 347.032 48.3475   2
  -3   1 -13 28.1882 64.6854   2
   3   2 -14 393.911 72.5169   2
   3   2 -13 334.040 51.5409   2
   3   2 -12 73.7051 52.9213   2
   3   2 -11 522.533 85.0049   2
   3  -2 -10 2587.42 138.534   2
   3   2  -9 1031.85 170.131   2
   3   2  -8 1639.63 175.534   2
   3   2  -7 4782.11 148.877   2
   3   2  -6-46.3847 207.270   2
   3   2  -5 410.096 133.352   2
   3   2  -4 2907.79 90.9418   2
   3   2  -3 1234.78 64.3360   2
   3   2  -2 1725.53 86.5797   2
   3  -2  -1 2256.55 96.1758   2
   3   2   0 1791.54 250.339   2
   3   2   1 67.6566 159.365   2
   3   2   2 378.503 192.093   2
   3   2   3 1944.66 307.534   2
   3   2   4 4031.87 185.760   2
   3   2   5 2762.01 185.400   2
  -3  -2  -6 276.544 60.0453   2
  -3   2  -7 135.365 63.4344   2
  -3   2  -8 920.484 82.7135   2
  -3   2  -9 1992.24 92.8956   2
   3   2  10 1688.01 94.0762   2
  -3   2 -11 374.797 68.8509   2
  -3  -2 -12-81.5443 58.6017   2
  -3   2 -13 73.6138 61.6279   2
   3  -3 -14 64.8577 42.2860   2
   3   3 -13 550.257 62.9085   2
   3   3 -12 316.505 52.6141   2
   3   3 -11 4130.42 140.263   2
   3  -3 -10 505.304 72.3717   2
   3   3  -9-85.5034 53.6846   2
   3   3  -8 630.292 77.5557   2
   3  -3  -7 6581.44 147.966   2
   3  -3  -6 743.367 187.679   2
   3  -3  -5 12879.2 320.967   2
   3  -3  -4 1215.04 61.6464   2
   3   3  -3 373.902 44.6587   2
   3  -3  -2 650.284 64.4632   2
   3  -3  -1 8299.03 148.012   2
   3   3   0 3955.87 238.913   2
   3   3   1 4289.97 248.192   2
   3   3   2 1354.25 171.064   2
   3   3   3 1506.21 195.271   2
   3  -3   4 1348.41 113.721   2
   3   3   5 4355.03 151.573   2
  -3  -3  -6-16.8030 46.8956   2
  -3   3  -7 858.288 72.9594   2
   3  -3   8 63.8519 53.7943   2
  -3   3  -9 1218.39 72.0622   2
  -3   3 -10 306.976 64.5111   2
  -3   3 -11 675.805 63.5369   2
  -3  -3 -12-0.11843 47.0697   2
  -3   3 -13 330.090 47.5777   2
   3  -4 -14 115.220 35.9638   2
   3   4 -13 223.987 51.5724   2
   3   4 -12 6.54727 44.3498   2
   3   4 -11 1530.71 91.4917   2
   3  -4 -10 70.9614 56.7446   2
   3   4  -9 2208.91 96.5802   2
   3   4  -8-28.2336 50.8175   2
   3   4  -7 2801.62 100.760   2
   3  -4  -6 990.429 198.620   2
   3  -4  -5 5780.96 222.313   2
   3  -4  -4 118.233 39.1250   2
   3   4  -3 4403.59 93.9795   2
   3  -4  -2 795.167 70.7921   2
   3   4  -1 15600.1 194.502   2
   3  -4   0 311.622 56.6614   2
   3   4   1 1063.17 152.528   2
   3   4   2 230.626 127.800   2
   3   4   3 3418.90 260.037   2
   3   4   4-43.8217 132.907   2
   3  -4   5 8816.59 163.517   2
  -3  -4  -6 80.4989 57.4533   2
   3  -4   7-4.63384 48.1981   2
  -3   4  -8 421.066 61.4752   2
   3   4   9 2959.20 88.5194   2
  -3   4 -10-2.76633 57.0517   2
   3  -4  11 2034.34 74.8555   2
  -3  -4 -12 7.00024 45.5112   2
  -3  -4 -13 18.7214 32.2555   2
   3  -5 -14 199.883 36.7670   2
   3   5 -13 286.455 68.7315   2
   3   5 -12 139.717 78.2278   2
   3   5 -11 1635.76 92.1455   2
   3   5 -10 219.236 55.7411   2
   3   5  -9 18.3749 43.9905   2
   3  -5  -8 92.5456 46.0210   2
   3  -5  -7 5497.32 125.830   2
   3  -5  -6 661.728 69.6219   2
   3  -5  -5 14942.6 411.579   2
   3  -5  -4 2464.67 77.3385   2
   3  -5  -3 79.9949 36.9587   2
   3  -5  -2 82.1216 67.1337   2
   3  -5  -1 12870.6 179.080   2
   3  -5   0 2783.62 96.3793   2
   3   5   1 7833.88 320.329   2
   3   5   2 192.401 124.803   2
   3   5   3-25.5656 122.610   2
   3   5   4-3.06703 135.016   2
   3  -5   5 1922.22 86.0286   2
   3   5   6 110.493 53.6201   2
   3  -5   7 1232.24 90.6596   2
   3  -5   8 544.098 64.7601   2
   3  -5   9 287.776 54.9105   2
  -3   5 -10 38.3758 52.7949   2
   3  -5  11 233.843 50.3765   2
  -3  -5 -12 239.250 49.5659   2
  -3  -5 -13 712.419 43.3079   2
   3  -6 -14 19.9495 34.1423   2
   3   6 -13 21.6349 57.3099   2
   3   6 -12 116.178 59.6069   2
   3   6 -11 169.005 52.8538   2
   3  -6 -10 657.574 63.6617   2
  -3  -6   9 810.381 62.0136   2
   3   6  -8 924.069 61.0457   2
   3   6  -7 52.1707 44.5064   2
   3   6  -6 1317.59 63.1967   2
   3  -6  -5 784.935 155.480   2
   3  -6  -4 3762.19 92.6824   2
   3   6  -3 6562.91 110.317   2
   3  -6  -2 9116.94 223.923   2
   3  -6  -1 1362.77 72.8213   2
   3  -6   0 1957.27 82.0194   2
   3  -6   1-32.4055 101.376   2
   3   6   2 1970.18 192.601   2
   3   6   3 5492.28 308.222   2
   3   6   4 5486.19 339.821   2
  -3  -6  -5 380.599 83.0044   2
  -3  -6  -6 36.0498 74.2137   2
   3  -6   7 64.7765 56.5865   2
   3  -6   8 60.3686 67.5285   2
  -3   6  -9 1146.10 74.7711   2
  -3   6 -10 1690.40 86.8761   2
   3  -6  11 1526.26 72.9465   2
  -3  -6 -12 42.8215 43.8608   2
  -3  -6 -13 21.6249 24.5962   2
   3  -7 -14-5.81657 27.1473   2
   3  -7 -13 64.4946 49.2391   2
   3   7 -12 1101.17 81.6132   2
   3   7 -11 449.295 87.1796   2
   3   7 -10 487.134 76.9360   2
  -3  -7   9 1823.81 76.0428   2
   3   7  -8 933.305 60.0892   2
   3  -7  -7 860.673 86.2283   2
   3  -7  -6 11375.5 148.584   2
   3  -7  -5 1431.65 183.090   2
   3  -7  -4 2236.08 74.9703   2
   3  -7  -3 243.730 40.0697   2
   3   7  -2 1201.77 58.8919   2
   3  -7  -1 1818.69 87.7964   2
   3  -7   0 9363.97 151.917   2
   3   7   1 1362.55 164.293   2
   3   7   2 4652.53 272.197   2
   3   7   3 4125.30 277.065   2
  -3  -7  -4 294.263 77.9593   2
  -3  -7  -5-18.5435 70.1868   2
  -3  -7  -6 3647.60 187.691   2
  -3  -7  -7 681.763 115.774   2
  -3  -7  -8 1870.37 115.456   2
  -3  -7  -9 430.253 64.0183   2
  -3  -7 -10 65.9594 60.2512   2
   3  -7  11 137.920 45.7091   2
  -3  -7 -12 1393.48 66.2640   2
  -3  -7 -13 125.321 45.9769   2
   3   8 -14 292.064 57.4293   2
   3  -8 -13-49.6022 34.1391   2
   3   8 -12 16.1447 51.6526   2
   3   8 -11 318.251 68.7383   2
   3   8 -10 806.602 81.2779   2
  -3  -8   9 49.5836 55.2951   2
   3   8  -8 3385.35 119.672   2
   3  -8  -7 1300.11 92.7630   2
   3   8  -6-2.02695 39.6702   2
   3  -8  -5 208.111 59.4788   2
   3  -8  -4 2098.81 132.391   2
   3  -8  -3 84.4022 35.8828   2
   3   8  -2 5240.31 104.189   2
   3  -8  -1 3213.18 108.924   2
   3   8   0 1590.81 75.3395   2
   3   8   1 532.513 76.0032   2
   3   8   2 1732.19 184.467   2
   3   8   3 624.625 146.105   2
  -3  -8  -4 7468.33 220.584   2
  -3  -8  -5 191.701 86.7692   2
  -3  -8  -6 1990.79 148.678   2
  -3  -8  -7 199.449 93.7972   2
  -3  -8  -8 2478.28 104.884   2
  -3  -8  -9 16.1554 61.9120   2
   3  -8  10 5349.16 125.407   2
   3  -8  11 60.0886 40.9889   2
   3  -8  12 522.294 39.7813   2
  -3  -8 -13-3.74470 44.4697   2
   3   9 -14-18.9338 40.8450   2
   3   9 -13 121.476 47.2524   2
   3  -9 -12 727.849 74.5401   2
   3   9 -11 177.875 62.0655   2
   3   9 -10 990.423 90.4327   2
  -3  -9   9 101.897 48.3484   2
   3  -9  -8 59.1139 50.4167   2
   3  -9  -7 142.529 55.7070   2
   3  -9  -6 2552.59 85.3588   2
   3  -9  -5 374.871 55.2950   2
   3  -9  -4 4075.97 243.575   2
   3   9  -3 400.607 42.2374   2
   3   9  -2 3452.75 85.5798   2
   3   9  -1 231.967 85.7362   2
   3  -9   0 7918.27 140.253   2
   3  -9   1 1110.33 67.8142   2
   3   9   2 1959.10 193.390   2
   3  -9   3 1818.30 113.463   2
   3  -9   4 2070.39 129.079   2
   3   9   5 648.249 174.730   2
   3   9   6 2664.48 284.314   2
  -3  -9  -7 957.590 169.846   2
  -3   9  -8 1583.87 97.3915   2
  -3   9  -9 264.621 76.7060   2
   3  -9  10 411.737 60.1415   2
   3  -9  11 1614.43 72.7885   2
  -3   9 -12 1124.75 55.8130   2
   3  10 -14 122.930 42.4441   2
   3  10 -13 503.048 85.1182   2
   3  10 -12 352.250 63.0287   2
   3  10 -11 72.1923 93.5859   2
   3  10 -10 36.6691 48.4487   2
  -3 -10   9 600.388 63.1979   2
  -3 -10   8 396.927 55.4192   2
   3 -10  -7 84.3284 51.2379   2
   3 -10  -6 584.727 58.2144   2
   3 -10  -5 801.446 54.6162   2
   3 -10  -4 121.898 48.3600   2
   3  10  -3 8539.55 169.147   2
   3  10  -2 2599.34 94.0805   2
   3 -10  -1 3463.42 105.859   2
   3 -10   0 394.902 75.9750   2
   3 -10   1 878.378 77.4635   2
   3  10   2 2472.93 202.385   2
   3  10   3 7200.64 336.857   2
   3 -10   4 3446.19 157.004   2
   3 -10   5 2961.65 162.393   2
   3  10   6 1344.88 211.811   2
   3  10   7-81.7106 72.8667   2
   3 -10   8 993.539 85.9041   2
   3 -10   9 749.918 71.9112   2
   3 -10  10 1875.60 84.9850   2
   3 -10  11 645.270 64.9540   2
   3 -10  12 1161.46 75.3888   2
   3  11 -13 1570.47 110.044   2
   3  11 -12 39.8653 76.2735   2
   3  11 -11 1072.50 82.4016   2
   3 -11 -10 1412.89 85.7955   2
  -3 -11   9 110.042 53.6800   2
  -3 -11   8 47.9043 58.4940   2
   3 -11  -7 1071.55 86.6514   2
   3 -11  -6 1571.41 94.8321   2
   3 -11  -5 1241.38 62.5896   2
   3  11  -4 632.161 49.8217   2
   3 -11  -3-13.8883 61.7185   2
   3  11  -2 1503.31 135.006   2
   3 -11  -1 761.742 99.7608   2
   3 -11   0 600.935 134.416   2
   3  11   1 5921.27 170.214   2
   3 -11   2-4.09152 39.2078   2
   3  11   3 501.732 124.673   2
  -3 -11  -4 220.328 78.4124   2
   3  11   5 1743.59 221.580   2
   3 -11   6 67.4874 73.7411   2
   3 -11   7 7754.58 213.936   2
   3 -11   8 213.005 73.9180   2
   3 -11   9 572.062 63.6640   2
   3 -11  10-9.66711 92.5167   2
   3 -11  11 1177.69 93.3558   2
  -3 -11 -12-11.8189 34.3222   2
   3  12 -13 248.041 59.7415   2
   3 -12 -12 337.219 86.6557   2
  -3 -12  11 153.198 63.7647   2
   3 -12 -10 86.4528 77.8203   2
  -3 -12   9 4147.55 168.299   2
  -3 -12   8 647.047 90.2193   2
   3 -12  -7 336.472 87.2399   2
   3 -12  -6 37.7077 60.6584   2
   3 -12  -5 248.906 45.9417   2
  -3 -12   4 1075.01 61.4792   2
  -3 -12   3 3192.80 99.1960   2
  -3 -12   2 24.9664 54.6421   2
  -3 -12   1 332.725 58.6944   2
  -3 -12   0 1653.87 82.6030   2
   3 -12   1 113.272 59.9512   2
  -3 -12  -2 429.193 69.2061   2
  -3 -12  -3 6382.20 168.336   2
  -3 -12  -4 28.0025 74.4815   2
  -3 -12  -5 3638.24 231.093   2
  -3 -12  -6 556.359 129.670   2
  -3 -12  -7 246.426 73.9332   2
   3 -12   8 79.8381 55.9973   2
   3 -12   9 5965.67 204.939   2
   3 -12  10 137.239 59.4057   2
  -3 -12 -11 2413.51 93.5520   2
  -3 -12 -12 31.8554 28.3245   2
   3  13 -13 1208.32 80.2026   2
   3  13 -12 249.387 76.4124   2
  -3 -13  11 570.276 73.3550   2
   3 -13 -10-1.94266 69.5917   2
   3 -13  -9-5.56478 73.4418   2
  -3 -13   8 63.0510 70.9809   2
   3 -13  -7 2559.88 144.757   2
   3 -13  -6 278.242 68.3713   2
  -3 -13   5 1649.75 72.9338   2
   3 -13  -4 1.83458 44.9490   2
  -3 -13   3 188.278 56.1159   2
  -3 -13   2-45.4148 48.6421   2
  -3 -13   1 919.255 71.2207   2
  -3 -13   0 1972.26 81.4100   2
  -3 -13  -1 6480.74 154.318   2
  -3 -13  -2 1280.18 104.843   2
   3 -13   3 336.797 73.1697   2
  -3 -13  -4 16.1353 58.4597   2
   3 -13   5 354.517 68.0120   2
  -3 -13  -6 4473.66 186.310   2
  -3 -13  -7 7248.45 234.213   2
  -3 -13  -8 1487.75 130.890   2
   3 -13   9 300.646 67.8960   2
  -3 -13 -10 89.6986 53.7365   2
  -3 -13 -11 28.4141 41.9342   2
  -3 -13 -12 223.521 48.8192   2
   3  14 -12 104.462 58.0056   2
  -3 -14  11 633.143 69.8360   2
  -3 -14  10 769.230 78.6359   2
   3 -14  -9 689.695 94.8280   2
  -3 -14   8 2747.76 135.965   2
  -3 -14   7 90.5612 61.1825   2
  -3 -14   6 136.013 59.6915   2
  -3 -14   5 120.629 63.9831   2
  -3 -14   4 3331.49 96.9149   2
  -3 -14   3 2622.58 101.943   2
  -3 -14   2 4064.82 116.926   2
  -3 -14   1 2091.01 121.721   2
  -3 -14   0 636.307 58.6066   2
  -3 -14  -1 1057.56 78.3237   2
  -3 -14  -2 6303.70 162.299   2
  -3 -14  -3 1954.44 117.537   2
  -3 -14  -4 1791.24 119.671   2
   3 -14   5 3427.23 129.556   2
   3 -14   6 33.5741 60.9976   2
  -3 -14  -7 113.465 85.6252   2
  -3 -14  -8 259.238 88.3887   2
  -3 -14  -9 825.285 102.479   2
   3 -14  10 321.133 49.7997   2
  -3 -14 -11 450.596 49.1107   2
   3  15 -12 1299.08 84.5731   2
  -3 -15  11-54.2714 45.9548   2
  -3 -15  10 974.917 79.5577   2
  -3 -15   9 128.075 64.7965   2
  -3 -15   8 492.092 66.0644   2
  -3 -15   7 723.311 79.1591   2
  -3 -15   6 635.366 102.416   2
  -3 -15   5 938.997 89.9869   2
  -3 -15   4 3884.55 118.495   2
  -3 -15   3 530.792 70.1616   2
  -3 -15   2 487.658 66.6106   2
  -3 -15   1 203.073 80.1009   2
  -3 -15   0 1928.86 97.4526   2
  -3 -15  -1 1045.05 80.6933   2
  -3 -15  -2 5353.93 155.836   2
  -3 -15  -3 211.680 58.2061   2
  -3 -15  -4 753.087 92.1700   2
  -3 -15  -5 176.280 60.0385   2
  -3 -15  -6 2186.83 112.737   2
  -3 -15  -7-1.37614 60.4057   2
  -3 -15  -8 2562.53 116.580   2
  -3 -15  -9 136.501 58.0211   2
  -3 -15 -10 118.441 40.6617   2
  -3 -15 -11 14.4256 36.8803   2
  -3 -16  11 287.750 48.0570   2
  -3 -16  10 2474.72 102.900   2
  -3 -16   9 499.536 69.5289   2
  -3 -16   8 6411.21 169.941   2
  -3 -16   7 557.323 104.126   2
  -3 -16   6 312.805 90.8124   2
  -3 -16   5 974.758 90.4454   2
  -3 -16   4 5250.97 142.917   2
  -3 -16   3 1223.25 85.6493   2
  -3 -16   2 6511.00 151.973   2
  -3 -16   1 534.328 85.2541   2
  -3 -16   0 574.929 70.1838   2
  -3 -16  -1 2476.48 99.9192   2
  -3 -16  -2 2172.04 97.6682   2
  -3 -16  -3 175.126 59.1671   2
  -3 -16  -4 1511.48 96.6160   2
   3 -16   5 4.14595 48.6792   2
  -3 -16  -6 704.476 79.7483   2
  -3 -16  -7 123.489 55.5632   2
  -3 -16  -8 729.188 65.4759   2
  -3 -16  -9 70.2021 43.7172   2
  -3 -16 -10 68.9445 46.7380   2
  -3 -17  11 130.688 71.9233   2
  -3 -17  10 191.066 74.8112   2
  -3 -17   9 99.9156 86.6433   2
  -3 -17   8 2560.32 166.903   2
  -3 -17   7 772.490 120.840   2
  -3 -17   6 7152.28 216.230   2
  -3 -17   5 1351.66 95.3056   2
  -3 -17   4 1670.77 93.3711   2
  -3 -17   3 490.486 75.8956   2
  -3 -17   2 147.069 67.5444   2
  -3 -17   1 399.455 85.0636   2
  -3 -17   0 1584.49 94.6082   2
  -3 -17  -1 3875.53 121.653   2
  -3 -17  -2 4775.29 119.171   2
  -3 -17  -3 74.8921 51.2767   2
  -3 -17  -4 571.948 73.2994   2
  -3 -17  -5 43.4265 57.7842   2
  -3 -17  -6 2193.78 95.2326   2
  -3 -17  -7 1343.72 79.7796   2
   3 -17   8 773.597 64.6837   2
  -3 -17  -9 28.6342 38.8963   2
   3 -17  10 66.4831 40.9731   2
  -3 -18  11-14.6570 58.6245   2
  -3 -18  10 908.801 95.8687   2
  -3 -18   9 5990.54 210.463   2
  -3 -18   8 1385.26 133.460   2
  -3 -18   7 2544.84 166.956   2
  -3 -18   6 123.251 84.1905   2
  -3 -18   5 15.7852 58.2380   2
  -3 -18   4 3015.24 111.637   2
  -3 -18   3 15314.6 210.746   2
  -3 -18   2 2718.94 119.150   2
  -3 -18   1 341.414 87.6435   2
  -3 -18   0 82.0150 75.8980   2
  -3 -18  -1 233.076 59.3044   2
  -3 -18  -2 425.559 57.0011   2
  -3 -18  -3 2190.16 95.5994   2
   3 -18   4 515.227 63.3693   2
  -3 -18  -5 724.190 66.9551   2
  -3 -18  -6-3.60791 49.9172   2
  -3 -18  -7-39.6791 44.2638   2
  -3 -18  -8 104.908 44.9199   2
  -3 -18  -9 57.4860 34.6001   2
   3 -18  10 17.0845 49.7111   2
   3 -19 -11 230.829 245.329   2
  -3 -19  10 7.18410 56.2217   2
  -3 -19   9-0.55311 74.6487   2
  -3 -19   8 128.830 87.3427   2
  -3 -19   7 2795.78 170.985   2
  -3 -19   6 73.5290 94.5877   2
  -3 -19   5 5119.77 154.895   2
  -3 -19   4 99.3359 58.8668   2
  -3 -19   3 833.573 74.4261   2
  -3 -19   2 19.7190 57.7256   2
  -3 -19   1 2052.78 128.334   2
  -3 -19   0 1023.09 91.3528   2
  -3 -19  -1 8694.52 176.599   2
  -3 -19  -2 3.58865 46.2161   2
   3 -19   3 830.182 69.2125   2
  -3 -19  -4 822.816 71.8460   2
   3 -19   5 33.4850 47.3082   2
  -3 -19  -6 2.33764 46.0998   2
  -3 -19  -7 1549.29 75.6506   2
   3 -19   8 59.8904 38.6796   2
   3 -19   9 75.5564 58.5441   2
   3 -19  10 44.1100 37.7374   2
  -3 -20  10 48.8596 55.3718   2
  -3 -20   9 4108.38 161.406   2
  -3 -20   8 242.959 86.4039   2
  -3 -20   7 2047.86 147.074   2
  -3 -20   6 21.1738 90.1665   2
  -3 -20   5 2893.98 125.201   2
  -3 -20   4 87.5244 65.9209   2
  -3 -20   3 11785.1 197.641   2
  -3 -20   2 1574.10 109.041   2
  -3 -20   1 2198.04 135.970   2
  -3 -20   0 1211.22 94.8504   2
  -3 -20  -1 1177.74 81.1591   2
  -3 -20  -2 10.8027 67.8823   2
  -3 -20  -3 1733.18 85.5495   2
  -3 -20  -4-51.9695 45.7476   2
   3 -20   5 318.118 51.7239   2
  -3 -20  -6 609.591 57.3823   2
  -3 -20  -7 68.1267 40.0100   2
   3 -20   8 25.2626 39.3980   2
   3 -20   9 67.8844 52.8180   2
   3 -21 -10 125.721 91.9160   2
  -3 -21   9 31.7381 60.4974   2
  -3 -21   8 463.853 91.8868   2
  -3 -21   7 1081.77 115.683   2
  -3 -21   6 475.815 103.478   2
  -3 -21   5 1961.40 238.480   2
  -3 -21   4 3593.88 135.342   2
  -3 -21   3 38.9530 54.8293   2
  -3 -21   2 159.594 60.2721   2
  -3 -21   1 1075.66 89.9906   2
  -3 -21   0 501.678 105.296   2
  -3 -21  -1 759.656 78.7420   2
  -3 -21  -2 2084.36 121.101   2
  -3 -21  -3 248.246 53.9109   2
  -3 -21  -4 69.0684 44.8940   2
  -3 -21  -5 1418.41 71.9175   2
   3 -21   6 83.7806 49.0206   2
   3 -21   7 1766.00 80.0688   2
   3 -21   8 235.744 69.4380   2
  -3 -22   9 143.654 55.3001   2
  -3 -22   8 1936.77 116.318   2
  -3 -22   7 1428.13 116.755   2
  -3 -22   6 162.008 88.2381   2
  -3 -22   5 639.059 170.551   2
  -3 -22   4 1916.94 99.1514   2
   3 -22  -3 580.387 71.8038   2
  -3 -22   2 3495.00 149.976   2
  -3 -22   1 126.600 137.011   2
  -3 -22   0 772.115 85.1479   2
  -3 -22  -1 4369.01 147.634   2
  -3 -22  -2 555.551 69.9137   2
  -3 -22  -3 887.211 73.1360   2
   3 -22   4 853.019 73.0646   2
   3 -22   5 34.5147 46.7293   2
   3 -22   6 345.852 53.0368   2
   3 -22   7 108.802 47.8407   2
   3 -23  -9 115.681 61.8182   2
  -3 -23   8 131.740 60.9857   2
  -3 -23   7 444.414 81.6066   2
  -3 -23   6 465.938 90.7943   2
  -3 -23   5-13.8348 122.010   2
  -3 -23   4 516.391 102.376   2
  -3 -23   3 98.4003 49.7094   2
  -3 -23   2 167.712 59.4527   2
  -3 -23   1 868.502 94.0641   2
  -3 -23   0 2160.38 214.107   2
   3 -23   1 229.885 128.304   2
   3 -23   2 4025.31 242.765   2
  -3 -23  -3 161.523 57.0861   2
  -3 -23  -4 30.9378 58.9946   2
   3 -23   5 1358.03 94.6497   2
   3 -23   6 2401.94 156.519   2
  -3 -24   8 569.371 60.9507   2
  -3 -24   7 407.814 70.6647   2
  -3 -24   6 256.517 72.9177   2
  -3 -24   5 602.338 143.352   2
  -3 -24   4 881.807 152.096   2
  -3 -24   3 34.1050 65.5926   2
  -3 -24   1 586.158 148.310   2
  -3 -24   0 183.281 115.594   2
   3 -24   3 238.405 74.0278   2
   3 -24   4 2183.08 130.133   2
   3 -24   5 363.531 71.2251   2
   3 -24   6 120.502 90.0839   2
   3 -24   7-5.10058 55.3091   2
  -3 -25   7 267.476 52.7006   2
  -3 -25   6 125.016 58.5257   2
  -3 -25   5-0.27674 59.2571   2
  -3 -25   4 10.7661 94.8524   2
   3 -25  -3-47.3492 65.1073   2
   3 -25  -2 150.609 103.725   2
  -3 -25   1 152.667 109.436   2
   3 -25   2 422.832 103.496   2
   3 -25   4 54.0610 97.0828   2
   3 -25   5 277.659 87.5689   2
   3 -25   6 2324.18 138.723   2
  -3 -26   6 211.273 47.6405   2
  -3 -26   5 86.0167 52.5961   2
  -3 -26   4 156.477 92.7931   2
  -3 -26   3 179.991 68.6911   2
  -3 -26   2 378.357 74.7429   2
   3 -26   2 264.858 81.7966   2
   3 -26   3 3031.07 184.003   2
   3 -26   4 745.929 110.428   2
   3 -26   5 2133.54 126.546   2
  -3 -27   5 27.3740 37.9414   2
  -3 -27   4 19.5253 72.4154   2
  -3 -27   3 52.0963 52.0681   2
   3 -27   2 268.079 62.9079   2
   3 -27   4 730.273 80.3158   2
   3 -28  -3 134.950 58.4079   2
   4   0 -14 4.38164 49.9009   2
   4   0 -12 300.134 94.6443   2
   4   0 -10 396.989 106.465   2
   4   0  -8 255.354 99.8058   2
   4   0  -6 10692.3 184.335   2
   4   0  -4 1121.60 111.707   2
   4   0  -2 64341.4 888.516   2
   4   0   0 104927. 1851.06   2
  -4   0  -4 99.6897 73.0270   2
   4   0   6 2310.82 157.705   2
   4   0   8 1338.80 149.350   2
  -4   0 -10 665.436 88.2313   2
  -4   0 -12 262.266 69.9662   2
   4   1 -14-8.44902 28.7840   2
   4   1 -13 55.5603 35.5890   2
   4   1 -12 8.47316 47.4638   2
   4   1 -11 15.1173 56.2496   2
   4   1 -10-4.58190 69.9241   2
   4   1  -9 152.915 77.1325   2
   4   1  -8 74.2481 71.5218   2
   4   1  -7 18.8457 53.9388   2
   4   1  -6 2150.89 73.0486   2
   4   1  -5 1585.96 63.3225   2
   4   1  -4 874.708 102.583   2
   4   1  -3 585.904 85.6642   2
   4   1  -1 1251.95 266.163   2
   4   1   0 24757.0 993.438   2
   4   1   3 1979.40 365.464   2
  -4  -1  -4 25303.2 416.737   2
   4   1   5 2270.09 110.888   2
   4   1   6 138.961 60.8976   2
   4   1   7 576.995 86.2135   2
   4   1   8 995.882 98.0716   2
  -4   1  -9 579.624 66.7174   2
  -4   1 -10 2098.64 85.9048   2
  -4   1 -11 51.7316 39.4670   2
  -4   1 -12 9.36610 62.0711   2
   4   2 -14 20.0900 25.3000   2
   4   2 -13 78.8568 49.4172   2
   4   2 -12 739.466 66.4336   2
   4   2 -11 1561.94 98.2800   2
   4   2 -10 2094.65 117.081   2
   4  -2  -9 308.411 77.1372   2
   4   2  -8 185.061 69.8932   2
   4   2  -7 3198.04 120.664   2
   4   2  -6 5580.37 107.547   2
   4  -2  -5 4132.79 84.8706   2
   4   2  -4 4358.95 174.349   2
   4   2  -3 1289.16 105.800   2
   4   2   0 1269.06 269.105   2
   4   2   3 2587.41 407.829   2
  -4  -2  -4 1323.82 123.612   2
  -4  -2  -5 943.722 115.752   2
   4   2   6 2326.90 118.839   2
   4   2   7 1665.02 110.777   2
  -4   2  -8 348.687 83.3710   2
  -4   2  -9 1818.41 104.612   2
  -4   2 -10 991.255 79.3435   2
  -4   2 -11 27.7219 44.9016   2
  -4  -2 -12 159.105 43.1294   2
   4  -3 -14 11.5776 24.5120   2
   4  -3 -13 199.175 43.7881   2
   4  -3 -12 124.392 41.2156   2
   4   3 -11 1090.16 76.5694   2
   4  -3 -10-1.87835 64.6283   2
   4   3  -9 364.341 71.3182   2
   4  -3  -8 891.098 80.5767   2
   4  -3  -7 1043.48 76.1960   2
   4  -3  -6 5572.19 114.542   2
   4  -3  -5 4050.84 67.1961   2
   4   3  -4 2647.10 86.7322   2
   4   3  -3 5406.56 132.194   2
   4   3  -2 4004.52 296.827   2
   4   3  -1 32645.9 1048.78   2
  -4  -3  -3 6577.78 208.117   2
  -4  -3  -4 922.856 107.069   2
  -4  -3  -5 7927.74 194.976   2
   4  -3   6 478.783 87.0268   2
   4  -3   7 222.791 63.2434   2
   4  -3   8 4741.79 140.766   2
  -4   3  -9 864.242 76.3426   2
  -4   3 -10 252.015 52.9510   2
  -4  -3 -11 1167.08 69.7102   2
  -4  -3 -12 254.706 37.5433   2
   4  -4 -14 26.6018 24.2587   2
   4  -4 -13 514.252 50.9081   2
   4   4 -12-32.0428 47.3239   2
   4  -4 -11 3175.25 172.245   2
   4   4 -10 562.397 79.1656   2
   4  -4  -9 256.195 62.5452   2
   4   4  -8 475.806 62.3990   2
   4  -4  -7 3230.77 92.5305   2
   4  -4  -6 425.033 43.9356   2
   4  -4  -5 7165.18 86.5727   2
   4  -4  -4 5759.53 82.7918   2
   4   4  -3 686.228 76.1441   2
   4   4  -2 344.363 176.657   2
   4   4  -1 17840.5 780.195   2
   4  -4   2 225.609 111.235   2
  -4  -4  -3 303.378 88.4874   2
  -4  -4  -4 1905.17 134.968   2
  -4  -4  -5 1529.52 106.328   2
   4  -4   6 197.243 82.8088   2
   4  -4   7 922.852 112.044   2
   4   4   8 1834.89 119.401   2
  -4  -4  -9 1193.79 80.1061   2
  -4  -4 -10 194.578 59.5092   2
  -4  -4 -11 107.353 47.4710   2
  -4  -4 -12 99.6452 33.6411   2
   4   5 -14 102.039 30.7455   2
   4  -5 -13 291.555 53.5902   2
   4  -5 -12 366.674 69.7608   2
   4  -5 -11 247.378 64.1602   2
   4   5 -10 2735.99 106.821   2
   4   5  -9 2395.39 90.5014   2
   4  -5  -8 603.790 61.3883   2
   4  -5  -7 5806.66 138.446   2
   4  -5  -6 2589.08 72.6573   2
   4  -5  -5 710.377 37.9301   2
   4  -5  -4 4011.30 75.7689   2
   4  -5  -3 799.995 99.6912   2
   4   5  -2 710.187 173.278   2
   4   5   0 3586.29 382.083   2
   4   5   2 1371.89 340.964   2
  -4  -5  -3 1281.03 115.908   2
  -4  -5  -4 637.158 100.353   2
  -4  -5  -5 1452.11 112.494   2
   4  -5   6 829.635 104.001   2
   4  -5   7 543.058 104.082   2
  -4  -5  -8 1781.39 122.154   2
  -4  -5  -9 4972.65 129.038   2
  -4  -5 -10 1618.63 89.7638   2
  -4  -5 -11 1275.87 69.0681   2
  -4  -5 -12 386.739 34.0751   2
   4  -6 -13 1169.86 70.5518   2
   4  -6 -12 3439.40 109.028   2
   4  -6 -11 3711.98 129.729   2
   4  -6 -10 26.8556 51.7336   2
   4  -6  -9 340.577 56.9420   2
   4  -6  -8 364.485 61.4652   2
   4  -6  -7 2677.38 83.0314   2
   4  -6  -6 8636.56 130.263   2
   4  -6  -5 5843.74 92.2532   2
   4   6  -4 8.97393 32.9515   2
   4  -6  -3 1254.19 70.2623   2
   4   6  -1 160.904 123.853   2
  -4  -6  -3 269.384 89.0026   2
  -4  -6  -4 145.473 90.8025   2
  -4  -6  -5 238.509 75.9227   2
   4  -6   6 221.264 83.9816   2
   4  -6   7 334.671 91.6855   2
  -4  -6  -8 3182.79 154.916   2
  -4  -6  -9 39.0592 54.7746   2
  -4  -6 -10 109.156 58.4100   2
  -4  -6 -11 214.786 48.2265   2
  -4  -6 -12 399.731 34.0802   2
   4  -7 -13 17.5420 31.0021   2
   4  -7 -12 133.206 47.9826   2
   4  -7 -11 152.278 56.5665   2
   4  -7 -10 5745.77 125.703   2
  -4  -7   9 886.589 60.4880   2
   4  -7  -8 6752.21 122.547   2
   4  -7  -7 80.1678 42.5408   2
   4  -7  -6 146.460 40.6038   2
   4  -7  -5 1732.72 77.5375   2
   4   7  -4 1228.25 57.5685   2
   4  -7  -3 36.2692 62.8655   2
   4  -7  -2 623.264 136.000   2
   4  -7   1 1360.08 126.520   2
   4   7   2 978.579 83.0763   2
  -4  -7  -3 337.443 91.4543   2
   4   7   4 661.653 105.935   2
   4  -7   5 35.7625 69.1122   2
   4  -7   6 94.9562 85.9126   2
   4  -7   7 49.8823 76.8676   2
  -4  -7  -8 218.724 99.1505   2
  -4  -7  -9 1776.67 86.1452   2
  -4  -7 -10 3971.74 115.569   2
  -4  -7 -11 481.138 49.3344   2
  -4  -7 -12 600.934 77.1624   2
   4   8 -13 25.2963 34.9748   2
   4  -8 -12 4085.69 104.594   2
   4  -8 -11 39.1531 46.5645   2
   4  -8 -10 5015.91 146.559   2
  -4  -8   9 104.991 49.2076   2
   4  -8  -8 552.531 61.4521   2
   4  -8  -7 697.321 52.2910   2
   4  -8  -6 8988.14 119.493   2
   4  -8  -5 62.2479 66.8209   2
   4  -8  -4 1203.42 74.1613   2
   4   8  -3 1932.26 108.998   2
   4   8  -2-28.4231 146.756   2
   4   8   0-55.4289 88.6349   2
   4   8   1 702.764 117.829   2
   4   8   2 43.9859 61.4494   2
  -4  -8  -3 467.250 108.236   2
  -4  -8  -4-102.215 63.6007   2
  -4  -8  -5 702.017 91.6010   2
  -4  -8  -6 1072.56 107.688   2
   4  -8   7 71.8123 76.2093   2
  -4  -8  -8 1979.75 100.792   2
   4  -8   9 4.05793 47.6298   2
   4  -8  10 108.190 45.6778   2
  -4  -8 -11 605.592 47.4832   2
  -4  -8 -12 1237.84 87.2288   2
   4   9 -13 286.289 63.5572   2
   4   9 -12 12.9651 48.5088   2
   4  -9 -11 422.478 54.6956   2
   4  -9 -10 1823.94 93.1434   2
   4  -9  -9 1766.01 92.5450   2
   4  -9  -8 1977.18 83.8698   2
   4  -9  -7 5213.86 121.128   2
   4  -9  -6 112.129 41.6381   2
   4  -9  -5 15.2127 50.3093   2
   4  -9  -4 3212.71 125.909   2
   4   9  -3-30.3774 50.6516   2
   4   9  -2 864.603 83.8329   2
   4   9   0 958.811 136.743   2
   4   9   1 531.174 105.964   2
   4   9   2 1484.61 142.913   2
  -4  -9  -3 75.5226 83.5877   2
  -4  -9  -4 843.636 110.308   2
  -4  -9  -5 213.348 75.9083   2
  -4  -9  -6 3560.44 157.482   2
  -4  -9  -7 560.899 84.2062   2
  -4  -9  -8 57.3324 56.8528   2
  -4  -9  -9 850.591 62.7769   2
  -4  -9 -10 1685.04 64.7998   2
  -4  -9 -11 138.614 75.7424   2
   4  10 -13 736.385 73.6776   2
   4  10 -12 699.006 63.4295   2
   4  10 -11 1296.99 88.8059   2
   4 -10 -10 417.998 56.4715   2
   4 -10  -9 37.3824 50.0872   2
   4 -10  -8 3293.26 98.8887   2
   4 -10  -7 35.2286 44.0697   2
   4  10  -6 1202.92 60.8655   2
   4 -10  -5 3554.80 98.8260   2
   4 -10  -4 559.621 54.9882   2
   4  10  -3 4810.71 137.312   2
   4  10  -2 5743.30 168.164   2
  -4 -10   1 101.320 133.876   2
  -4 -10   0 2014.06 206.732   2
  -4 -10  -1 2229.91 133.640   2
  -4 -10  -3 254.907 104.898   2
  -4 -10  -4-5.52740 84.9124   2
  -4 -10  -5 3133.03 141.948   2
  -4 -10  -6-15.4734 74.7321   2
   4 -10   7 1232.91 119.797   2
  -4 -10  -8 859.251 68.5270   2
  -4 -10  -9 45.2336 44.1623   2
  -4 -10 -10 2364.51 82.8225   2
  -4 -10 -11 904.119 97.0509   2
   4  11 -13 414.162 56.3877   2
   4  11 -12 205.576 70.6539   2
   4  11 -11 89.6860 49.1085   2
   4  11 -10 266.947 57.1060   2
   4 -11  -9 3493.79 110.906   2
   4 -11  -8 65.3795 47.5385   2
   4 -11  -7 2945.09 97.6809   2
   4 -11  -6 2971.79 96.3684   2
   4 -11  -5 55.9173 44.0936   2
   4 -11  -4 1471.51 73.4855   2
  -4 -11   3 3466.65 106.321   2
   4 -11  -2 977.401 98.1313   2
  -4 -11   1 1044.48 110.162   2
  -4 -11   0 148.718 123.651   2
  -4 -11  -1 447.415 89.9103   2
  -4 -11  -3 2987.66 187.247   2
  -4 -11  -4-46.3269 93.1164   2
  -4 -11  -5 625.662 94.4636   2
  -4 -11  -6 6380.35 219.434   2
  -4 -11  -7-35.1395 54.3769   2
   4 -11   8 10.9379 47.0172   2
  -4 -11  -9 2602.94 133.621   2
  -4 -11 -10 555.394 69.2132   2
  -4 -11 -11 663.910 84.0198   2
   4  12 -12-20.7098 58.3283   2
   4 -12 -11 234.041 82.4724   2
   4 -12 -10 21.6812 71.6218   2
   4  12  -9 209.026 105.644   2
   4 -12  -8 2415.72 98.2850   2
   4 -12  -7 2118.12 138.126   2
   4 -12  -6 6.81709 55.2848   2
   4 -12  -5 2916.00 100.015   2
  -4 -12   4 706.437 52.2088   2
   4 -12  -3 589.371 81.1256   2
  -4 -12   2 4902.38 156.302   2
  -4 -12   1 4298.96 186.295   2
  -4 -12   0 1422.01 205.827   2
  -4 -12  -1 11121.0 260.651   2
   4 -12   4 23.1725 94.4259   2
   4 -12   5 763.137 96.5527   2
   4 -12   6 1176.23 161.535   2
  -4 -12  -7 4160.41 151.936   2
   4 -12   8 10.3663 95.9003   2
   4 -12   9 387.383 103.727   2
   4 -12  10 1647.67 117.537   2
   4  13 -12 158.480 53.2063   2
   4 -13 -11 96.1885 67.4284   2
   4 -13 -10 109.003 68.5321   2
   4  13  -9 288.417 96.6035   2
   4  13  -8 1270.47 140.857   2
  -4 -13   7 209.415 75.7852   2
  -4 -13   6 1050.34 77.6051   2
   4 -13  -5 802.599 71.0430   2
   4 -13  -4 188.143 57.5263   2
   4 -13  -3 10567.2 263.085   2
   4 -13  -2 4780.23 187.039   2
  -4 -13   1 3722.57 181.987   2
   4 -13   0 811.096 161.776   2
  -4 -13  -1 835.499 185.256   2
  -4 -13  -2 1834.74 163.004   2
   4 -13   5 4572.04 263.070   2
   4 -13   6 127.557 107.375   2
   4 -13   7 439.492 123.656   2
   4 -13   8 1021.88 134.590   2
   4 -13   9 15.5806 80.6295   2
   4 -13  10 93.1481 61.0595   2
   4  14 -12 56.4369 36.6312   2
   4 -14 -11 0.45864 55.4594   2
   4 -14 -10 111.927 61.2428   2
   4  14  -9 56.8971 78.2054   2
  -4 -14   8 53.1196 74.1633   2
  -4 -14   7 590.579 79.9185   2
  -4 -14   6 138.313 52.3042   2
   4 -14  -5 850.515 67.7916   2
  -4 -14   4 4240.54 151.981   2
   4 -14  -3 112.048 83.8278   2
   4 -14  -2 280.740 95.8467   2
  -4 -14   1 3516.51 183.316   2
  -4 -14   0 4573.71 154.245   2
  -4 -14  -1 6957.78 356.347   2
  -4 -14  -2 9094.95 329.576   2
   4 -14   6 3992.99 240.831   2
   4 -14   7 2046.71 179.195   2
   4 -14   8 1973.27 162.143   2
   4 -14   9 128.171 46.8521   2
   4 -14  10 64.2315 34.8533   2
   4 -15 -11-56.2857 42.3203   2
   4 -15 -10-69.4897 47.3181   2
   4  15  -9 221.136 76.4193   2
  -4 -15   8 1554.87 114.291   2
  -4 -15   7 66.7701 58.4108   2
  -4 -15   6 406.979 86.5650   2
   4 -15  -5 245.528 66.1153   2
   4 -15  -4 5647.85 216.140   2
   4 -15  -3 320.695 90.3237   2
   4 -15  -2 10224.0 272.249   2
   4 -15  -1 79.4941 85.7048   2
   4 -15   0 3162.20 169.666   2
  -4 -15  -1 278.807 101.146   2
  -4 -15  -2 8996.71 238.420   2
  -4 -15  -3 161.629 73.2127   2
  -4 -15  -4 4728.08 188.115   2
  -4 -15  -5 180.907 113.629   2
  -4 -15  -6 1611.08 171.621   2
  -4 -15  -7 85.9006 54.3350   2
  -4 -15  -8 1016.83 73.9685   2
   4 -15   9 328.804 43.2418   2
   4 -15  10 138.725 37.5165   2
   4 -16 -11 437.302 330.083   2
   4 -16 -10 178.549 49.5489   2
   4  16  -9-11.1426 59.2758   2
  -4 -16   8 230.576 69.7580   2
  -4 -16   7 160.357 94.3210   2
  -4 -16   6 439.640 80.9242   2
   4 -16  -5 160.374 70.0832   2
   4 -16  -4 6429.94 230.054   2
   4 -16  -3 212.608 92.5200   2
   4 -16  -2 812.378 113.819   2
  -4 -16   1 1304.15 112.057   2
  -4 -16   0 10649.1 298.729   2
  -4 -16  -1 649.483 115.227   2
  -4 -16  -2 10435.0 378.833   2
  -4 -16  -3 1208.19 109.358   2
  -4 -16  -4 183.682 72.4784   2
   4 -16   5-33.2621 55.7472   2
  -4 -16  -6 4099.68 168.396   2
  -4 -16  -7 556.910 81.7806   2
  -4 -16  -8 1179.86 76.7970   2
   4 -16   9 450.282 47.5719   2
   4 -17 -11-15.7228 324.772   2
   4 -17 -10-15.3492 110.025   2
  -4 -17   8 2077.15 209.861   2
  -4 -17   7 67.8407 91.4652   2
  -4 -17   6 701.885 87.4009   2
   4 -17  -5 2012.37 111.087   2
   4 -17  -4 1083.29 168.076   2
   4 -17  -3 3025.10 165.548   2
   4 -17  -2 4822.93 202.723   2
  -4 -17   1 355.091 85.1976   2
   4 -17   0 1584.27 200.259   2
  -4 -17  -2 3860.28 235.886   2
  -4 -17  -3 1650.25 121.790   2
  -4 -17  -4 3074.66 132.124   2
  -4 -17  -5 1169.64 85.9089   2
  -4 -17  -6 56.1848 49.8481   2
  -4 -17  -7 733.439 71.7931   2
  -4 -17  -8 1677.62 80.1635   2
   4 -17   9 61.3714 32.5092   2
   4 -18 -10 258.778 120.217   2
  -4 -18   8 143.979 125.867   2
  -4 -18   7 1394.86 129.656   2
   4 -18  -6 302.893 126.917   2
   4 -18  -5 1853.31 190.882   2
   4 -18  -4 2216.12 205.706   2
   4 -18  -3 136.322 86.9579   2
   4 -18  -2 263.724 93.6241   2
   4 -18  -1 468.069 99.5699   2
  -4 -18   0 1105.48 126.763   2
  -4 -18  -1 2435.29 192.260   2
  -4 -18  -3 1108.21 104.818   2
  -4 -18  -4 78.7648 58.5708   2
  -4 -18  -5 25.3418 50.4420   2
  -4 -18  -6 2347.47 87.6359   2
  -4 -18  -7 4227.58 102.463   2
  -4 -18  -8 36.0677 49.6152   2
   4 -19 -10 49.0606 123.415   2
   4 -19  -9 3187.97 188.144   2
  -4 -19   8 41.6485 111.508   2
  -4 -19   7 1057.06 111.985   2
  -4 -19   6 1386.32 127.241   2
   4 -19  -5 158.157 138.456   2
   4 -19  -4 549.815 134.229   2
   4 -19  -3 7149.64 336.967   2
   4 -19  -2 484.618 104.179   2
   4 -19   0 403.011 137.501   2
  -4 -19  -3 2026.66 177.607   2
  -4 -19  -4-32.8279 55.7542   2
  -4 -19  -5 295.321 49.1988   2
   4 -19   6 636.538 54.4695   2
  -4 -19  -7-29.3132 45.5425   2
   4 -19   8 514.222 43.4822   2
   4 -20 -10 93.0305 156.295   2
   4 -20  -9 140.446 83.9252   2
  -4 -20   8 983.535 131.676   2
  -4 -20   7 1180.96 158.433   2
   4 -20  -6 21.0284 99.0476   2
   4 -20  -4 415.802 124.379   2
   4 -20  -3 1135.99 169.369   2
   4 -20  -2 1249.01 120.602   2
  -4 -20  -4 599.142 64.8501   2
  -4 -20  -5 245.777 46.2377   2
  -4 -20  -6-18.9693 36.1822   2
  -4 -20  -7 2352.35 76.5228   2
   4 -21  -9 2132.91 130.283   2
  -4 -21   8 1461.27 132.764   2
  -4 -21   7 2130.47 175.221   2
  -4 -21   6 140.876 76.5068   2
   4 -21  -5 82.9297 104.979   2
   4 -21  -4 1181.27 150.846   2
  -4 -21  -2 169.963 97.0025   2
  -4 -21  -4 41.8750 60.1318   2
  -4 -21  -5 397.591 70.5999   2
  -4 -21  -6 1080.28 75.1078   2
   4 -21   7 272.299 73.3811   2
  -4 -22   7 427.866 102.687   2
  -4 -22   6 668.266 88.0021   2
   4  22  -3-99.5749 79.4957   2
   4 -22  -2 198.523 118.586   2
  -4 -22  -4 36.1074 46.4673   2
   4 -22   5 79.4427 98.0449   2
   4 -22   6 673.320 71.9356   2
   4 -22   7 401.831 69.2205   2
  -4 -23   7-54.2653 53.9151   2
  -4 -23   6 44.9324 58.7951   2
   4  23  -4 748.515 95.8890   2
   4 -23   4 11.5004 63.7614   2
   4 -23   5 37.5986 53.7897   2
   4 -23   6 107.778 65.9094   2
  -4 -24   6 729.896 47.8980   2
   4 -24  -5 49.1554 41.5824   2
   4 -24   4 67.3247 56.8269   2
   4 -24   5-22.1280 58.4977   2
   4 -25  -6 130.029 52.0800   2
   4 -25   4 450.075 80.2146   2
   5   0 -12 25.9210 54.0401   2
   5   0 -10 319.989 99.1868   2
   5   0  -8 472.565 72.9044   2
   5   0  -6 386.072 82.5447   2
  -5   0  -6 879.109 116.871   2
  -5   0  -8 182.412 87.1274   2
  -5   0 -10 3748.65 177.642   2
   5   1 -13-2.46743 31.5648   2
   5   1 -12 995.842 60.8394   2
   5   1 -11 375.799 62.4186   2
   5   1 -10 761.564 88.6094   2
   5   1  -9-45.3352 71.7940   2
   5   1  -8-40.7680 51.5221   2
   5   1  -7 240.433 45.5944   2
   5   1  -6 6235.39 137.245   2
   5  -1  -5 401.646 60.4543   2
   5  -1  -4 2218.52 146.171   2
   5   1   0 5664.19 256.828   2
  -5  -1  -5 17.4834 79.3836   2
  -5  -1  -6 1288.22 133.516   2
  -5  -1  -7-90.3506 79.9343   2
  -5  -1  -8 1069.60 129.624   2
  -5  -1  -9 133.597 55.3409   2
  -5  -1 -10 306.977 48.7839   2
  -5   1 -11 31.4706 53.6964   2
   5  -2 -13 243.236 33.7246   2
   5   2 -12 50.4992 38.7896   2
   5   2 -11 153.310 55.2839   2
   5   2 -10 232.753 70.6649   2
   5   2  -9 337.474 59.8002   2
   5   2  -8 615.695 75.5786   2
   5   2  -7 1764.53 74.8975   2
   5  -2  -6 1318.26 84.0342   2
   5  -2  -5 91.4795 51.4642   2
   5   2  -4 364.505 137.266   2
   5   2  -3 971.436 164.236   2
   5   2   0 1927.40 164.878   2
  -5  -2  -1 40.1503 58.0192   2
  -5  -2  -4 3183.46 205.583   2
  -5  -2  -5 1870.69 187.970   2
  -5  -2  -6 607.515 108.812   2
  -5  -2  -7 9.86155 85.7849   2
  -5  -2  -8 163.115 91.6358   2
  -5  -2  -9 1682.99 107.931   2
  -5  -2 -10 1251.86 78.9397   2
  -5   2 -11 373.770 64.1345   2
   5  -3 -13 245.792 33.6505   2
   5  -3 -12 89.5271 41.9228   2
   5  -3 -11 2359.84 86.3606   2
   5  -3 -10 587.447 75.6574   2
   5  -3  -9 25.2241 51.3505   2
   5  -3  -8 90.3505 54.9892   2
   5   3  -7 3067.53 95.2299   2
   5  -3  -6 45.1428 58.9716   2
   5   3  -5 3120.57 111.721   2
   5   3  -4 990.467 163.640   2
   5   3  -3 316.621 133.443   2
   5   3   0 1285.84 142.880   2
   5   3   1 1628.07 160.551   2
  -5  -3  -5 1790.98 182.956   2
  -5  -3  -6 186.264 105.104   2
  -5  -3  -7 990.095 153.728   2
  -5  -3  -8 29.6655 92.1444   2
  -5  -3  -9 1368.25 84.8343   2
  -5  -3 -10 131.232 43.8605   2
  -5   3 -11 383.543 43.8550   2
   5  -4 -13 234.916 32.2403   2
   5  -4 -12 46.5835 41.0975   2
   5  -4 -11 429.910 57.9302   2
   5  -4 -10 329.572 61.4725   2
   5  -4  -9 806.624 68.1719   2
   5  -4  -8 6.52317 54.9764   2
   5   4  -7 2821.22 114.066   2
   5  -4  -6-34.8846 89.0150   2
   5   4  -5 470.312 92.9676   2
   5   4  -4 484.024 146.195   2
   5   4   0 10.4380 85.1942   2
   5   4   1-20.4709 90.0275   2
   5   4   2 40.3500 85.8710   2
  -5  -4  -4-10.8514 90.4879   2
  -5  -4  -5 7406.26 278.648   2
  -5  -4  -6 331.113 111.099   2
  -5  -4  -7-12.3621 110.662   2
  -5  -4  -8-21.3361 102.340   2
  -5  -4  -9 2489.32 99.8514   2
  -5  -4 -10-0.25840 36.2923   2
  -5   4 -11 1066.87 52.3539   2
   5   5 -13 518.777 36.0516   2
   5  -5 -12 366.610 55.8492   2
   5  -5 -11 2367.67 120.048   2
   5  -5 -10 226.341 51.4446   2
   5  -5  -9 205.815 50.2310   2
   5  -5  -8 84.0126 49.5908   2
   5  -5  -7 2047.17 81.9435   2
   5  -5  -6 216.748 93.1832   2
   5  -5  -5 4403.29 218.316   2
   5   5  -4 45.5664 121.701   2
   5   5  -3 211.520 131.023   2
   5   5   1 2017.96 170.511   2
  -5  -5  -2 51.1718 93.7079   2
  -5  -5  -5 680.404 123.307   2
  -5  -5  -6 956.811 137.736   2
  -5  -5  -7 1764.45 189.569   2
  -5  -5  -8 263.955 121.475   2
  -5  -5  -9 1268.43 80.5485   2
  -5  -5 -10 130.122 37.8968   2
  -5  -5 -11-12.6152 37.0800   2
   5  -6 -12 605.089 50.6496   2
   5  -6 -11 109.725 50.4326   2
   5  -6 -10 629.022 61.2215   2
   5  -6  -9 809.873 64.2010   2
   5  -6  -8 1565.60 76.1455   2
   5   6  -7 284.312 57.8545   2
   5  -6  -6 768.130 199.374   2
   5   6  -5 1328.53 168.359   2
   5   6  -4 1277.46 166.563   2
   5   6   0 42.8566 90.6428   2
   5   6   1 656.882 123.957   2
  -5  -6  -3 2715.58 204.225   2
  -5  -6  -4 3988.95 247.688   2
  -5  -6  -5 1523.54 149.547   2
  -5  -6  -6 189.667 108.804   2
  -5  -6  -7-23.2969 74.7293   2
  -5  -6  -8 174.448 113.987   2
  -5  -6  -9 673.990 64.4170   2
  -5  -6 -10 1005.25 55.9422   2
   5   7 -13 252.807 47.1416   2
   5  -7 -12 2483.31 72.8976   2
   5  -7 -11 420.940 52.6388   2
   5  -7 -10 1202.37 71.8720   2
   5  -7  -9 129.422 44.5950   2
   5  -7  -8 720.941 64.2913   2
   5  -7  -7 913.840 112.129   2
   5  -7  -6 7332.17 381.609   2
   5   7  -5 969.621 128.014   2
   5   7  -4 557.673 146.664   2
   5   7   0 2810.78 200.500   2
   5   7   1 472.948 116.859   2
  -5  -7  -2 2477.82 196.362   2
  -5  -7  -5 671.612 143.838   2
  -5  -7  -6 3064.34 237.744   2
   5  -7   7 300.608 89.2954   2
  -5  -7  -8 1554.34 92.7327   2
  -5  -7  -9 21.6206 39.2507   2
  -5  -7 -10 17.0917 36.1027   2
   5   8 -13 143.582 38.3339   2
   5   8 -12-23.7027 37.7110   2
   5  -8 -11 34.1341 38.6999   2
   5  -8 -10 1443.29 71.0738   2
   5  -8  -9-26.9723 50.3037   2
   5  -8  -8 5000.36 110.442   2
   5  -8  -7 1326.09 109.166   2
   5   8  -4 1435.11 166.540   2
   5   8   1 1831.00 165.940   2
   5   8   2 705.747 123.563   2
  -5  -8  -5 647.228 100.544   2
  -5  -8  -6 1435.39 129.118   2
   5  -8   7 74.8656 68.5968   2
  -5  -8  -8 1276.54 67.0046   2
  -5  -8  -9-7.69264 33.9693   2
  -5  -8 -10 1230.66 64.7067   2
   5   9 -12 1659.07 108.626   2
   5   9 -11 275.187 54.4355   2
   5  -9 -10 757.198 61.5185   2
   5  -9  -9 684.505 66.3996   2
   5  -9  -8 1446.14 78.3877   2
   5  -9  -7 251.448 117.848   2
   5   9  -4 3373.62 219.313   2
   5   9   1 747.440 123.589   2
   5   9   2 2481.37 182.488   2
  -5  -9  -4 179.536 129.760   2
  -5  -9  -5 1153.52 111.985   2
  -5  -9  -6 408.747 78.2285   2
  -5  -9  -7 526.821 65.7753   2
  -5  -9  -8 844.725 49.2161   2
  -5  -9  -9 324.779 60.0103   2
  -5  -9 -10 107.816 64.7219   2
   5  10 -12 115.447 52.3638   2
   5  10 -11 52.9390 40.2833   2
   5  10 -10 107.733 54.2628   2
   5 -10  -9 1671.99 76.8390   2
   5 -10  -8 976.095 64.3298   2
   5  10  -7 1833.16 104.193   2
   5  10  -2 5067.67 294.786   2
   5  10   0 1482.15 165.088   2
   5  10   1 387.306 119.631   2
  -5 -10  -2 900.526 95.4417   2
  -5 -10  -4 1415.03 171.269   2
  -5 -10  -5 1285.23 170.293   2
  -5 -10  -6 377.822 73.4586   2
  -5 -10  -7 151.024 50.3949   2
   5 -10   8 768.646 54.4470   2
  -5 -10  -9 248.277 88.5069   2
  -5 -10 -10 117.604 56.7870   2
   5  11 -12 65.8589 41.1261   2
   5  11 -11 895.747 95.7373   2
   5 -11 -10 539.613 95.7436   2
   5  11  -9 231.647 57.5932   2
   5 -11  -8 742.990 57.2005   2
   5  11  -7 1568.11 167.303   2
   5  11   0 76.9735 102.177   2
   5  11   1 6104.66 265.539   2
   5  11   2-27.5117 88.9056   2
  -5 -11  -3 794.448 156.155   2
  -5 -11  -5 163.347 119.783   2
  -5 -11  -6-45.9988 68.0426   2
  -5 -11  -7 1595.73 89.6428   2
  -5 -11  -8-13.6843 57.1570   2
  -5 -11  -9 116.464 75.0811   2
  -5 -11 -10-33.4132 41.2385   2
   5  12 -11 15.0284 36.2072   2
   5 -12 -10 76.8013 71.3602   2
   5 -12  -9 4077.65 161.931   2
   5 -12  -8 344.580 80.3427   2
   5 -12  -7 1361.15 117.680   2
   5  12   0 75.7752 101.694   2
   5  12   1 38.9452 98.0102   2
  -5 -12  -3 2191.55 202.810   2
  -5 -12  -5 1217.02 165.040   2
  -5 -12  -6 78.5412 109.919   2
  -5 -12  -7 125.406 75.9142   2
   5 -12   8 402.763 65.8136   2
  -5 -12  -9 591.945 85.6690   2
   5  13 -11 280.789 39.9250   2
   5 -13 -10-49.7754 58.5147   2
   5 -13  -9 68.5638 67.3704   2
   5 -13  -8 17.0763 64.9424   2
   5 -13  -7 1698.58 107.740   2
   5  13  -1 1324.60 161.215   2
   5  13   0 1651.78 158.604   2
   5  13   1 4280.24 216.755   2
  -5 -13  -4 768.927 145.394   2
  -5 -13  -5 186.072 116.290   2
  -5 -13  -6 369.185 117.442   2
  -5 -13  -7 1822.47 88.2008   2
   5 -13   8 378.113 60.3989   2
  -5 -13  -9 88.9996 47.9838   2
   5  14 -11 12.1507 40.1915   2
   5 -14 -10 433.623 66.6612   2
   5 -14  -9 200.359 62.1419   2
   5 -14  -8 1000.19 89.6767   2
   5  14  -7 635.703 100.165   2
   5  14  -1 227.140 108.081   2
   5  14   0 506.531 116.831   2
   5  14   1 399.283 106.597   2
  -5 -14  -2 375.325 121.580   2
  -5 -14  -5 877.688 143.043   2
  -5 -14  -6 545.405 65.2805   2
   5 -14   7 168.856 49.3301   2
  -5 -14  -8 90.4667 50.0124   2
  -5 -14  -9 111.133 39.1913   2
   5 -15 -10 256.533 42.0530   2
   5 -15  -9 433.989 61.5159   2
   5 -15  -8-38.0574 49.8044   2
   5 -15  -7 7.37127 51.0888   2
   5  15  -2 35.9948 113.180   2
   5  15  -1 767.145 136.356   2
   5  15   0 1553.27 148.205   2
   5 -15   6 1537.77 152.103   2
   5 -15   7 39.5453 62.4573   2
   5 -15   8 1997.62 142.430   2
   5 -16 -10 186.849 62.8230   2
   5 -16  -9 601.173 139.548   2
   5 -16  -8 1243.42 156.121   2
   5  16  -2 1408.78 159.462   2
   5  16  -1 10.0332 88.3222   2
   5  16   0 307.772 99.9513   2
   5 -16   6 1787.70 116.882   2
   5 -16   7 94.9168 89.1093   2
   5 -16   8 499.910 88.7983   2
   5  17 -10 190.765 58.0694   2
   5 -17  -9 145.759 141.791   2
   5 -17  -8 16.4158 103.924   2
   5 -17  -7-9.47894 96.6712   2
   5  17  -3 482.161 126.761   2
   5  17  -2 61.5857 96.6561   2
   5  17  -1 64.0837 87.7535   2
  -5 -17  -6 4166.82 142.610   2
  -5 -17  -7 1685.22 89.7154   2
  -5 -17  -8 1079.43 58.6014   2
   5 -18  -9 1298.64 184.813   2
   5 -18  -8 193.682 99.7258   2
   5 -18  -7 118.886 98.4611   2
  -5 -18   5 253.063 152.136   2
   5  18  -3 1263.50 143.424   2
   5  18  -2 376.061 105.600   2
   5  18  -1 177.193 83.6598   2
  -5 -18  -5 415.653 91.3713   2
  -5 -18  -6 323.804 62.9528   2
  -5 -18  -7-13.5798 40.7988   2
   5 -19  -9 78.2225 52.0599   2
   5 -19  -8 117.116 53.1978   2
   5 -19  -7 110.877 92.5084   2
   5  19  -3 174.638 98.7758   2
   5  19  -2 197.906 88.4949   2
  -5 -19  -5 521.942 68.4879   2
  -5 -19  -6 20.5264 43.5560   2
   5 -19   7 1913.35 118.148   2
   5 -20  -8 117.571 47.3377   2
   5 -20  -7 89.8266 59.6049   2
   5  20  -6 75.9939 76.4889   2
   5  20  -5 439.322 102.111   2
   5  20  -4 123.515 86.3093   2
   5  20  -3 656.275 98.3443   2
   5  20  -2-38.6937 67.4092   2
  -5 -20  -5 2125.44 95.3521   2
  -5 -20  -6-27.0745 32.5499   2
   5 -21  -7 309.775 50.5006   2
   5  21  -6-26.7804 62.2955   2
   5  21  -5 443.762 89.5918   2
   5  21  -4 677.338 92.7290   2
   5  21  -3 617.652 89.6524   2
  -5 -21  -4 914.973 85.1540   2
  -5 -21  -5 310.746 44.2776   2
   5  22  -6 109.357 51.1028   2
   5  22  -5 370.547 67.5555   2
   5  22  -4 980.061 85.9855   2
  -5 -22  -4 349.972 48.0443   2
   6   0 -12 4100.78 89.3296   2
   6   0 -10 864.046 91.3957   2
   6   0  -8 192.939 92.3799   2
   6   0  -6 10524.5 200.203   2
   6   0  -4 282.834 57.3860   2
   6   0  -2 55.5901 48.3785   2
   6   0   0 2685.66 113.513   2
   6   0   2 163.407 125.377   2
   6   0   4 198.350 167.126   2
   6   0   6 324.738 116.296   2
  -6   0  -8 1414.43 109.928   2
   6   1 -12 293.985 38.4669   2
   6   1 -11-3.36741 36.3174   2
   6   1 -10 1316.10 82.0750   2
   6   1  -9 969.407 95.5843   2
   6   1  -8 5463.02 126.170   2
   6   1  -7 1841.41 73.9337   2
   6   1  -6 1182.40 66.8400   2
   6   1  -5 286.340 46.0509   2
   6   1  -4 355.966 48.0163   2
   6   1  -3 178.964 44.2178   2
   6   1  -2 3825.16 157.657   2
   6   1  -1 1743.05 151.957   2
   6  -1   0 152.358 67.4294   2
   6  -1   1 477.957 75.5567   2
   6   1   2 148.524 91.5279   2
   6  -1   3-23.5997 100.460   2
   6  -1   4 1054.41 156.684   2
   6  -1   5-106.962 89.7532   2
   6   1   6-6.52958 90.0275   2
   6  -1   7 194.763 80.0280   2
  -6   1  -8 3.64593 51.7541   2
  -6   1  -9 912.024 97.0972   2
   6   2 -12 1724.73 54.7711   2
   6   2 -11 3543.86 91.0743   2
   6   2 -10 1506.56 85.2057   2
   6   2  -9 457.942 80.2952   2
   6   2  -8 1366.13 90.7753   2
   6   2  -7 631.910 67.8418   2
   6   2  -6 5380.50 132.586   2
   6   2  -5 3659.04 83.1909   2
   6   2  -4 39.6662 40.9731   2
   6   2  -3 1997.19 67.6148   2
   6   2  -2 1154.30 57.8423   2
   6   2  -1 687.544 82.4201   2
   6   2   0 820.057 125.927   2
   6   2   1 383.311 93.5554   2
   6   2   2-204.424 86.9566   2
   6   2   3 38.0385 94.4743   2
   6   2   4 385.397 110.811   2
   6   2   5 632.533 121.491   2
   6   2   6-77.4620 161.442   2
   6   2   7 823.945 177.816   2
  -6   2  -8 1912.82 116.177   2
  -6   2  -9 159.027 71.4367   2
   6   3 -12 68.0377 25.5147   2
   6  -3 -11 514.110 51.0600   2
   6  -3 -10 214.798 51.9902   2
   6  -3  -9 694.095 69.3573   2
   6  -3  -8 161.030 58.1904   2
   6  -3  -7 5643.56 115.870   2
   6  -3  -6 933.278 61.6753   2
   6   3  -5 43.7159 36.0974   2
   6   3  -4 2722.62 65.0448   2
   6  -3  -3 790.232 47.1311   2
   6   3  -2 1539.68 69.4676   2
   6  -3  -1 8593.70 144.955   2
  -6  -3   0-0.31865 56.5170   2
  -6  -3  -1 47.6289 78.1150   2
  -6  -3  -2 422.468 68.7516   2
  -6  -3  -3 1503.71 91.5699   2
  -6  -3  -4 174.877 68.5729   2
  -6  -3  -5 1294.47 88.2708   2
  -6  -3  -6 1505.79 104.981   2
  -6  -3  -7 144.564 61.1270   2
  -6   3  -8 205.921 50.4128   2
  -6  -3  -9 918.459 61.5824   2
   6   4 -12 5.50969 22.3273   2
   6  -4 -11 1350.48 77.4106   2
   6  -4 -10 14.7955 43.0088   2
   6  -4  -9 97.2869 48.3335   2
   6  -4  -8 2501.74 92.6197   2
   6  -4  -7 1561.09 71.1133   2
   6  -4  -6 6.97677 44.8310   2
   6   4  -5 2272.63 70.0758   2
   6   4  -4 1634.52 57.7242   2
   6  -4  -3 403.634 42.6091   2
   6  -4  -2 6449.26 106.886   2
   6  -4  -1 5565.74 125.847   2
  -6  -4   0 46.9996 45.7804   2
  -6  -4  -1 3537.08 138.914   2
  -6  -4  -2 39.4123 65.8221   2
  -6  -4  -3 1876.39 99.7527   2
  -6  -4  -4 793.030 80.7933   2
  -6  -4  -5 348.603 69.7283   2
  -6  -4  -6 461.002 79.4565   2
  -6  -4  -7 1124.46 83.3748   2
  -6  -4  -8 114.121 37.3505   2
  -6   4  -9 1303.71 64.1530   2
   6  -5 -11 56.7855 43.1254   2
   6  -5 -10 177.963 52.0115   2
   6  -5  -9-22.2900 36.7373   2
   6  -5  -8 400.818 54.0693   2
   6   5  -7 820.147 63.3574   2
   6  -5  -6 1668.25 72.1122   2
   6   5  -5 177.667 43.5163   2
   6  -5  -4 1212.02 52.9946   2
   6  -5  -3 4340.94 92.9317   2
   6  -5  -2 2454.36 81.1356   2
   6  -5  -1 4479.56 115.288   2
   6  -5   0 1221.77 87.1412   2
  -6  -5  -1 55.9073 65.1509   2
  -6  -5  -2 15.3373 61.4735   2
  -6  -5  -3 6591.99 156.268   2
  -6  -5  -4 1804.71 98.9846   2
  -6  -5  -5 5512.92 174.195   2
  -6  -5  -6 143.707 68.5988   2
  -6  -5  -7 401.868 66.6282   2
  -6  -5  -8 602.009 44.5999   2
  -6   5  -9 682.784 49.8705   2
   6   6 -11 139.822 34.3673   2
   6   6 -10 40.8258 43.4870   2
   6   6  -9 95.8397 46.7726   2
   6  -6  -8 696.792 55.6186   2
   6  -6  -7 1776.90 76.9983   2
   6  -6  -6 1485.88 66.2663   2
   6  -6  -5 782.238 53.9991   2
   6   6  -4 2450.18 66.0029   2
   6   6  -3 493.277 52.2372   2
   6   6  -2 1321.42 71.6892   2
   6  -6  -1 2394.16 90.2561   2
   6  -6   0 6589.07 151.388   2
  -6  -6  -1 3430.86 141.508   2
  -6  -6  -2 5573.25 143.214   2
  -6  -6  -3 900.429 83.8879   2
  -6  -6  -4 96.0300 63.3860   2
  -6  -6  -5 28.6628 68.0225   2
  -6  -6  -6 2610.96 117.787   2
  -6  -6  -7 1135.65 79.9891   2
  -6  -6  -8 1011.43 57.6035   2
  -6  -6  -9 482.776 56.1194   2
   6   7 -11 11.9426 26.4521   2
   6  -7 -10 10.3278 38.4351   2
   6   7  -9 108.127 44.3224   2
   6   7  -8 141.445 50.7888   2
   6  -7  -7 29.5697 46.1027   2
   6  -7  -6 99.2239 46.3657   2
   6  -7  -5 274.472 46.7448   2
   6   7  -4 387.342 41.7625   2
   6   7  -3 1008.30 61.2748   2
   6  -7  -2 9273.84 148.301   2
   6  -7  -1 2361.13 95.1557   2
   6   7   0 2459.88 104.634   2
  -6  -7  -1 112.464 70.0555   2
  -6  -7  -2 1451.75 86.8724   2
  -6  -7  -3 1739.19 95.4137   2
  -6  -7  -4 13462.9 250.736   2
  -6  -7  -5 790.222 84.3927   2
  -6  -7  -6 1070.25 85.9719   2
  -6  -7  -7 149.558 55.8681   2
  -6  -7  -8 289.424 41.8295   2
   6   8 -11-13.6164 28.0367   2
   6  -8 -10 327.448 42.3100   2
   6   8  -9 31.4958 38.3950   2
   6   8  -8 146.781 47.1681   2
   6  -8  -7 65.7510 38.7690   2
   6  -8  -6 1573.77 72.0259   2
   6  -8  -5-19.9656 40.5209   2
   6   8  -4 2031.38 68.0546   2
   6   8  -3 267.554 53.7282   2
   6  -8  -2 295.379 55.8099   2
   6  -8  -1 892.634 92.5122   2
   6   8   0 7270.36 154.586   2
  -6  -8  -1 117.946 105.950   2
  -6  -8  -2 8157.83 193.843   2
  -6  -8  -3 475.246 70.4023   2
  -6  -8  -4 120.194 69.5712   2
  -6  -8  -5 328.897 71.4147   2
  -6  -8  -6 4245.67 131.378   2
  -6  -8  -7 9.31546 36.0941   2
  -6  -8  -8 1595.14 56.6748   2
   6   9 -11 97.0521 47.9750   2
   6   9 -10-12.7530 38.0638   2
   6   9  -9 40.7363 35.7107   2
   6   9  -8 79.5538 41.0383   2
   6  -9  -7 48.9241 49.0746   2
   6  -9  -6 1105.75 60.1954   2
   6  -9  -5 2592.72 79.7077   2
   6  -9  -4 278.123 39.9358   2
   6  -9  -3 980.998 67.2965   2
   6  -9  -2 6980.36 137.565   2
   6   9  -1 1956.18 121.738   2
   6   9   0 4430.65 123.491   2
  -6  -9  -1 304.156 99.4270   2
  -6  -9  -2 2977.56 132.479   2
  -6  -9  -3 442.142 77.4922   2
  -6  -9  -4 6695.30 169.987   2
  -6  -9  -5 1287.61 89.4015   2
  -6  -9  -6 1569.85 85.6111   2
  -6  -9  -7 1115.79 79.1901   2
  -6  -9  -8 678.455 81.5507   2
   6  10 -11 107.572 42.6565   2
   6  10 -10 341.653 48.7488   2
   6  10  -9 18.3283 37.6011   2
   6 -10  -8 30.5241 46.7656   2
   6 -10  -7 588.624 54.3637   2
   6  10  -6 29.8243 47.7580   2
   6  10  -5 1452.60 68.4046   2
   6 -10  -4 4670.24 105.411   2
   6  10  -3 315.277 60.5830   2
   6  10  -2 725.701 87.9496   2
   6  10  -1 2384.13 95.6153   2
   6 -10   0 1111.28 73.4790   2
  -6 -10  -1 3511.66 147.620   2
  -6 -10  -2 1055.40 117.751   2
  -6 -10  -3 2412.27 137.746   2
  -6 -10  -4 221.297 63.6343   2
  -6 -10  -5 605.061 82.8197   2
  -6 -10  -6 258.284 45.8210   2
  -6 -10  -7 1315.59 122.619   2
  -6 -10  -8 39.4018 49.9649   2
   6  11 -10-4.20504 34.4294   2
   6  11  -9 2006.17 97.8998   2
   6 -11  -8 509.819 78.9953   2
   6  11  -7 1061.23 73.8592   2
   6  11  -6 3473.50 125.316   2
   6 -11  -5 360.072 68.9322   2
   6 -11  -4 1312.01 85.9818   2
   6  11  -3 2878.92 99.6664   2
   6  11  -2 102.762 50.6239   2
   6 -11  -1 507.647 61.9240   2
   6  11   0 3283.56 108.348   2
  -6 -11  -1 67.6763 70.9069   2
  -6 -11  -2 59.9612 107.747   2
  -6 -11  -3 1484.89 175.654   2
  -6 -11  -4 108.289 107.561   2
  -6 -11  -5 1589.58 152.275   2
  -6 -11  -6 16.2396 80.0764   2
  -6 -11  -7 330.251 87.4916   2
  -6 -11  -8 2641.89 115.782   2
   6  12 -10 97.6684 32.5285   2
   6  12  -9 1018.59 70.7116   2
   6 -12  -8-15.5418 52.5717   2
   6  12  -7 1273.64 122.247   2
   6 -12  -6 555.799 88.7658   2
   6  12  -5 4260.93 133.370   2
   6  12  -4 866.693 75.6006   2
   6  12  -3 1055.40 69.1851   2
   6 -12  -2 548.400 57.6189   2
   6 -12  -1 211.510 68.3794   2
   6 -12   0 851.721 88.9466   2
  -6 -12  -1 1762.44 109.828   2
  -6 -12  -2-17.6876 79.1469   2
  -6 -12  -3 176.849 111.506   2
  -6 -12  -4 286.499 115.148   2
  -6 -12  -5 26.9534 87.8335   2
  -6 -12  -6 96.9407 81.6941   2
  -6 -12  -7 1683.02 91.6253   2
   6  13  -9 1589.56 74.0480   2
   6  13  -8 1239.66 81.5631   2
   6  13  -7 921.814 99.7197   2
   6  13  -6 580.399 80.9077   2
   6 -13  -5 422.551 74.3400   2
   6  13  -4 1703.34 99.4430   2
   6  13  -3 1522.12 80.8273   2
   6 -13  -2 270.249 68.2814   2
   6 -13  -1 991.631 87.3152   2
  -6 -13   0 403.364 65.5104   2
  -6 -13  -1 158.518 79.8402   2
  -6 -13  -2 35.1569 75.2589   2
  -6 -13  -3 468.087 87.4824   2
  -6 -13  -4 117.465 71.3676   2
  -6 -13  -5 515.340 80.5520   2
  -6 -13  -6 410.162 70.6853   2
  -6 -13  -7 57.9257 57.9455   2
   6  14  -9 558.627 81.4194   2
   6  14  -8 166.940 53.2492   2
   6  14  -7 134.980 52.2690   2
   6  14  -6 1133.31 80.7428   2
   6  14  -5 1190.79 84.6083   2
   6 -14  -4 2275.31 178.838   2
   6 -14  -3-3.01571 93.0207   2
   6 -14  -2 63.7046 66.9422   2
   6 -14  -1-17.3336 48.9571   2
  -6 -14   0 68.1469 50.7230   2
  -6 -14  -1 133.580 80.2823   2
  -6 -14  -2 326.194 88.1389   2
  -6 -14  -3 189.473 74.6329   2
  -6 -14  -4 71.5064 66.7454   2
  -6 -14  -5-51.2638 53.6759   2
  -6 -14  -6 368.006 62.9663   2
  -6 -14  -7 334.781 62.4406   2
   6  15  -9 320.750 65.3744   2
   6  15  -7-27.6690 94.7182   2
   6  15  -6 1031.60 152.298   2
   6 -15  -5 20.1003 68.6530   2
   6 -15  -4 1669.10 151.028   2
   6 -15  -3-60.3629 85.4483   2
   6 -15  -2 25.7831 87.1469   2
   6 -15  -1 8.64229 59.7374   2
  -6 -15   0 136.406 72.2532   2
  -6 -15  -1 58.2452 71.5771   2
  -6 -15  -2 74.0408 72.4827   2
  -6 -15  -3-56.9507 62.1035   2
  -6 -15  -4 413.397 73.4332   2
  -6 -15  -5 126.342 59.6820   2
  -6 -15  -6 411.311 59.4672   2
   6  16  -9 65.0229 43.6712   2
   6  16  -7 45.2790 83.3635   2
   6  16  -6 1024.76 135.668   2
   6  16  -5-18.8385 63.2177   2
   6  16  -4 2716.26 131.812   2
   6 -16  -3 524.086 103.929   2
   6 -16  -2 40.0255 75.5227   2
  -6 -16   1 13.6143 46.7925   2
  -6 -16   0 281.572 78.4143   2
  -6 -16  -1-11.8852 70.5291   2
  -6 -16  -2 602.717 83.0337   2
  -6 -16  -3 124.031 65.7649   2
  -6 -16  -4 1.12839 57.3608   2
  -6 -16  -5 188.865 55.6870   2
  -6 -16  -6 294.032 60.7986   2
   6  17  -8 1033.15 89.3295   2
   6  17  -7 484.427 88.3030   2
   6  17  -6 81.7968 80.7615   2
   6  17  -5 297.674 107.375   2
   6  17  -4 1812.46 106.962   2
   6  17  -3 121.809 64.4309   2
   6  17  -2 190.665 84.8041   2
  -6 -17   1 186.872 51.8950   2
  -6 -17   0 25.6758 63.5894   2
  -6 -17  -1 187.001 74.9538   2
  -6 -17  -2 204.150 69.5770   2
  -6 -17  -3 30.2923 55.5849   2
  -6 -17  -4 139.477 57.0533   2
  -6 -17  -5-18.4731 41.5712   2
   6  18  -7-23.8943 53.0953   2
   6  18  -6 755.366 95.0194   2
   6  18  -5 1559.60 127.345   2
   6  18  -4 19.0743 56.8375   2
   6  18  -3 1584.13 95.6848   2
   6  18  -2 985.717 99.8385   2
   6 -18   0 608.818 121.976   2
   6 -18   1 822.590 125.457   2
   6 -18   2 198.486 97.3088   2
   6 -18   3 90.9909 89.1792   2
   6 -18   4 156.469 84.8597   2
   6 -18   5 36.0736 58.8337   2
   6  19  -7 190.490 47.2196   2
   6  19  -6 593.186 76.7364   2
   6  19  -5 51.3649 66.0270   2
   6  19  -4 775.322 89.0072   2
   6  19  -3 2935.23 105.005   2
   6 -19   1 7.00861 86.6215   2
   6 -19   2-19.9935 78.3384   2
   6 -19   3 644.709 107.044   2
   6 -19   4 3.45741 36.3474   2
  -6 -20   6 19.2937 43.2390   2
  -6 -20   5 563.348 52.4937   2
   6  20  -4-21.8909 66.5687   2
  -6 -20   0 506.069 94.0668   2
  -6 -20  -1 5003.39 180.103   2
  -6 -20  -2 402.468 56.9141   2
  -6 -20  -3 221.623 42.2227   2
  -6 -21   4 43.6306 56.5521   2
   6 -21  -2 606.283 83.1864   2
  -6 -21   0 904.798 92.0391   2
  -6 -21  -1 87.9614 55.4429   2
  -6 -21  -2 385.170 40.4539   2
   6 -22   0 803.189 69.0211   2
   7   0 -10 366.094 25.6184   2
   7   0  -8 1742.58 53.4339   2
   7   0  -6 974.206 48.0191   2
   7   0  -4 341.061 43.5258   2
   7   0  -2 5518.99 105.531   2
   7   0   0 1591.08 74.7634   2
   7   0   2 614.134 95.8151   2
   7   0   4 5854.59 94.8191   2
   7   0   6 1294.36 68.9574   2
   7  -2 -10 199.512 40.8455   2
   8   0  -6 273.008 81.5446   2
   8   0  -4 651.456 141.808   2
   8   0  -2 245.722 99.9541   2
   8   0   0 6229.53 282.999   2
   8   0   2 6193.82 180.233   2
   8  -1  -7 28.7251 46.1767   2
   8  -1  -6 541.421 78.9637   2
   8  -1  -5 407.525 65.3168   2
   8  -1  -4-9.47443 47.2334   2
   8   1  -3 466.098 135.680   2
   8   1  -2 8438.67 282.762   2
   8  -1  -1 251.622 95.4538   2
   8   1   0 1064.98 83.5452   2
   8   1   1 33.5956 57.6969   2
   8   1   2 520.324 67.9822   2
   8  -1   3 417.903 64.6247   2
   8  -2  -7 144.313 57.7851   2
   8  -2  -6 74.5260 62.3282   2
   8  -2  -5 358.247 56.0570   2
   8   2  -4 1007.35 82.0554   2
   8   2  -3 20.0204 71.8383   2
   8  -2  -2 1391.53 78.6640   2
   8  -2  -1 888.776 91.4299   2
   8   2   0-53.4084 60.5018   2
   8   2   1 620.432 59.0280   2
   8  -2   2 1852.80 110.404   2
   8   2   3 964.101 75.4538   2
   8   3  -7 814.577 116.482   2
   8   3  -6 2402.67 158.841   2
   8  -3  -5 408.371 69.3425   2
   8   3  -4 850.108 95.8374   2
   8   3  -3 1783.07 119.244   2
   8  -3  -2 411.201 73.6837   2
   8  -3  -1 4241.14 256.965   2
   8   3   0 2146.77 103.043   2
   8   3   1-14.9820 44.4884   2
   8  -3   2-84.3414 67.3432   2
   8   3   3 1555.54 139.128   2
   8   4  -7 363.435 90.2704   2
   8   4  -6 977.186 117.673   2
   8   4  -5 1255.86 111.866   2
   8   4  -4 518.988 80.0820   2
   8  -4  -3 972.196 108.517   2
   8   4  -2 2169.85 110.403   2
   8  -4  -1 909.576 117.425   2
   8   4   0 175.289 70.4975   2
   8   4   1 614.387 72.3633   2
   8  -4   2 62.4216 69.2372   2
   8   4   3 1002.95 131.663   2
   8   5  -7 1544.43 111.028   2
   8   5  -6 390.839 89.2347   2
   8   5  -5 737.550 112.999   2
   8   5  -4 577.953 76.8494   2
   8  -5  -3 1082.18 109.567   2
   8  -5  -2 840.117 112.003   2
   8   5  -1 1267.54 124.970   2
   8   5   0 471.957 58.5712   2
   8  -5   1 135.386 84.9375   2
   8  -5   2 11.7918 64.5292   2
   8   5   3 216.769 109.244   2
   8   6  -7 168.341 49.4048   2
   8   6  -6 2416.59 120.107   2
   8   6  -5 1541.36 127.817   2
   8  -6  -4 433.165 79.0800   2
   8  -6  -3 772.905 100.744   2
   8  -6  -2 233.110 86.4720   2
   8  -6  -1 907.605 109.455   2
   8  -6   0 140.565 89.2603   2
   8  -6   1-149.824 89.9212   2
   8   6   2 193.281 185.347   2
   8   6   3 13.1732 92.2430   2
   8  -7  -6 463.096 62.5787   2
   8   7  -5 508.146 88.9616   2
   8  -7  -4 364.918 148.738   2
   8  -7  -3 218.443 83.1774   2
   8  -7  -2 1707.11 122.821   2
   8  -7  -1 231.165 90.3069   2
   8  -7   0 45.4658 80.4353   2
   8  -7   1-116.052 75.3861   2
   8   7   2 275.833 198.320   2
   8   7   3 42.1491 82.9072   2
   8   8  -6 1443.89 86.8216   2
   8  -8  -5 167.885 154.136   2
   8  -8  -4 908.158 206.746   2
   8  -8  -3 583.401 176.661   2
   8  -8  -2 77.0794 78.3155   2
   8  -8  -1 251.930 90.2784   2
   8  -8   0-30.4353 83.8375   2
   8   8   1 188.982 149.753   2
   8   8   3 207.038 74.2896   2
   8  -9  -5-129.804 117.360   2
   8  -9  -4 470.135 199.993   2
   8  -9  -3 235.000 167.970   2
   8   9  -2 1423.16 104.032   2
   8   9  -1 384.659 82.8762   2
   8  -9   0 178.465 81.9847   2
   8   9   1 124.749 114.320   2
   8 -10  -4 9.00172 134.295   2
   8 -10  -3 1331.89 216.060   2
   8 -10  -2 1139.51 208.413   2
   8 -10  -1 390.913 87.3990   2
   8  10   0 249.705 92.1452   2
   8  10   1 124.776 90.3291   2
   8 -11  -3 246.580 122.613   2
   0   0   0 0.00000 0.00000   0
TITL tf-42-smart-twin-abs_twin1_hklf4 in P2(1)/c
REM P2(1)/c (#14 in standard setting)
CELL 1.54184   6.934007  24.177695  12.207919  90.0000  97.1855  90.0000
ZERR    4.00   0.000111   0.000431   0.000252   0.0000   0.0016   0.0000
LATT  1
SYMM -x, y+1/2,-z+1/2
SFAC C H N O Cl Sn
UNIT 52.00 68.00 12.00 8.00 24.00 4.00
TREF
HKLF 5

BASF 0.23985
END
;
_shelx_hkl_checksum                69416
_olex2_submission_special_instructions  'No special instructions were received'
_oxdiff_exptl_absorpt_empirical_details
;
Empirical correction (ABSPACK) includes:
- Absorption correction using spherical harmonics
- Frame scaling
;
_oxdiff_exptl_absorpt_empirical_full_max  1.714
_oxdiff_exptl_absorpt_empirical_full_min  0.638
_oxdiff_twin_integration_method    simultaneous
_oxdiff_twin_items                 2
loop_
  _twin_individual_id
  _twin_individual_mass_fraction_refined
  _oxdiff_twin_reflns_isolated
  _oxdiff_twin_reflns_overlapped
  _twin_individual_twin_lattice_type
  _twin_individual_twin_matrix_11
  _twin_individual_twin_matrix_12
  _twin_individual_twin_matrix_13
  _twin_individual_twin_matrix_21
  _twin_individual_twin_matrix_22
  _twin_individual_twin_matrix_23
  _twin_individual_twin_matrix_31
  _twin_individual_twin_matrix_32
  _twin_individual_twin_matrix_33
 1 0.8266(9) 8476 5613 ref 1.0000 0.0000 0.0000 0.0000 1.0000 0.0000 0.0000
 0.0000 1.0000
 2 0.1734(9) 8411 5613 nmt 0.9993 -0.0002 0.0009 -0.0017 -1.0002 0.0012 -0.4386
 -0.0002 -1.0013

_twin_special_details
;
Component 2 rotated by -179.9692\% 
 around [0.98 -0.00 -0.21] (reciprocal) or [1.00 -0.00 -0.00] (direct)
;
