data_tf-37-smart
_audit_creation_date               2020-07-22
_audit_creation_method
;
Olex2 1.3
(compiled 2020.07.16 svn.r6f6c53a7 for OlexSys, GUI svn.r6139)
;
_shelx_SHELXL_version_number       '2018/3'
_audit_contact_author_address      ?
_audit_contact_author_email        ?
_audit_contact_author_name         ''
_audit_contact_author_phone        ?
_publ_contact_author_id_orcid      ?
_publ_section_references
;
Dolomanov, O.V., Bourhis, L.J., Gildea, R.J, Howard, J.A.K. & Puschmann, H.
 (2009), J. Appl. Cryst. 42, 339-341.

Sheldrick, G.M. (2015). Acta Cryst. A71, 3-8.

Sheldrick, G.M. (2015). Acta Cryst. C71, 3-8.
;
_chemical_name_common              ?
_chemical_name_systematic          ?
_chemical_formula_moiety           'C26 H20 N2 O2'
_chemical_formula_sum              'C26 H20 N2 O2'
_chemical_formula_weight           392.44
_chemical_absolute_configuration   ?
_chemical_melting_point            ?
_chemical_oxdiff_formula           C26H20N2O2
loop_
  _atom_type_symbol
  _atom_type_description
  _atom_type_scat_dispersion_real
  _atom_type_scat_dispersion_imag
  _atom_type_scat_source
 'C' 'C' 0.0181 0.0091 'International Tables Vol C Tables 4.2.6.8 and 6.1.1.4'
 'H' 'H' 0.0000 0.0000 'International Tables Vol C Tables 4.2.6.8 and 6.1.1.4'
 'N' 'N' 0.0311 0.0180 'International Tables Vol C Tables 4.2.6.8 and 6.1.1.4'
 'O' 'O' 0.0492 0.0322 'International Tables Vol C Tables 4.2.6.8 and 6.1.1.4'

_shelx_space_group_comment
;
The symmetry employed for this shelxl refinement is uniquely defined
by the following loop, which should always be used as a source of
symmetry information in preference to the above space-group names.
They are only intended as comments.
;
_space_group_crystal_system        'tetragonal'
_space_group_IT_number             92
_space_group_name_H-M_alt          'P 41 21 2'
_space_group_name_Hall             'P 4abw 2nw'
loop_
  _space_group_symop_operation_xyz
 'x, y, z'
 '-x, -y, z+1/2'
 '-y+1/2, x+1/2, z+1/4'
 'y+1/2, -x+1/2, z+3/4'
 '-x+1/2, y+1/2, -z+1/4'
 'x+1/2, -y+1/2, -z+3/4'
 'y, x, -z'
 '-y, -x, -z+1/2'

_cell_length_a                     10.71321(6)
_cell_length_b                     10.71321(6)
_cell_length_c                     35.3431(3)
_cell_angle_alpha                  90
_cell_angle_beta                   90
_cell_angle_gamma                  90
_cell_volume                       4056.43(6)
_cell_formula_units_Z              8
_cell_measurement_reflns_used      16583
_cell_measurement_temperature      100.00(10)
_cell_measurement_theta_max        76.4840
_cell_measurement_theta_min        4.7980
_shelx_estimated_absorpt_T_max     ?
_shelx_estimated_absorpt_T_min     ?
_exptl_absorpt_coefficient_mu      0.652
_exptl_absorpt_correction_T_max    1.000
_exptl_absorpt_correction_T_min    0.473
_exptl_absorpt_correction_type     gaussian
_exptl_absorpt_process_details
;
CrysAlisPro 1.171.40.67a (Rigaku Oxford Diffraction, 2019)
Numerical absorption correction based on gaussian integration over
			a multifaceted crystal model
Empirical absorption correction using spherical harmonics,
 implemented in SCALE3 ABSPACK scaling algorithm.
;
_exptl_absorpt_special_details     ?
_exptl_crystal_colour              'light brown'
_exptl_crystal_colour_modifier     light
_exptl_crystal_colour_primary      brown
_exptl_crystal_density_diffrn      1.285
_exptl_crystal_density_meas        ?
_exptl_crystal_density_method      ?
_exptl_crystal_description         prism
_exptl_crystal_F_000               1648
loop_
  _exptl_crystal_face_index_h
  _exptl_crystal_face_index_k
  _exptl_crystal_face_index_l
  _exptl_crystal_face_perp_dist
 0 0 1 0.1087
 0 0 -1 0.0805
 0 -1 -1 0.1389
 0 2 -1 0.1628
 -1 0 -2 0.1572
 1 0 2 0.1251
 -1 0 2 0.1440
 0 -1 1 0.1304
 0 2 1 0.1452
 -2 0 1 0.1433
 2 0 -1 0.1563
 -4 -5 9 0.1533
 5 5 -5 0.1782
 0 -6 12 0.1235
 7 0 8 0.1235
 -4 4 10 0.1779

_exptl_crystal_size_max            0.303
_exptl_crystal_size_mid            0.297
_exptl_crystal_size_min            0.189
loop_
  _exptl_oxdiff_crystal_face_indexfrac_h
  _exptl_oxdiff_crystal_face_indexfrac_k
  _exptl_oxdiff_crystal_face_indexfrac_l
  _exptl_oxdiff_crystal_face_x
  _exptl_oxdiff_crystal_face_y
  _exptl_oxdiff_crystal_face_z
 0.0000 0.0002 1.0003 0.0378 0.0104 -0.0192
 -0.0000 -0.0002 -1.0003 -0.0378 -0.0104 0.0192
 0.0002 -0.9999 -1.0003 0.0321 -0.0969 0.1104
 -0.0005 1.9993 -1.0002 -0.1775 0.1627 -0.1631
 -1.0000 0.0000 -2.0007 -0.0591 0.0889 0.1298
 1.0000 -0.0000 2.0007 0.0591 -0.0889 -0.1298
 -0.9998 0.0008 2.0005 0.0920 0.1303 0.0530
 0.0003 -0.9995 1.0002 0.1076 -0.0762 0.0719
 -0.0004 1.9997 1.0004 -0.1019 0.1834 -0.2015
 -1.9998 0.0010 1.0001 0.0706 0.2296 0.1636
 1.9998 -0.0010 -1.0001 -0.0706 -0.2296 -0.1636
 -4.1777 -4.7850 9.3474 0.7562 0.1405 0.6391
 4.5555 5.0410 -4.9071 -0.6125 -0.1139 -0.7822
 0.1052 -5.9851 11.6787 0.8576 -0.4087 0.3121
 6.5527 -0.1356 7.7058 0.1927 -0.6504 -0.7348
 -4.4645 4.4518 9.6795 0.1280 0.9747 -0.1834

_exptl_transmission_factor_max     ?
_exptl_transmission_factor_min     ?
_diffrn_reflns_av_R_equivalents    0.0433
_diffrn_reflns_av_unetI/netI       0.0250
_diffrn_reflns_Laue_measured_fraction_full  1.000
_diffrn_reflns_Laue_measured_fraction_max  0.999
_diffrn_reflns_limit_h_max         12
_diffrn_reflns_limit_h_min         -13
_diffrn_reflns_limit_k_max         13
_diffrn_reflns_limit_k_min         -13
_diffrn_reflns_limit_l_max         44
_diffrn_reflns_limit_l_min         -44
_diffrn_reflns_number              27266
_diffrn_reflns_point_group_measured_fraction_full  1.000
_diffrn_reflns_point_group_measured_fraction_max  0.991
_diffrn_reflns_theta_full          67.684
_diffrn_reflns_theta_max           77.074
_diffrn_reflns_theta_min           4.312
_diffrn_ambient_environment        N~2~
_diffrn_ambient_temperature        100.00(10)
_diffrn_detector                   'Hybrid Pixel Array Detector'
_diffrn_detector_area_resol_mean   10.0000
_diffrn_detector_type              HyPix
_diffrn_measured_fraction_theta_full  1.000
_diffrn_measured_fraction_theta_max  0.999
_diffrn_measurement_details
;
List of Runs (angles in degrees, time in seconds):

  # Type    Start    End  Width  t~exp~   \w     \q     \k     \f   Frames
--------------------------------------------------------------------------
  1  \w    -74.00  20.00   0.50    0.05    --  -48.20  87.00  73.00  188
  2  \w   -133.00 -67.00   0.50    0.11    --  -86.25 -68.00  62.00  132
  3  \w   -117.00 -91.00   0.50    0.11    --  -86.25 -87.00 -43.00   52
  4  \w    108.00 134.00   0.50    0.11    --  107.75  87.00  73.00   52
  5  \w     90.00 169.00   0.50    0.11    --  107.75  68.00 -31.00  158
  6  \w     93.00 178.00   0.50    0.11    --  107.75  68.00-164.00  170
  7  \w   -117.00 -82.00   0.50    0.05    --  -48.20 -57.00 120.00   70
  8  \w    -21.00  20.00   0.50    0.05    --  -48.20  19.00  90.00   82
  9  \w    104.00 178.00   0.50    0.11    --  107.75  77.00 -90.00  148
 10  \w     95.00 132.00   0.50    0.11    --  107.75  45.00-180.00   74
 11  \w    138.00 178.00   0.50    0.11    --  107.75  45.00-180.00   80
 12  \w     38.00  67.00   0.50    0.11    --  107.75 -61.00-120.00   58
 13  \w     94.00 175.00   0.50    0.11    --  107.75  15.00 120.00  162
 14  \w     39.00  67.00   0.50    0.11    --  107.75 -61.00  60.00   56
 15  \w     40.00  68.00   0.50    0.11    --  107.75 -61.00   0.00   56
 16  \w    118.00 178.00   0.50    0.11    --  107.75  77.00-150.00  120
 17  \w     39.00  66.00   0.50    0.11    --  107.75-125.00-120.00   54
 18  \w     77.00 109.00   0.50    0.11    --  107.75-125.00-120.00   64
 19  \w    143.00 178.00   0.50    0.11    --  107.75  87.00  73.00   70
;
_diffrn_measurement_device         'four-circle diffractometer'
_diffrn_measurement_device_type    'XtaLAB Synergy, Dualflex, HyPix'
_diffrn_measurement_method         '\w scans'
_diffrn_orient_matrix_type        
 'CrysAlisPro convention (1999,Acta A55,543-557)'
_diffrn_orient_matrix_UB_11        -0.0164525000
_diffrn_orient_matrix_UB_12        -0.0698750000
_diffrn_orient_matrix_UB_13        0.0377743000
_diffrn_orient_matrix_UB_21        -0.1096173000
_diffrn_orient_matrix_UB_22        0.0865327000
_diffrn_orient_matrix_UB_23        0.0103366000
_diffrn_orient_matrix_UB_31        -0.0914555000
_diffrn_orient_matrix_UB_32        -0.0911931000
_diffrn_orient_matrix_UB_33        -0.0191850000
_diffrn_radiation_monochromator    mirror
_diffrn_radiation_probe            x-ray
_diffrn_radiation_type             'Cu K\a'
_diffrn_radiation_wavelength       1.54184
_diffrn_source                     'micro-focus sealed X-ray tube'
_diffrn_source_type                'PhotonJet (Cu) X-ray Source'
_reflns_Friedel_coverage           0.658
_reflns_Friedel_fraction_full      1.000
_reflns_Friedel_fraction_max       0.979
_reflns_number_gt                  4126
_reflns_number_total               4264
_reflns_odcompleteness_completeness  99.92
_reflns_odcompleteness_iscentric   1
_reflns_odcompleteness_theta       75.12
_reflns_special_details
;
 Reflections were merged by SHELXL according to the crystal
 class for the calculation of statistics and refinement.
 
 _reflns_Friedel_fraction is defined as the number of unique
 Friedel pairs measured divided by the number that would be
 possible theoretically, ignoring centric projections and
 systematic absences.
;
_reflns_threshold_expression       'I > 2\s(I)'
_computing_cell_refinement         'CrysAlisPro 1.171.40.67a (Rigaku OD, 2019)'
_computing_data_collection         'CrysAlisPro 1.171.40.67a (Rigaku OD, 2019)'
_computing_data_reduction          'CrysAlisPro 1.171.40.67a (Rigaku OD, 2019)'
_computing_molecular_graphics      'Olex2 1.3 (Dolomanov et al., 2009)'
_computing_publication_material    'Olex2 1.3 (Dolomanov et al., 2009)'
_computing_structure_refinement    'SHELXL 2018/3 (Sheldrick, 2015)'
_computing_structure_solution      'SHELXT 2018/2 (Sheldrick, 2018)'
_refine_diff_density_max           0.207
_refine_diff_density_min           -0.148
_refine_diff_density_rms           0.035
_refine_ls_abs_structure_details
;
 Flack x determined using 1615 quotients [(I+)-(I-)]/[(I+)+(I-)]
 (Parsons, Flack and Wagner, Acta Cryst. B69 (2013) 249-259).
;
_refine_ls_abs_structure_Flack     0.04(8)
_refine_ls_extinction_coef         0.00089(14)
_refine_ls_extinction_expression  
 'Fc^*^=kFc[1+0.001xFc^2^\l^3^/sin(2\q)]^-1/4^'
_refine_ls_extinction_method       'SHELXL-2018/3 (Sheldrick 2018)'
_refine_ls_goodness_of_fit_ref     1.008
_refine_ls_hydrogen_treatment      mixed
_refine_ls_matrix_type             full
_refine_ls_number_parameters       278
_refine_ls_number_reflns           4264
_refine_ls_number_restraints       0
_refine_ls_R_factor_all            0.0320
_refine_ls_R_factor_gt             0.0308
_refine_ls_restrained_S_all        1.008
_refine_ls_shift/su_max            0.001
_refine_ls_shift/su_mean           0.000
_refine_ls_structure_factor_coef   Fsqd
_refine_ls_weighting_details      
 'w=1/[\s^2^(Fo^2^)+(0.0448P)^2^+0.8761P] where P=(Fo^2^+2Fc^2^)/3'
_refine_ls_weighting_scheme        calc
_refine_ls_wR_factor_gt            0.0796
_refine_ls_wR_factor_ref           0.0804
_refine_special_details            ?
_olex2_refinement_description
;
1. Fixed Uiso
 At 1.2 times of:
  All C(H) groups, All N(H) groups
2.a Aromatic/amide H refined with riding coordinates:
 C2(H2A), C3(H3), C4(H4), C5(H5), C6(H6), C10(H10), C11(H11), C12(H12),
 C13(H13), C16(H16), C17(H17), C18(H18), C19(H19), C22(H22), C23(H23), C24(H24),
  C25(H25), C26(H26)
;
_atom_sites_solution_hydrogens     mixed
_atom_sites_solution_primary       dual
_atom_sites_solution_secondary     ?
loop_
  _atom_site_label
  _atom_site_type_symbol
  _atom_site_fract_x
  _atom_site_fract_y
  _atom_site_fract_z
  _atom_site_U_iso_or_equiv
  _atom_site_adp_type
  _atom_site_occupancy
  _atom_site_site_symmetry_order
  _atom_site_calc_flag
  _atom_site_refinement_flags_posn
  _atom_site_refinement_flags_adp
  _atom_site_refinement_flags_occupancy
  _atom_site_disorder_assembly
  _atom_site_disorder_group
 O1 O 0.89632(11) 0.83793(11) 0.21156(3) 0.0241(3) Uani 1 1 d . . . . .
 O2 O 0.50538(11) 0.78903(12) 0.27923(4) 0.0256(3) Uani 1 1 d . . . . .
 N1 N 0.70087(14) 0.76656(13) 0.22597(4) 0.0222(3) Uani 1 1 d . . . . .
 H1 H 0.638(2) 0.771(2) 0.2427(6) 0.027 Uiso 1 1 d . U . . .
 N2 N 0.32319(13) 0.88994(13) 0.29309(4) 0.0218(3) Uani 1 1 d . . . . .
 H2 H 0.282(2) 0.958(2) 0.2885(6) 0.026 Uiso 1 1 d . U . . .
 C1 C 0.69054(16) 0.66340(16) 0.20123(5) 0.0218(3) Uani 1 1 d . . . . .
 C2 C 0.76007(17) 0.64930(17) 0.16824(5) 0.0249(4) Uani 1 1 d . . . . .
 H2A H 0.820448 0.707885 0.161763 0.030 Uiso 1 1 calc R U . . .
 C3 C 0.73823(18) 0.54639(17) 0.14502(5) 0.0278(4) Uani 1 1 d . . . . .
 H3 H 0.784579 0.536612 0.122969 0.033 Uiso 1 1 calc R U . . .
 C4 C 0.64826(18) 0.45827(18) 0.15435(5) 0.0291(4) Uani 1 1 d . . . . .
 H4 H 0.633502 0.390728 0.138432 0.035 Uiso 1 1 calc R U . . .
 C5 C 0.58070(17) 0.47165(18) 0.18749(5) 0.0291(4) Uani 1 1 d . . . . .
 H5 H 0.521316 0.412229 0.194119 0.035 Uiso 1 1 calc R U . . .
 C6 C 0.60157(16) 0.57368(17) 0.21080(5) 0.0255(4) Uani 1 1 d . . . . .
 H6 H 0.555848 0.582369 0.233008 0.031 Uiso 1 1 calc R U . . .
 C7 C 0.79816(15) 0.84641(15) 0.22950(5) 0.0204(3) Uani 1 1 d . . . . .
 C8 C 0.77973(15) 0.94458(15) 0.25920(4) 0.0204(3) Uani 1 1 d . . . . .
 C9 C 0.66918(15) 1.01341(15) 0.26368(4) 0.0200(3) Uani 1 1 d . . . . .
 C10 C 0.65929(16) 1.09496(16) 0.29406(5) 0.0228(3) Uani 1 1 d . . . . .
 H10 H 0.586018 1.140185 0.297396 0.027 Uiso 1 1 calc R U . . .
 C11 C 0.75678(17) 1.11032(16) 0.31961(5) 0.0238(3) Uani 1 1 d . . . . .
 H11 H 0.747596 1.163188 0.340293 0.029 Uiso 1 1 calc R U . . .
 C12 C 0.86777(16) 1.04636(16) 0.31405(5) 0.0241(3) Uani 1 1 d . . . . .
 H12 H 0.934368 1.058215 0.330543 0.029 Uiso 1 1 calc R U . . .
 C13 C 0.87907(16) 0.96505(16) 0.28397(5) 0.0234(3) Uani 1 1 d . . . . .
 H13 H 0.954082 0.923222 0.280139 0.028 Uiso 1 1 calc R U . . .
 C14 C 0.56567(15) 1.01733(15) 0.23505(4) 0.0202(3) Uani 1 1 d . . . . .
 C15 C 0.44846(16) 0.96294(15) 0.24105(5) 0.0213(3) Uani 1 1 d . . . . .
 C16 C 0.35138(16) 0.98678(16) 0.21571(5) 0.0238(3) Uani 1 1 d . . . . .
 H16 H 0.273552 0.950854 0.219866 0.029 Uiso 1 1 calc R U . . .
 C17 C 0.36884(17) 1.06278(17) 0.18457(5) 0.0271(4) Uani 1 1 d . . . . .
 H17 H 0.303225 1.078501 0.168012 0.033 Uiso 1 1 calc R U . . .
 C18 C 0.48561(18) 1.11548(18) 0.17827(5) 0.0284(4) Uani 1 1 d . . . . .
 H18 H 0.498616 1.165926 0.157218 0.034 Uiso 1 1 calc R U . . .
 C19 C 0.58286(17) 1.09294(16) 0.20333(5) 0.0251(4) Uani 1 1 d . . . . .
 H19 H 0.660574 1.128766 0.198912 0.030 Uiso 1 1 calc R U . . .
 C20 C 0.42902(15) 0.87310(15) 0.27297(5) 0.0203(3) Uani 1 1 d . . . . .
 C21 C 0.27788(15) 0.81490(16) 0.32314(4) 0.0209(3) Uani 1 1 d . . . . .
 C22 C 0.18931(16) 0.86781(16) 0.34720(5) 0.0235(3) Uani 1 1 d . . . . .
 H22 H 0.163111 0.949625 0.343408 0.028 Uiso 1 1 calc R U . . .
 C23 C 0.14035(17) 0.79828(18) 0.37677(5) 0.0267(4) Uani 1 1 d . . . . .
 H23 H 0.081940 0.834041 0.392941 0.032 Uiso 1 1 calc R U . . .
 C24 C 0.17789(18) 0.67575(18) 0.38242(5) 0.0288(4) Uani 1 1 d . . . . .
 H24 H 0.145879 0.629613 0.402484 0.035 Uiso 1 1 calc R U . . .
 C25 C 0.26354(18) 0.62291(17) 0.35783(5) 0.0289(4) Uani 1 1 d . . . . .
 H25 H 0.287530 0.540220 0.361185 0.035 Uiso 1 1 calc R U . . .
 C26 C 0.31420(17) 0.69162(17) 0.32823(5) 0.0252(4) Uani 1 1 d . . . . .
 H26 H 0.371968 0.655330 0.311955 0.030 Uiso 1 1 calc R U . . .

loop_
  _atom_site_aniso_label
  _atom_site_aniso_U_11
  _atom_site_aniso_U_22
  _atom_site_aniso_U_33
  _atom_site_aniso_U_23
  _atom_site_aniso_U_13
  _atom_site_aniso_U_12
 O1 0.0193(6) 0.0226(6) 0.0304(6) -0.0017(5) 0.0041(5) 0.0016(5)
 O2 0.0205(6) 0.0238(6) 0.0324(6) 0.0039(5) 0.0044(5) 0.0039(5)
 N1 0.0182(7) 0.0191(7) 0.0292(7) -0.0022(6) 0.0041(6) 0.0009(5)
 N2 0.0197(7) 0.0187(7) 0.0270(7) 0.0034(5) 0.0025(6) 0.0033(6)
 C1 0.0202(8) 0.0205(8) 0.0246(8) -0.0007(6) -0.0034(6) 0.0027(6)
 C2 0.0269(9) 0.0234(8) 0.0242(8) 0.0014(6) -0.0010(7) 0.0024(7)
 C3 0.0307(9) 0.0293(9) 0.0233(8) -0.0020(7) -0.0028(7) 0.0058(7)
 C4 0.0312(9) 0.0245(9) 0.0317(9) -0.0051(7) -0.0115(8) 0.0053(7)
 C5 0.0238(9) 0.0254(9) 0.0380(9) -0.0015(7) -0.0053(8) -0.0018(7)
 C6 0.0216(8) 0.0249(9) 0.0301(8) -0.0008(7) 0.0012(7) -0.0002(7)
 C7 0.0180(7) 0.0182(7) 0.0251(7) 0.0028(6) 0.0001(6) 0.0021(6)
 C8 0.0194(8) 0.0180(7) 0.0236(7) 0.0022(6) 0.0030(6) -0.0014(6)
 C9 0.0189(8) 0.0167(7) 0.0242(7) 0.0016(6) 0.0021(6) -0.0019(6)
 C10 0.0211(8) 0.0209(8) 0.0265(8) 0.0008(6) 0.0022(6) 0.0015(6)
 C11 0.0263(9) 0.0204(8) 0.0246(8) -0.0013(6) 0.0009(7) -0.0017(6)
 C12 0.0224(8) 0.0238(8) 0.0261(8) 0.0016(7) -0.0025(6) -0.0023(7)
 C13 0.0185(8) 0.0213(8) 0.0304(8) 0.0016(7) 0.0002(6) 0.0013(6)
 C14 0.0192(8) 0.0179(7) 0.0234(7) -0.0010(6) 0.0012(6) 0.0027(6)
 C15 0.0205(8) 0.0187(8) 0.0247(8) -0.0010(6) 0.0014(6) 0.0029(6)
 C16 0.0206(8) 0.0242(8) 0.0266(8) -0.0015(7) 0.0000(7) 0.0012(6)
 C17 0.0252(9) 0.0287(9) 0.0274(8) -0.0001(7) -0.0050(7) 0.0037(7)
 C18 0.0313(9) 0.0279(9) 0.0260(8) 0.0066(7) -0.0007(7) 0.0011(7)
 C19 0.0230(8) 0.0246(8) 0.0277(8) 0.0015(7) 0.0025(7) -0.0013(7)
 C20 0.0167(7) 0.0188(7) 0.0254(7) -0.0018(6) -0.0002(6) 0.0000(6)
 C21 0.0183(7) 0.0215(8) 0.0228(7) 0.0008(6) -0.0002(6) -0.0011(6)
 C22 0.0220(8) 0.0208(8) 0.0276(8) -0.0019(7) 0.0017(7) -0.0004(6)
 C23 0.0238(8) 0.0296(9) 0.0265(8) -0.0017(7) 0.0043(7) -0.0012(7)
 C24 0.0292(9) 0.0305(9) 0.0268(8) 0.0058(7) 0.0026(7) -0.0033(8)
 C25 0.0296(9) 0.0241(9) 0.0329(9) 0.0059(7) 0.0010(8) 0.0017(7)
 C26 0.0230(8) 0.0236(8) 0.0290(8) 0.0016(7) 0.0023(7) 0.0042(7)

_geom_special_details
;
 All esds (except the esd in the dihedral angle between two l.s. planes)
 are estimated using the full covariance matrix.  The cell esds are taken
 into account individually in the estimation of esds in distances, angles
 and torsion angles; correlations between esds in cell parameters are only
 used when they are defined by crystal symmetry.  An approximate (isotropic)
 treatment of cell esds is used for estimating esds involving l.s. planes.
;
loop_
  _geom_bond_atom_site_label_1
  _geom_bond_atom_site_label_2
  _geom_bond_distance
  _geom_bond_site_symmetry_2
  _geom_bond_publ_flag
 O1 C7 1.231(2) . ?
 O2 C20 1.237(2) . ?
 N1 H1 0.90(2) . ?
 N1 C1 1.414(2) . ?
 N1 C7 1.354(2) . ?
 N2 H2 0.87(2) . ?
 N2 C20 1.350(2) . ?
 N2 C21 1.418(2) . ?
 C1 C2 1.392(2) . ?
 C1 C6 1.395(2) . ?
 C2 H2A 0.9300 . ?
 C2 C3 1.394(2) . ?
 C3 H3 0.9300 . ?
 C3 C4 1.389(3) . ?
 C4 H4 0.9300 . ?
 C4 C5 1.384(3) . ?
 C5 H5 0.9300 . ?
 C5 C6 1.387(3) . ?
 C6 H6 0.9300 . ?
 C7 C8 1.499(2) . ?
 C8 C9 1.404(2) . ?
 C8 C13 1.395(2) . ?
 C9 C10 1.388(2) . ?
 C9 C14 1.502(2) . ?
 C10 H10 0.9300 . ?
 C10 C11 1.390(2) . ?
 C11 H11 0.9300 . ?
 C11 C12 1.386(2) . ?
 C12 H12 0.9300 . ?
 C12 C13 1.380(2) . ?
 C13 H13 0.9300 . ?
 C14 C15 1.400(2) . ?
 C14 C19 1.395(2) . ?
 C15 C16 1.396(2) . ?
 C15 C20 1.498(2) . ?
 C16 H16 0.9300 . ?
 C16 C17 1.382(3) . ?
 C17 H17 0.9300 . ?
 C17 C18 1.390(3) . ?
 C18 H18 0.9300 . ?
 C18 C19 1.389(3) . ?
 C19 H19 0.9300 . ?
 C21 C22 1.395(2) . ?
 C21 C26 1.389(2) . ?
 C22 H22 0.9300 . ?
 C22 C23 1.387(2) . ?
 C23 H23 0.9300 . ?
 C23 C24 1.387(3) . ?
 C24 H24 0.9300 . ?
 C24 C25 1.385(3) . ?
 C25 H25 0.9300 . ?
 C25 C26 1.390(2) . ?
 C26 H26 0.9300 . ?

loop_
  _geom_angle_atom_site_label_1
  _geom_angle_atom_site_label_2
  _geom_angle_atom_site_label_3
  _geom_angle
  _geom_angle_site_symmetry_1
  _geom_angle_site_symmetry_3
  _geom_angle_publ_flag
 C1 N1 H1 113.2(14) . . ?
 C7 N1 H1 118.7(14) . . ?
 C7 N1 C1 127.67(15) . . ?
 C20 N2 H2 116.2(14) . . ?
 C20 N2 C21 127.31(15) . . ?
 C21 N2 H2 116.2(14) . . ?
 C2 C1 N1 124.14(16) . . ?
 C2 C1 C6 119.60(16) . . ?
 C6 C1 N1 116.24(15) . . ?
 C1 C2 H2A 120.4 . . ?
 C1 C2 C3 119.29(17) . . ?
 C3 C2 H2A 120.4 . . ?
 C2 C3 H3 119.5 . . ?
 C4 C3 C2 120.94(17) . . ?
 C4 C3 H3 119.5 . . ?
 C3 C4 H4 120.2 . . ?
 C5 C4 C3 119.56(17) . . ?
 C5 C4 H4 120.2 . . ?
 C4 C5 H5 120.0 . . ?
 C4 C5 C6 119.99(18) . . ?
 C6 C5 H5 120.0 . . ?
 C1 C6 H6 119.7 . . ?
 C5 C6 C1 120.60(17) . . ?
 C5 C6 H6 119.7 . . ?
 O1 C7 N1 124.28(15) . . ?
 O1 C7 C8 121.67(15) . . ?
 N1 C7 C8 113.97(14) . . ?
 C9 C8 C7 123.95(15) . . ?
 C13 C8 C7 116.68(14) . . ?
 C13 C8 C9 119.35(15) . . ?
 C8 C9 C14 124.17(14) . . ?
 C10 C9 C8 118.81(15) . . ?
 C10 C9 C14 116.57(14) . . ?
 C9 C10 H10 119.4 . . ?
 C9 C10 C11 121.30(16) . . ?
 C11 C10 H10 119.4 . . ?
 C10 C11 H11 120.2 . . ?
 C12 C11 C10 119.59(16) . . ?
 C12 C11 H11 120.2 . . ?
 C11 C12 H12 120.1 . . ?
 C13 C12 C11 119.76(16) . . ?
 C13 C12 H12 120.1 . . ?
 C8 C13 H13 119.5 . . ?
 C12 C13 C8 121.04(16) . . ?
 C12 C13 H13 119.5 . . ?
 C15 C14 C9 123.26(14) . . ?
 C19 C14 C9 117.39(15) . . ?
 C19 C14 C15 118.79(15) . . ?
 C14 C15 C20 120.41(15) . . ?
 C16 C15 C14 119.65(15) . . ?
 C16 C15 C20 119.82(15) . . ?
 C15 C16 H16 119.4 . . ?
 C17 C16 C15 121.20(17) . . ?
 C17 C16 H16 119.4 . . ?
 C16 C17 H17 120.4 . . ?
 C16 C17 C18 119.25(16) . . ?
 C18 C17 H17 120.4 . . ?
 C17 C18 H18 119.9 . . ?
 C19 C18 C17 120.14(16) . . ?
 C19 C18 H18 119.9 . . ?
 C14 C19 H19 119.5 . . ?
 C18 C19 C14 120.96(16) . . ?
 C18 C19 H19 119.5 . . ?
 O2 C20 N2 123.95(15) . . ?
 O2 C20 C15 120.72(15) . . ?
 N2 C20 C15 115.31(14) . . ?
 C22 C21 N2 117.34(15) . . ?
 C26 C21 N2 122.71(15) . . ?
 C26 C21 C22 119.89(16) . . ?
 C21 C22 H22 120.0 . . ?
 C23 C22 C21 119.91(16) . . ?
 C23 C22 H22 120.0 . . ?
 C22 C23 H23 119.8 . . ?
 C22 C23 C24 120.47(17) . . ?
 C24 C23 H23 119.8 . . ?
 C23 C24 H24 120.4 . . ?
 C25 C24 C23 119.25(17) . . ?
 C25 C24 H24 120.4 . . ?
 C24 C25 H25 119.5 . . ?
 C24 C25 C26 120.98(17) . . ?
 C26 C25 H25 119.5 . . ?
 C21 C26 C25 119.47(16) . . ?
 C21 C26 H26 120.3 . . ?
 C25 C26 H26 120.3 . . ?

loop_
  _geom_torsion_atom_site_label_1
  _geom_torsion_atom_site_label_2
  _geom_torsion_atom_site_label_3
  _geom_torsion_atom_site_label_4
  _geom_torsion
  _geom_torsion_site_symmetry_1
  _geom_torsion_site_symmetry_2
  _geom_torsion_site_symmetry_3
  _geom_torsion_site_symmetry_4
  _geom_torsion_publ_flag
 O1 C7 C8 C9 137.92(17) . . . . ?
 O1 C7 C8 C13 -43.4(2) . . . . ?
 N1 C1 C2 C3 -177.12(15) . . . . ?
 N1 C1 C6 C5 177.29(16) . . . . ?
 N1 C7 C8 C9 -45.2(2) . . . . ?
 N1 C7 C8 C13 133.47(16) . . . . ?
 N2 C21 C22 C23 179.13(16) . . . . ?
 N2 C21 C26 C25 -178.49(16) . . . . ?
 C1 N1 C7 O1 -2.0(3) . . . . ?
 C1 N1 C7 C8 -178.76(15) . . . . ?
 C1 C2 C3 C4 0.1(3) . . . . ?
 C2 C1 C6 C5 -0.9(3) . . . . ?
 C2 C3 C4 C5 -1.1(3) . . . . ?
 C3 C4 C5 C6 1.1(3) . . . . ?
 C4 C5 C6 C1 -0.1(3) . . . . ?
 C6 C1 C2 C3 0.9(3) . . . . ?
 C7 N1 C1 C2 -21.6(3) . . . . ?
 C7 N1 C1 C6 160.32(17) . . . . ?
 C7 C8 C9 C10 174.95(15) . . . . ?
 C7 C8 C9 C14 -13.1(2) . . . . ?
 C7 C8 C13 C12 -174.91(15) . . . . ?
 C8 C9 C10 C11 0.7(2) . . . . ?
 C8 C9 C14 C15 110.91(19) . . . . ?
 C8 C9 C14 C19 -77.8(2) . . . . ?
 C9 C8 C13 C12 3.8(2) . . . . ?
 C9 C10 C11 C12 2.2(3) . . . . ?
 C9 C14 C15 C16 170.22(15) . . . . ?
 C9 C14 C15 C20 -13.8(2) . . . . ?
 C9 C14 C19 C18 -170.98(16) . . . . ?
 C10 C9 C14 C15 -76.9(2) . . . . ?
 C10 C9 C14 C19 94.37(19) . . . . ?
 C10 C11 C12 C13 -2.1(3) . . . . ?
 C11 C12 C13 C8 -0.9(3) . . . . ?
 C13 C8 C9 C10 -3.7(2) . . . . ?
 C13 C8 C9 C14 168.31(15) . . . . ?
 C14 C9 C10 C11 -171.87(15) . . . . ?
 C14 C15 C16 C17 0.3(3) . . . . ?
 C14 C15 C20 O2 -45.3(2) . . . . ?
 C14 C15 C20 N2 135.98(16) . . . . ?
 C15 C14 C19 C18 0.7(3) . . . . ?
 C15 C16 C17 C18 0.5(3) . . . . ?
 C16 C15 C20 O2 130.73(17) . . . . ?
 C16 C15 C20 N2 -48.0(2) . . . . ?
 C16 C17 C18 C19 -0.8(3) . . . . ?
 C17 C18 C19 C14 0.2(3) . . . . ?
 C19 C14 C15 C16 -1.0(2) . . . . ?
 C19 C14 C15 C20 175.06(15) . . . . ?
 C20 N2 C21 C22 161.06(16) . . . . ?
 C20 N2 C21 C26 -21.7(3) . . . . ?
 C20 C15 C16 C17 -175.71(16) . . . . ?
 C21 N2 C20 O2 -2.6(3) . . . . ?
 C21 N2 C20 C15 176.06(15) . . . . ?
 C21 C22 C23 C24 -0.7(3) . . . . ?
 C22 C21 C26 C25 -1.3(3) . . . . ?
 C22 C23 C24 C25 -0.9(3) . . . . ?
 C23 C24 C25 C26 1.4(3) . . . . ?
 C24 C25 C26 C21 -0.3(3) . . . . ?
 C26 C21 C22 C23 1.8(3) . . . . ?

_shelx_res_file
;
TITL tf-37_a.res in P4(1)2(1)2
    tf-37-smart.res
    created by SHELXL-2018/3 at 11:40:47 on 22-Jul-2020
REM Old TITL tf-37 in P4(1)2(1)2
REM SHELXT solution in P4(1)2(1)2: R1 0.077, Rweak 0.021, Alpha 0.001
REM <I/s> 1.233 for 39 systematic absences, Orientation as input
REM Flack x = 0.079 ( 0.079 ) from 1595 Parsons' quotients
REM Formula found by SHELXT: C26 N2 O2
CELL 1.54184 10.713214 10.713214 35.34307 90 90 90
ZERR 8 0.000056 0.000056 0.000326 0 0 0
LATT -1
SYMM -X,-Y,0.5+Z
SYMM 0.5-Y,0.5+X,0.25+Z
SYMM 0.5+Y,0.5-X,0.75+Z
SYMM 0.5-X,0.5+Y,0.25-Z
SYMM 0.5+X,0.5-Y,0.75-Z
SYMM +Y,+X,-Z
SYMM -Y,-X,0.5-Z
SFAC C H N O
UNIT 208 160 16 16

L.S. 4 0 0
PLAN  5
CONF
BOND
list 4
MORE -1
BOND $H
fmap 2 53
acta
REM <olex2.extras>
REM <HklSrc "%.\\tf-37-smart.hkl">
REM </olex2.extras>

WGHT    0.044800    0.876100
EXTI    0.000890
FVAR       0.48911
O1    4    0.896319    0.837929    0.211559    11.00000    0.01930    0.02264 =
         0.03044   -0.00167    0.00408    0.00161
O2    4    0.505376    0.789034    0.279234    11.00000    0.02055    0.02378 =
         0.03241    0.00388    0.00439    0.00388
N1    3    0.700872    0.766562    0.225974    11.00000    0.01820    0.01908 =
         0.02923   -0.00219    0.00414    0.00088
H1    2    0.637715    0.771449    0.242743    11.00000   -1.20000
N2    3    0.323195    0.889940    0.293090    11.00000    0.01968    0.01872 =
         0.02703    0.00341    0.00249    0.00329
H2    2    0.281640    0.958445    0.288459    11.00000   -1.20000
C1    1    0.690545    0.663399    0.201228    11.00000    0.02019    0.02051 =
         0.02461   -0.00066   -0.00344    0.00275
C2    1    0.760068    0.649295    0.168245    11.00000    0.02691    0.02341 =
         0.02423    0.00141   -0.00101    0.00238
AFIX  43
H2A   2    0.820448    0.707885    0.161763    11.00000   -1.20000
AFIX   0
C3    1    0.738233    0.546388    0.145020    11.00000    0.03072    0.02933 =
         0.02335   -0.00204   -0.00281    0.00576
AFIX  43
H3    2    0.784579    0.536612    0.122969    11.00000   -1.20000
AFIX   0
C4    1    0.648261    0.458270    0.154345    11.00000    0.03120    0.02452 =
         0.03166   -0.00513   -0.01153    0.00527
AFIX  43
H4    2    0.633502    0.390728    0.138432    11.00000   -1.20000
AFIX   0
C5    1    0.580697    0.471651    0.187487    11.00000    0.02384    0.02535 =
         0.03802   -0.00149   -0.00532   -0.00184
AFIX  43
H5    2    0.521316    0.412229    0.194119    11.00000   -1.20000
AFIX   0
C6    1    0.601571    0.573676    0.210797    11.00000    0.02158    0.02488 =
         0.03008   -0.00078    0.00117   -0.00016
AFIX  43
H6    2    0.555848    0.582369    0.233008    11.00000   -1.20000
AFIX   0
C7    1    0.798163    0.846415    0.229501    11.00000    0.01797    0.01821 =
         0.02514    0.00281    0.00007    0.00209
C8    1    0.779725    0.944585    0.259201    11.00000    0.01943    0.01804 =
         0.02360    0.00216    0.00300   -0.00139
C9    1    0.669179    1.013408    0.263676    11.00000    0.01895    0.01670 =
         0.02422    0.00158    0.00207   -0.00187
C10   1    0.659292    1.094956    0.294064    11.00000    0.02114    0.02085 =
         0.02654    0.00079    0.00224    0.00150
AFIX  43
H10   2    0.586018    1.140185    0.297396    11.00000   -1.20000
AFIX   0
C11   1    0.756782    1.110325    0.319607    11.00000    0.02634    0.02038 =
         0.02461   -0.00133    0.00088   -0.00169
AFIX  43
H11   2    0.747596    1.163188    0.340293    11.00000   -1.20000
AFIX   0
C12   1    0.867768    1.046363    0.314053    11.00000    0.02237    0.02378 =
         0.02612    0.00159   -0.00252   -0.00231
AFIX  43
H12   2    0.934368    1.058215    0.330543    11.00000   -1.20000
AFIX   0
C13   1    0.879070    0.965047    0.283968    11.00000    0.01852    0.02128 =
         0.03042    0.00163    0.00018    0.00127
AFIX  43
H13   2    0.954082    0.923222    0.280139    11.00000   -1.20000
AFIX   0
C14   1    0.565673    1.017328    0.235050    11.00000    0.01921    0.01791 =
         0.02336   -0.00103    0.00122    0.00268
C15   1    0.448456    0.962944    0.241051    11.00000    0.02052    0.01866 =
         0.02472   -0.00101    0.00136    0.00288
C16   1    0.351382    0.986778    0.215711    11.00000    0.02060    0.02418 =
         0.02663   -0.00154    0.00004    0.00116
AFIX  43
H16   2    0.273552    0.950854    0.219866    11.00000   -1.20000
AFIX   0
C17   1    0.368837    1.062776    0.184569    11.00000    0.02525    0.02870 =
         0.02744   -0.00014   -0.00502    0.00370
AFIX  43
H17   2    0.303225    1.078501    0.168012    11.00000   -1.20000
AFIX   0
C18   1    0.485611    1.115476    0.178265    11.00000    0.03130    0.02785 =
         0.02598    0.00663   -0.00068    0.00106
AFIX  43
H18   2    0.498616    1.165926    0.157218    11.00000   -1.20000
AFIX   0
C19   1    0.582859    1.092939    0.203331    11.00000    0.02303    0.02462 =
         0.02770    0.00148    0.00247   -0.00131
AFIX  43
H19   2    0.660574    1.128766    0.198912    11.00000   -1.20000
AFIX   0
C20   1    0.429022    0.873103    0.272975    11.00000    0.01671    0.01881 =
         0.02543   -0.00178   -0.00016    0.00000
C21   1    0.277876    0.814896    0.323137    11.00000    0.01827    0.02149 =
         0.02285    0.00078   -0.00024   -0.00111
C22   1    0.189306    0.867812    0.347196    11.00000    0.02200    0.02084 =
         0.02764   -0.00190    0.00173   -0.00036
AFIX  43
H22   2    0.163111    0.949625    0.343408    11.00000   -1.20000
AFIX   0
C23   1    0.140351    0.798282    0.376773    11.00000    0.02381    0.02961 =
         0.02654   -0.00174    0.00431   -0.00118
AFIX  43
H23   2    0.081940    0.834041    0.392941    11.00000   -1.20000
AFIX   0
C24   1    0.177887    0.675747    0.382417    11.00000    0.02925    0.03046 =
         0.02682    0.00584    0.00263   -0.00325
AFIX  43
H24   2    0.145879    0.629613    0.402484    11.00000   -1.20000
AFIX   0
C25   1    0.263545    0.622913    0.357833    11.00000    0.02964    0.02411 =
         0.03288    0.00586    0.00099    0.00174
AFIX  43
H25   2    0.287530    0.540220    0.361185    11.00000   -1.20000
AFIX   0
C26   1    0.314202    0.691623    0.328227    11.00000    0.02298    0.02359 =
         0.02897    0.00156    0.00230    0.00419
AFIX  43
H26   2    0.371968    0.655330    0.311955    11.00000   -1.20000
AFIX   0
HKLF 4




REM  tf-37_a.res in P4(1)2(1)2
REM wR2 = 0.0804, GooF = S = 1.008, Restrained GooF = 1.008 for all data
REM R1 = 0.0308 for 4126 Fo > 4sig(Fo) and 0.0320 for all 4264 data
REM 278 parameters refined using 0 restraints

END

WGHT      0.0412      0.8260

REM Highest difference peak  0.207,  deepest hole -0.148,  1-sigma level  0.035
Q1    1   0.5152  0.8026  0.2508  11.00000  0.05    0.21
Q2    1   0.4965  0.7827  0.3100  11.00000  0.05    0.18
Q3    1   0.7082  0.7652  0.2483  11.00000  0.05    0.18
Q4    1   0.9016  0.8337  0.2406  11.00000  0.05    0.17
Q5    1   0.3255  0.8824  0.2724  11.00000  0.05    0.14
;
_shelx_res_checksum                94207
_shelx_hkl_file
;
   0   0   2    0.36    0.15
   0   0   3    1.12    0.29
   0   0   4 8662.29  249.91
   0   0   5    0.10    0.31
   0   0   6    0.80    0.46
   0   0   7    1.88    0.57
   0   0   8 2358.44   69.81
   0   0   9    4.46    1.77
   0   0  10    0.43    0.58
   0   0  11    0.12    0.76
   0   0  12 3069.17   91.44
   0   0  13    0.44    0.88
   0   0  14   -0.16    0.86
   0   0  15   -0.17    0.82
   0   0 -16 1464.24   44.98
   0   0 -17    0.78    0.99
   0   0 -18    1.12    1.16
   0   0 -19   -0.15    1.13
   0   0 -20 1150.47   36.95
   0   0 -21   -0.35    1.59
   0   0 -22    0.57    1.39
   0   0 -23    0.47    1.34
   0   0 -23    1.01    1.41
   0   0 -24   15.05    2.72
   0   0 -24   14.21    2.63
   0   0  24   11.28    1.92
   0   0 -25    0.80    1.44
   0   0  25    0.95    0.95
   0   0 -26    2.24    2.04
   0   0  26    0.40    1.00
   0   0 -27   -0.29    1.74
   0   0  27    1.69    1.24
   0   0 -28  427.64   18.54
   0   0  28  415.84   16.75
   0   0 -29    2.25    2.07
   0   0  29    0.46    1.24
   0   0 -30    1.65    2.14
   0   0  30   -1.18    1.42
   0   0 -31    0.68    2.22
   0   0  31    0.97    1.51
   0   0 -32  110.36    8.51
   0   0  32  121.07    7.56
   0   0 -33    1.03    2.11
   0   0  33    0.74    1.53
   0   0 -34    0.68    2.55
   0   0  34   -0.24    1.43
   0   0 -35    2.67    2.70
   0   0  35   -0.71    1.97
   0   0 -36 1221.49   41.95
   0   0 -36 1169.65   40.53
   0   0  36 1200.83   39.84
   0   0 -37    3.38    2.90
   0   0 -37    0.51    2.30
   0   0  37    3.83    1.86
   0   0 -38    0.29    2.00
   0   0 -38    0.48    1.79
   0   0  38   -0.78    1.26
   0   0 -39    2.91    2.41
   0   0 -39   -0.22    1.82
   0   0  39    0.70    1.11
   0   0 -40    2.63    1.91
   0   0 -40    1.61    1.52
   0   0  40    0.74    1.05
   0   0  41    0.64    1.48
   0   0 -41    1.06    1.41
   0   0 -41   -0.71    1.39
   0   0 -42    0.18    1.33
   0   0  42   -0.54    1.30
   0   0 -42   -0.31    1.16
   0   0  43    0.30    1.04
   0   0 -43    0.76    1.08
   0   0  44   -0.23    0.82
   0   0 -44    1.48    0.93
  -1   0   0    0.18    0.32
  -1   0   1  221.99    7.42
  -1   0   2  497.92   14.76
   1   0  -2  454.33   14.57
  -1   0  -3  117.24    4.19
  -1   0   3  110.63    4.18
   1   0  -3  105.27    4.12
  -1   0  -4  187.78    6.39
  -1   0   4  188.31    6.46
  -1   0   5 1687.07   50.52
  -1   0  -5 1753.34   50.50
  -1   0  -6 1618.35   47.49
  -1   0   6 1600.96   47.54
  -1   0   6 1646.64   48.62
  -1   0   7  661.87   19.90
  -1   0  -7  641.41   19.81
  -1   0   7  679.12   21.15
  -1   0  -8   28.29    1.47
  -1   0   8   24.28    1.44
  -1   0   8   23.81    2.13
   0   1   8   26.22    1.82
  -1   0   9  133.03    5.09
   0   1   9  132.77    5.80
  -1   0 -10  240.28    7.49
  -1   0  10  224.71    7.51
   0   1  10  237.79    8.74
  -1   0  11  119.41    3.86
  -1   0  11  126.74    6.10
   0   1  12  569.43   19.21
  -1   0  12  596.95   20.26
  -1   0  13 1085.04   35.00
   0   1  13 1080.48   34.03
  -1   0  14  102.14    6.00
   0   1  14  102.32    5.40
  -1   0 -15  175.46    7.55
   1   0 -15  177.85    7.37
   0   1  15  178.26    8.06
  -1   0  15  169.50    8.64
   0   1 -16  273.69   10.67
   1   0 -16  270.65   10.63
   0  -1 -16  279.42   10.77
   0   1  16  310.12   11.86
  -1   0  16  296.28   12.54
   0  -1 -17    1.46    1.04
   1   0 -17    1.94    1.08
   0   1 -17    0.90    0.99
  -1   0  17    2.27    1.31
   0   1  17    1.62    1.06
   0  -1 -18  228.28    9.50
   0   1 -18  217.47    9.27
   1   0 -18  218.06    9.29
   0   1  18  240.18   10.50
  -1   0  18  218.13   10.99
   0  -1 -19 1943.68   59.98
   0   1 -19 1948.39   59.86
   1   0 -19 1968.08   59.87
  -1   0  19 1973.70   62.51
   0  -1 -20  376.68   14.49
   0   1 -20  370.91   14.30
   1   0 -20  371.64   14.22
  -1   0  20  375.03   16.45
   0   1 -21   15.48    2.33
   1   0 -21   18.74    2.66
   1   0 -22    2.76    1.60
   0   1 -22    1.30    1.34
   0   1 -23   92.70    5.92
   1   0 -23   90.66    5.82
  -1   0 -23   79.97    5.98
   0  -1 -23   83.93    6.17
   1   0 -23   77.48    5.89
   0   1 -23   86.28    6.21
   1   0 -24   29.98    3.40
   0   1 -24   25.54    3.28
  -1   0 -24   25.89    3.43
   1   0 -24   34.33    3.81
   0   1 -24   26.24    3.55
   0  -1 -24   29.57    3.63
  -1   0  24   25.31    2.90
  -1   0 -24   23.43    3.01
  -1   0 -25    4.00    1.81
   0   1 -25    2.42    1.71
   0  -1 -25    4.31    1.80
   1   0 -25    2.91    1.65
   1   0 -25    5.14    2.03
  -1   0 -25    2.21    1.41
   0   1  25    1.99    1.07
  -1   0  25    2.19    1.15
   1   0 -26   24.37    3.40
   1   0 -26   22.62    3.49
   0   1 -26   24.11    3.55
   0  -1 -26   24.76    3.57
  -1   0 -26   25.50    3.54
   0   1  26   26.20    2.93
   0  -1  26   24.68    3.09
  -1   0 -26   20.53    2.97
  -1   0  26   17.67    2.63
   1   0 -27   90.10    6.59
   0  -1 -27  102.50    7.40
   0   1 -27   88.03    7.02
   1   0 -27  112.71    7.56
  -1   0 -27   82.57    6.84
   0  -1  27   88.80    6.09
   0   1  27   95.86    6.05
  -1   0  27   90.85    6.18
   1   0 -28    2.61    2.18
  -1   0 -28    2.77    2.27
   0  -1 -28    0.94    1.73
   0   1 -28    1.24    1.84
   1   0 -28    3.37    2.31
   0  -1  28    0.23    1.20
   1   0  28    2.38    1.35
  -1   0  28    0.23    1.34
   0   1  28    0.21    0.96
   0   1 -29   10.30    2.91
  -1   0 -29    7.35    2.79
   1   0 -29   13.66    3.08
   0  -1 -29   15.27    3.33
   1   0  29    9.86    2.12
  -1   0  29   12.93    2.47
   0  -1  29   14.00    2.52
   0   1  29    9.64    2.11
   0  -1 -30   53.59    5.77
  -1   0 -30   59.62    5.94
   1   0 -30   53.72    5.70
   0   1 -30   68.00    6.26
   1   0  30   54.21    4.76
   0   1  30   49.76    4.58
   0  -1  30   56.23    4.97
  -1   0  30   56.21    4.95
   0  -1 -31    7.20    2.81
   1   0 -31    3.36    2.41
   0   1 -31    7.39    2.83
   0   1  31    3.67    1.72
   0  -1  31    3.82    1.78
   1   0  31    5.40    1.84
  -1   0  31    5.03    1.74
   1   0 -32   43.51    5.33
   0  -1 -32   49.40    5.58
   0   1 -32   49.15    5.50
   0  -1  32   36.57    4.16
   0   1  32   37.62    3.99
   1   0  32   44.92    4.35
  -1   0  32   41.96    4.31
   0  -1 -33  107.61    8.49
   0   1 -33  108.83    8.45
   1   0 -33  120.46    8.74
   0  -1 -33  104.13    7.64
  -1   0  33  113.32    7.47
   0  -1  33  114.30    7.42
   0   1  33  112.07    7.07
   1   0  33  110.90    7.04
   0  -1 -34    6.93    3.06
   0   1 -34    5.01    2.92
   1   0 -34    4.37    2.58
  -1   0 -34    5.79    2.63
   0  -1 -34    3.47    2.44
   0  -1  34    5.84    2.03
   0   1  34    3.16    1.63
  -1   0  34    7.04    2.12
   1   0  34    5.38    1.90
   0  -1 -35  186.09   11.27
   0   1 -35  186.81   11.11
   1   0 -35  184.28   11.09
  -1   0 -35  181.39   10.31
   0  -1 -35  188.69   10.47
   1   0  35  177.80    9.37
  -1   0  35  177.35    9.61
   0  -1  35  170.08    9.58
   0   1  35  172.82    9.23
   0  -1 -36   19.63    4.02
   1   0 -36   17.45    3.72
   0   1 -36   19.69    3.88
   0  -1 -36   17.14    3.31
  -1   0 -36   18.79    3.55
   0  -1  36   15.40    2.89
   1   0  36   18.10    2.74
  -1   0  36   18.72    3.03
   0   1  36   16.03    2.60
   1   0 -37  416.94   18.35
   0  -1 -37  439.88   18.76
   0   1 -37  426.15   18.29
   1   0 -37  404.79   17.14
  -1   0 -37  413.89   17.51
   0  -1 -37  415.85   17.45
  -1   0  37  402.03   16.63
   0  -1  37  407.74   16.73
   1   0  37  430.31   16.54
  -1   0  38  147.74    9.53
   1   0 -38  151.65    9.46
   0   1 -38  171.33    9.85
   0  -1 -38  160.32    9.82
   1   0 -38  155.04    8.74
   0  -1 -38  161.42    9.07
  -1   0 -38  160.68    9.07
   0   1 -38  156.67    8.80
   0  -1  38  163.29    8.62
  -1   0  38  162.72    8.47
   1   0  38  158.46    8.13
   0   1 -39   37.75    4.47
   1   0 -39   46.26    4.73
  -1   0  39   37.85    4.49
   0  -1 -39   41.71    4.80
   0  -1 -39   37.13    4.08
  -1   0 -39   43.90    4.33
   1   0 -39   43.50    4.17
   0   1 -39   49.58    4.42
   1   0  39   41.26    3.52
   0  -1  39   40.93    3.87
   0  -1 -40    2.67    2.11
   0   1 -40    2.50    1.87
  -1   0  40    1.93    2.00
   1   0 -40    8.41    2.33
   0   1  40    5.40    2.06
   1   0 -40    5.52    2.00
   0  -1 -40    5.03    1.90
   0   1 -40    6.36    1.97
  -1   0 -40    5.88    2.05
   0  -1  40    6.12    1.60
   1   0  40    6.43    1.40
  -1   0  41    9.32    2.24
   1   0 -41   12.97    2.46
   0   1 -41   14.70    2.70
   0   1  41    9.08    2.30
   0   1 -41   13.87    2.31
  -1   0 -41   12.70    2.31
   0  -1 -41   15.03    2.38
   1   0 -41   14.48    2.30
   0  -1  41   15.04    2.07
   1   0  42    1.56    1.40
   0   1  42    2.81    1.53
  -1   0  42    4.51    1.71
   0   1 -42    2.60    1.59
   1   0 -42    7.62    1.67
   0  -1 -42    4.53    1.58
  -1   0 -42    4.77    1.58
   0   1 -42    4.75    1.65
   0   1  43   20.84    2.59
  -1   0  43   27.57    2.84
   0   1 -43   41.65    3.36
   0   1 -43   43.16    3.08
   1   0 -43   43.04    3.02
  -1   0 -43   47.62    3.30
   0  -1 -43   47.42    3.24
  -1   0  44   -0.11    0.77
   0   1  44    0.21    0.73
   1   0  44   -0.64    0.78
   0  -1  44   -0.10    0.67
   1   0 -44    0.70    0.72
   0   1 -44    1.05    0.85
  -1  -1   0  803.28   23.90
  -1  -1   0  763.66   23.44
  -1  -1   1  574.53   17.89
  -1  -1  -1  573.14   17.26
   1  -1  -1  567.80   18.28
  -1  -1   2  233.29    8.03
   1  -1  -2  230.54    8.39
  -1  -1   3   49.77    2.49
   1  -1  -3   43.10    2.65
  -1  -1  -4 3356.95  100.53
  -1  -1   4 3501.95  100.49
  -1  -1   4 3464.51  101.05
   1  -1  -4 3465.59  101.11
  -1  -1   5 2631.73   76.69
  -1  -1  -5 2585.89   76.76
  -1  -1   5 2640.91   77.52
  -1  -1   6 4205.69  123.91
  -1  -1  -6 4329.88  124.07
  -1  -1   6 4251.00  125.00
  -1  -1  -7 3676.58  107.27
  -1  -1   7 3569.35  107.09
  -1  -1   7 3916.56  108.76
  -1  -1  -8  704.29   22.12
  -1  -1   8  703.84   22.03
  -1  -1   9    5.63    0.83
  -1  -1  -9    7.23    0.94
  -1  -1   9    4.03    1.12
  -1  -1 -10   18.30    1.43
  -1  -1  10   21.88    1.53
  -1  -1  10   19.21    2.24
  -1   1 -11   10.26    0.96
  -1  -1  11    7.90    0.95
  -1   1  11   11.33    1.61
  -1  -1  11   10.34    1.71
  -1   1  12  151.95    5.66
  -1   1 -12  158.51    5.53
  -1  -1  12  186.78    8.37
  -1   1  12  177.12    7.58
  -1   1  13    3.89    0.55
  -1   1 -13    3.30    0.41
  -1  -1  13    4.21    1.32
  -1   1  13    4.56    1.25
  -1   1  14  609.68   21.51
  -1  -1  14  629.28   22.54
   1   1 -15  116.16    5.60
   1  -1 -15  118.49    5.67
  -1  -1  15  126.22    7.42
  -1   1  15  139.96    7.03
   1  -1 -16  112.30    5.58
   1   1 -16  106.08    5.44
  -1   1  16  121.34    6.73
  -1  -1  16  123.69    7.40
   1   1 -17   28.37    2.68
   1  -1 -17   29.66    2.76
  -1  -1  17   32.98    3.81
  -1   1  17   31.94    3.32
   1   1 -18   98.93    5.42
   1  -1 -18  106.31    5.64
  -1   1  18  104.04    6.62
   1  -1 -19  417.35   15.53
   1   1 -19  426.89   15.49
  -1   1  19  428.85   17.28
   1   1 -20  104.53    5.84
  -1   1  20  119.77    7.43
   1   1 -21   28.36    3.01
  -1   1  21   27.69    3.61
   1   1 -22   57.01    4.41
  -1   1  22   54.69    5.29
   1   1 -23  750.02   25.03
  -1   1 -23  712.68   25.92
  -1  -1 -23  733.82   26.04
   1   1 -23  705.51   25.82
   1  -1 -23  691.58   25.74
  -1  -1  23  691.87   24.66
  -1  -1 -23  678.80   24.86
  -1   1 -24   -0.26    1.56
   1   1 -24    0.21    1.67
   1  -1 -24   -0.25    1.20
  -1  -1 -24   -0.77    1.57
   1   1 -24    1.01    1.20
  -1   1 -24    1.42    1.34
  -1   1  24   -0.36    1.08
  -1  -1  24    0.40    1.14
  -1   1 -25    9.17    2.47
  -1  -1 -25    7.85    2.29
   1  -1 -25    9.41    2.49
   1   1 -25   10.36    2.42
   1   1 -25    8.58    2.29
  -1   1 -25    8.80    1.95
  -1   1  25    7.14    1.68
  -1  -1  25    8.58    2.02
   1  -1 -26   18.72    3.16
  -1  -1 -26   16.00    3.03
   1   1 -26   17.21    3.01
   1   1 -26   17.26    3.11
  -1   1 -26   17.57    3.24
   1   1  26   13.83    2.16
  -1  -1  26   17.42    2.70
  -1   1 -26   17.54    2.59
  -1   1  26   18.08    2.56
   1  -1 -27    3.57    1.96
  -1  -1 -27    3.00    2.09
  -1   1 -27    2.38    1.96
   1   1 -27    4.15    2.13
   1   1 -27    1.71    1.83
  -1   1 -27    2.68    1.42
   1   1  27    1.18    1.06
  -1  -1  27    2.32    1.28
  -1   1  27    2.13    1.23
   1   1 -28   58.97    5.21
  -1   1 -28   51.46    5.41
  -1  -1 -28   56.32    5.56
   1  -1 -28   54.44    5.53
   1   1 -28   47.87    5.23
   1   1  28   55.84    4.50
  -1   1 -28   46.32    4.46
  -1  -1  28   56.16    4.86
  -1   1  28   56.36    4.67
  -1  -1 -29   -0.65    2.33
   1  -1 -29    0.64    2.05
  -1   1 -29   -0.96    2.07
   1   1 -29   -0.64    1.99
   1   1  29    1.06    1.09
  -1   1  29    1.38    1.53
  -1  -1  29    2.01    1.54
  -1   1 -30  207.85   11.84
   1  -1 -30  206.60   11.86
   1   1 -30  208.44   11.79
   1   1  30  208.68   10.08
  -1   1  30  197.62   10.21
  -1  -1  30  201.69   10.65
   1  -1  30  205.46   10.49
   1  -1 -31  373.57   17.76
   1   1 -31  407.75   18.16
  -1  -1 -31  379.50   17.18
  -1  -1  31  365.52   16.44
   1   1  31  387.85   15.91
  -1   1  31  405.58   16.50
   1  -1  31  398.60   16.45
   1   1 -32  410.50   18.42
   1  -1 -32  392.60   18.31
  -1  -1 -32  385.20   17.49
   1  -1  32  413.80   16.82
  -1   1  32  396.25   16.59
   1   1  32  396.79   16.23
  -1  -1  32  402.91   17.09
   1   1 -33   80.30    7.11
   1  -1 -33   84.43    7.31
  -1  -1 -33   92.08    7.05
   1  -1  33   80.23    6.17
  -1   1  33   76.00    5.84
   1   1  33   78.95    5.69
  -1  -1  33   77.52    6.15
   1  -1 -34  292.67   14.87
   1   1 -34  290.13   14.69
  -1  -1 -34  305.26   14.25
  -1   1  34  280.86   12.95
   1  -1  34  279.17   12.99
   1   1  34  276.17   12.50
  -1  -1  34  276.03   13.31
   1  -1 -35    2.00    2.39
   1   1 -35    1.93    2.34
  -1  -1 -35    2.89    2.21
   1  -1 -35    1.35    2.21
  -1   1  35    0.68    1.42
  -1  -1  35    1.02    1.59
   1   1  35   -0.21    1.49
   1  -1  35    0.95    1.59
   1  -1 -36   33.11    4.69
   1   1 -36   39.69    4.93
   1  -1 -36   29.09    3.92
  -1  -1 -36   34.57    4.36
  -1   1  36   32.19    3.62
   1  -1  36   29.51    3.62
  -1  -1  36   34.44    4.00
   1   1 -37  139.34    8.94
   1  -1 -37  140.86    9.26
  -1  -1 -37  139.53    8.57
   1  -1 -37  142.48    8.44
  -1  -1  37  133.89    8.04
   1  -1  37  131.43    7.63
   1  -1 -38    0.86    2.19
  -1   1  38    1.14    2.02
   1   1 -38    1.08    1.92
   1  -1 -38    0.92    1.73
  -1  -1 -38    1.49    2.07
   1  -1  38   -0.20    1.37
  -1  -1  38    1.28    1.47
  -1   1  39  107.10    7.52
   1  -1 -39  136.37    8.39
   1   1 -39  127.30    7.96
  -1  -1 -39  122.68    7.51
   1  -1 -39  120.21    7.25
   1   1 -39  122.19    7.27
   1  -1  39  128.51    6.89
  -1  -1  39  118.36    6.98
  -1   1  40   11.73    2.53
   1  -1 -40   10.88    2.67
   1   1 -40   15.14    2.70
   1  -1 -40   10.94    2.30
   1   1 -40   13.89    2.42
  -1  -1 -40   11.24    2.57
   1  -1  40    8.94    1.84
   1   1 -41   12.37    2.41
  -1   1 -41   12.98    2.38
  -1   1  41   10.26    2.23
  -1  -1 -41   12.41    2.35
   1   1 -41   11.44    2.05
   1  -1 -41   14.61    2.31
   1  -1  41   10.65    1.72
   1   1 -42    4.04    1.60
   1   1  42    1.35    1.43
  -1   1  42    4.87    1.66
  -1   1 -42    8.45    1.91
   1  -1 -42    9.24    1.70
   1   1 -42    6.90    1.70
  -1  -1 -42    8.00    1.81
  -1  -1  42    5.80    1.33
  -1  -1  43    1.24    1.05
   1   1  43    1.77    1.09
   1  -1  43    1.86    1.06
  -1   1  43    3.36    1.28
   1  -1 -43    3.17    1.12
   1   1 -43    5.10    1.36
   1  -1  44    4.05    1.07
  -1   1  44    3.17    1.05
  -1  -1  44    4.49    1.11
   1   1  44    3.58    1.02
  -2   0   0  433.80   14.47
   0  -2   0  424.52   14.03
  -2   0   1  215.89    8.11
   0  -2   1  206.53    7.70
   0  -2  -1  213.73    7.77
  -2   0   2   42.04    2.70
   2   0  -2   35.59    2.40
   0  -2  -2   42.12    2.51
  -2   0   3  993.00   29.59
   2   0  -3  911.56   29.10
  -2   0  -4 4684.00  132.39
  -2   0   4 4604.51  132.40
   2   0  -4 4333.33  132.00
  -2   0   5  506.83   16.92
  -2   0  -5  538.81   16.95
   2   0  -5  497.68   16.68
  -2   0  -6  345.00   11.38
  -2   0   6  300.36   11.21
  -2   0  -7 5951.14  170.11
  -2   0   7 5730.82  170.17
  -2   0  -8   60.80    3.35
  -2   0   8   61.16    3.41
  -2   0   8   68.05    4.25
  -2   0   9 2171.92   65.40
  -2   0  -9 2186.04   65.34
  -2   0   9 2280.40   67.07
  -2   0 -10  511.97   16.16
  -2   0  10  475.98   16.17
  -2   0  10  487.06   17.78
  -2   0  11   32.37    2.26
  -2   0 -11   36.39    2.34
  -2   0  11   35.35    3.27
   0   2  11   39.26    2.63
  -2   0  12    2.12    0.65
  -2   0 -12    3.37    0.75
  -2   0  12    2.41    1.03
   0   2  12    2.89    0.82
  -2   0  13  702.80   22.44
  -2   0 -13  734.06   22.44
   0   2  13  710.93   23.35
  -2   0  13  758.02   25.48
   2   0 -14  106.42    5.05
  -2   0 -14   92.53    3.96
  -2   0  14   85.29    3.94
   0   2  14   96.43    4.98
  -2   0  14  106.92    6.50
   0   2 -15  459.32   15.40
  -2   0 -15  403.70   13.75
   0  -2 -15  464.66   15.55
   2   0 -15  445.36   15.46
   0   2  15  527.64   16.32
  -2   0  15  505.65   18.19
   2   0 -16   92.06    5.01
   0   2 -16   94.94    4.99
   0  -2 -16   95.00    5.07
   0   2  16  106.27    5.55
  -2   0  16   88.83    6.35
   0   2 -17    3.12    1.17
   0  -2 -17    2.49    1.26
   2   0 -17    2.03    1.12
   0   2  17    3.09    1.17
  -2   0  17    3.61    1.61
   2   0 -18  119.16    6.15
   0   2 -18  113.53    6.01
   0  -2 -18  119.85    6.25
  -2   0  18  127.36    8.00
   0   2  18  126.26    6.71
   2   0 -19    8.54    1.65
   0  -2 -19    8.37    1.82
   0   2 -19    7.73    1.71
   0   2  19    8.33    1.72
  -2   0  19    5.29    2.09
   2   0 -20  421.39   15.55
   0   2 -20  391.19   15.23
   0  -2 -20  428.07   15.71
  -2   0  20  388.85   17.80
   0   2 -21  129.88    6.96
   2   0 -21  133.95    7.11
   0  -2 -21  135.57    7.28
  -2   0  21  120.19    8.65
   2   0 -22  205.33    9.42
   0  -2 -22  191.45    9.37
   0   2 -22  192.71    9.21
   0   2 -22  173.67    9.65
   0  -2 -22  195.46   10.11
  -2   0  22  190.48   11.47
   2   0 -23   52.61    4.43
  -2   0  23   55.84    5.90
  -2   0 -23   56.68    4.91
   0   2 -23   46.72    4.73
   2   0 -23   52.71    4.77
   0  -2 -23   62.65    5.25
  -2   0 -23   46.72    4.10
  -2   0  23   48.45    4.13
   2   0 -24  101.34    6.38
   0   2 -24  103.08    7.03
  -2   0 -24   95.95    6.76
   2   0 -24   97.72    6.76
   0  -2 -24  101.21    7.06
  -2   0  24   89.21    5.99
  -2   0 -24   82.65    5.89
   2   0 -25  102.68    6.68
   2   0 -25  103.40    7.18
  -2   0 -25  113.61    7.45
   0  -2 -25  102.55    7.42
   0   2 -25  106.03    7.42
  -2   0 -25  100.64    6.55
  -2   0  25  106.75    6.68
   2   0 -26  233.37   11.36
   2   0 -26  235.44   12.04
  -2   0 -26  236.54   12.09
   0   2 -26  256.19   12.58
   0  -2 -26  244.64   12.53
  -2   0 -26  232.05   11.21
  -2   0  26  230.70   11.23
   2   0 -27  339.04   14.36
   2   0 -27  305.62   14.64
  -2   0 -27  308.96   14.75
   0   2 -27  323.82   15.19
   0  -2 -27  305.19   15.05
  -2   0  27  300.30   13.63
   0  -2  27  323.65   13.98
  -2   0 -27  304.23   13.79
   2   0 -28   15.75    3.20
   0   2 -28   15.67    3.16
  -2   0 -28   14.03    3.10
   2   0 -28   16.08    3.21
  -2   0 -28   12.38    2.69
   0  -2 -28   11.36    3.07
   0  -2  28   17.58    2.91
  -2   0  28   14.51    2.69
   0   2 -29  205.40   11.71
  -2   0 -29  196.46   11.30
   2   0 -29  202.67   11.38
   0  -2 -29  193.85   11.54
   2   0 -29  198.12   10.72
   0  -2 -29  201.02   10.79
  -2   0  29  197.75   10.39
   0  -2  29  185.05   10.24
   0   2 -30  500.25   21.28
   2   0 -30  536.02   21.54
  -2   0 -30  529.02   21.53
   0  -2 -30  479.00   21.33
   2   0 -30  494.47   20.23
   0  -2 -30  471.41   20.12
   0  -2  30  491.76   19.83
  -2   0  30  486.12   19.78
   0  -2 -31    8.41    2.86
   2   0 -31    1.31    2.12
   0   2 -31    2.67    2.49
   2   0 -31    4.24    2.71
  -2   0 -31    3.96    2.58
   0  -2 -31    5.22    2.47
   2   0  31    6.69    2.05
   0  -2  31    1.06    1.40
  -2   0  31    0.26    1.56
   0   2 -32  110.64    8.53
   2   0 -32  120.11    8.77
   0  -2 -32  129.62    9.35
  -2   0 -32  132.19    9.12
   0  -2 -32  131.25    8.52
  -2   0  32  122.21    7.93
   2   0  32  127.09    7.60
   0  -2  32  127.72    8.16
   2   0 -33  114.62    8.46
   0  -2 -33  115.55    8.71
  -2   0 -33  106.65    8.17
   0   2 -33  110.41    8.21
   0  -2 -33  100.38    7.55
  -2   0  33  102.11    7.36
   0  -2  33  116.02    7.66
   2   0  33  114.87    7.11
   2   0 -34  109.35    8.13
   0   2 -34  109.44    8.17
  -2   0 -34  104.80    8.00
   0  -2 -34  105.48    8.40
   0  -2 -34   95.24    7.33
   2   0  34  102.30    6.69
   0  -2  34  101.19    7.22
  -2   0  34  103.17    7.18
  -2   0  35   67.51    6.51
   0   2 -35   61.43    6.01
   2   0 -35   75.76    6.58
   0  -2 -35   67.92    6.72
  -2   0 -35   74.65    6.49
   0  -2 -35   69.66    6.07
   0  -2  35   74.05    5.84
  -2   0  35   66.13    5.51
   2   0  35   62.50    5.01
   0   2 -36   95.45    7.30
  -2   0 -36   89.55    7.17
   0  -2 -36   90.90    7.49
  -2   0  36  100.23    7.82
   2   0 -36   93.09    7.28
   0  -2 -36   93.16    6.96
  -2   0  36   95.56    6.68
   0  -2  36   87.72    6.41
   2   0  36   92.67    6.01
  -2   0 -37    1.97    2.07
   2   0 -37   -0.28    2.24
   0  -2 -37    4.98    2.82
  -2   0  37    0.93    2.13
   0   2 -37    1.40    2.06
   0  -2 -37    0.26    1.95
   2   0  37    1.68    1.21
   0  -2  37    0.91    1.43
  -2   0  38    9.20    2.75
   2   0 -38   13.69    2.92
  -2   0 -38    6.77    2.42
   0   2 -38   10.88    2.75
   2   0 -38    9.37    2.38
   0  -2 -38   10.88    2.65
   0  -2  38   11.62    2.35
   2   0  38    7.88    1.79
   2   0 -39    5.29    2.36
   0   2  39    2.69    1.96
   0  -2  39    2.61    1.82
  -2   0 -39    5.93    2.26
  -2   0  39    8.36    2.49
   0   2 -39    6.15    2.23
   2   0 -39    4.83    1.87
   0  -2 -39    9.03    2.37
   0  -2  39    4.59    1.74
   2   0  39    4.76    1.40
   0   2  40  237.54   12.51
   2   0 -40  347.68   13.88
  -2   0  40  297.64   13.54
   0   2 -40  345.34   13.71
  -2   0 -40  338.10   13.70
   0  -2 -40  338.20   13.25
   2   0 -40  347.47   12.88
  -2   0  40  294.09   12.05
   0  -2  40  337.57   12.77
   0   2 -41   34.50    3.58
   0   2  41   22.07    2.90
  -2   0  41   28.13    3.37
   2   0 -41   35.23    3.64
   2   0 -41   36.42    3.20
   0  -2 -41   34.60    3.37
   0  -2  41   32.82    3.04
  -2   0  41   27.74    2.55
   0   2  42   30.69    3.27
   0   2 -42   69.88    4.47
  -2   0  42   51.37    4.07
   0  -2  42   29.92    3.10
   2   0 -42   63.75    3.83
   0   2 -43   44.29    3.17
   0   2  43   14.13    2.03
  -2   0  43   24.58    2.56
   2   0 -43   38.41    2.60
  -2   0  44    8.84    1.43
   2   0  44    4.69    1.09
  -1  -2  43    2.53    1.05
   1   2  43    1.49    1.02
  -2   1  43    3.71    1.19
  -1   2 -43    4.83    1.34
   2  -1  43    1.05    0.98
  -1   2 -43    7.24    1.37
   2   1 -43    5.61    1.22
  -1  -2  43    2.82    0.89
  -1   2 -42   50.36    3.77
  -1  -2  42   27.37    2.85
   2   1 -42   44.15    3.51
  -2   1  42   25.82    3.06
  -1   2 -42   46.60    3.41
   2   1 -42   45.99    3.27
  -2   1  41   45.88    4.34
  -1   2 -41   70.34    4.90
  -1  -2  41   46.52    4.19
   1   2  41   33.45    3.68
   2   1 -41   70.21    4.93
  -2  -1 -41   68.49    4.72
  -1   2 -41   66.96    4.41
   1  -2 -41   66.20    4.39
   2   1 -41   64.19    4.28
   2  -1  41   59.40    3.65
  -1  -2  40   43.31    4.33
  -2   1  40   47.42    4.62
   2   1 -40   58.45    4.72
   2   1 -40   58.49    4.36
  -1   2 -40   57.22    4.46
  -2  -1 -40   60.84    4.81
   1  -2 -40   55.02    4.32
  -1  -2  40   61.73    4.47
   2  -1  40   52.05    3.72
  -1  -2  39    5.98    2.23
   2   1 -39    6.90    2.35
  -2  -1 -39   10.37    2.74
  -2   1  39    7.62    2.46
  -2  -1 -39   10.00    2.59
  -1   2 -39   12.58    2.46
   1  -2 -39    7.56    2.29
  -1  -2  39   10.85    2.23
   2  -1  39    7.38    1.70
  -2  -1 -38  452.15   18.47
  -2   1  38  429.25   18.38
  -1  -2  38  370.76   17.58
   2   1 -38  435.27   18.01
   1  -2 -38  444.96   17.46
  -1   2 -38  429.70   17.22
  -2  -1 -38  459.42   18.05
   2  -1  38  456.74   16.73
  -1  -2  38  452.76   17.46
   1  -2 -37    1.52    2.59
  -1  -2  37    0.86    1.83
  -2  -1 -37   -1.15    2.15
  -2   1  37   -0.30    2.19
   2   1 -37    1.10    1.92
  -2  -1 -37   -0.53    2.24
   1  -2 -37    1.43    1.80
  -1  -2  37    0.23    1.66
   2  -1  37    0.80    1.52
  -2   1  36  108.08    8.30
  -2  -1 -36  118.82    8.29
   1  -2 -36  112.86    8.44
   2   1 -36  119.46    8.19
  -2  -1 -36  110.15    7.81
   1  -2 -36  108.16    7.44
  -1  -2  36  118.97    7.59
   2  -1  36  106.94    6.77
   2   1 -35  207.48   11.43
  -2   1  35  224.16   12.13
  -2  -1 -35  192.03   11.35
   1  -2 -35  197.70   11.64
  -2  -1 -35  196.79   11.05
   1  -2 -35  186.90   10.40
  -1  -2  35  175.17   10.17
   2  -1  35  192.67    9.86
  -2  -1 -34   57.24    6.02
   2   1 -34   55.16    5.76
   1  -2 -34   55.71    6.14
   1  -2 -34   55.75    5.40
  -2  -1 -34   59.29    5.80
  -2   1  34   53.67    4.92
  -1  -2  34   50.35    5.12
   2  -1  34   59.19    4.99
  -2  -1 -33  384.50   17.64
   2   1 -33  366.59   17.21
   1  -2 -33  373.38   17.74
  -2  -1 -33  385.32   17.17
   1  -2 -33  376.51   16.49
  -1  -2  33  383.21   16.50
   2  -1  33  380.48   15.84
  -2   1  33  347.39   15.73
  -2  -1 -32  351.00   16.98
   1  -2 -32  363.37   17.35
   2   1 -32  372.27   17.01
   1  -2 -32  358.13   16.00
  -2  -1 -32  353.57   16.47
  -2   1  32  351.19   15.59
   2  -1  32  354.86   15.33
  -1  -2  32  368.33   16.17
  -2  -1 -31  178.74   11.09
   2   1 -31  170.81   10.59
   1  -2 -31  172.27   11.03
   1  -2 -31  177.96   10.09
  -2  -1 -31  175.36   10.48
  -1  -2  31  170.11    9.85
  -2   1  31  191.07    9.96
  -2  -1 -30    5.61    2.55
   2   1 -30    0.81    2.31
   2   1 -30    2.89    2.42
  -1   2 -30    2.93    2.46
   1  -2 -30    3.41    2.38
  -1  -2  30    2.71    1.89
  -2   1  30    2.51    1.57
   2   1 -29  149.42    8.85
  -1   2 -29  152.47    9.71
   2   1 -29  152.94    9.55
  -2  -1 -29  149.19    9.61
   1  -2 -29  144.90    9.64
  -1   2 -29  126.24    7.67
  -2   1  29  152.91    8.60
  -1  -2  29  140.49    8.66
   2   1 -28  110.61    7.45
  -2  -1 -28  120.80    8.39
  -1   2 -28  115.16    8.17
   1  -2 -28  119.03    8.44
   2   1 -28  112.21    8.02
  -2   1  28  110.23    7.14
  -1  -2  28  124.80    7.75
  -1   2 -28   97.13    6.44
   2   1 -27   37.25    4.23
   1  -2 -27   34.75    4.17
   2   1 -27   34.36    4.36
  -2  -1 -27   33.89    4.36
   1  -2 -27   45.04    4.95
  -1   2 -27   44.67    4.96
  -2   1  27   36.71    3.92
  -1  -2  27   37.57    4.00
  -1   2 -27   36.11    3.61
   1  -2 -26  136.66    8.19
   2   1 -26  143.20    8.12
   1  -2 -26  138.42    8.87
  -2  -1 -26  129.06    8.50
   2   1 -26  133.31    8.53
  -1   2 -26  139.70    8.77
  -1  -2  26  143.30    8.06
  -2  -1 -26  127.66    7.96
  -1   2 -26  124.38    7.21
  -2   1  26  132.26    7.75
   1  -2 -25  139.85    7.99
   2   1 -25  141.56    7.94
  -2  -1 -25  136.64    8.44
  -2   1  25  131.02    9.54
   2   1 -25  127.40    8.18
   1  -2 -25  126.70    8.44
  -1   2 -25  118.55    8.10
  -1  -2  25  140.55    7.81
  -2   1  25  138.66    7.63
  -2  -1 -25  124.06    7.73
  -1   2 -25  119.58    7.01
   1  -2 -24   45.43    4.25
   2   1 -24   46.77    4.26
  -2  -1 -24   42.67    4.42
  -1   2 -24   40.46    4.41
  -2   1  24   42.84    5.19
   2   1 -24   42.85    4.38
   1  -2 -24   46.76    4.65
  -2   1  24   42.04    3.89
  -1   2 -24   40.75    3.58
  -1  -2  24   37.60    3.86
  -2  -1 -24   41.39    4.09
   1  -2 -23  106.29    6.46
   2   1 -23   95.79    6.10
  -2   1  23   99.29    7.86
  -1   2 -23   93.43    6.67
   2   1 -23   87.47    6.42
  -2  -1 -23   92.59    6.60
   1  -2 -23   96.49    6.77
  -2  -1 -23   91.17    6.11
  -2   1  23  100.88    6.01
  -1  -2  23   93.78    5.98
   1  -2 -22   75.92    5.23
   2   1 -22   73.24    5.07
   2   1 -22   66.59    5.35
  -1   2 -22   77.02    5.75
  -2  -1 -22   71.83    5.49
   1  -2 -22   74.28    5.73
  -2   1  22   81.06    6.73
  -2  -1 -22   65.12    5.00
  -1  -2  22   67.41    4.90
   2   1 -21  181.39    8.67
   1  -2 -21  182.81    8.79
  -2   1  21  191.24   10.86
   1  -2 -20  107.59    5.99
   2   1 -20   94.70    5.64
  -2   1  20  101.76    7.30
   2   1 -19  134.13    6.84
   1  -2 -19  138.39    6.96
  -2   1  19  141.18    8.61
   2   1 -18  112.21    5.98
   1  -2 -18  121.67    6.20
  -2   1  18  123.35    7.73
   1  -2 -17  324.57   12.30
   2   1 -17  332.93   12.35
  -2   1  17  307.95   14.21
   1  -2 -16  265.42   10.31
   2   1 -16  260.75   10.25
  -2   1  16  262.36   12.09
   1  -2 -15 1585.09   45.26
   2   1 -15 1590.43   45.32
  -2   1  15 1351.44   43.93
  -2  -1 -15 1397.97   43.96
  -2   1  15 1710.14   48.11
   2   1 -14  266.43    9.96
  -2  -1 -14  270.19    9.48
  -2   1  14  247.31    9.35
  -2   1  14  275.18   11.73
  -2  -1 -13   44.15    2.83
  -2   1  13   46.61    2.88
  -2   1  13   49.40    4.01
  -2   1  12  155.12    6.63
  -2  -1 -12  174.16    6.82
  -2   1  12  178.46    8.52
   1   2  12  157.76    5.93
  -2   1  11  626.16   20.69
   1   2  11  614.32   19.50
  -2   1  10  440.42   15.15
  -2  -1 -10  464.95   15.13
   1   2  10  436.95   13.71
  -2  -1  -9  335.18   11.77
  -2   1   9  311.07   11.77
   1   2   9  320.15   10.23
  -1  -2   8  355.42   11.58
  -2  -1  -8  342.79   11.39
  -1  -2   7 2096.17   61.40
  -2  -1  -7 2001.44   61.17
  -2  -1  -6 3661.60  107.15
  -1  -2   6 3624.68  107.22
  -1  -2   5 9146.05  256.45
  -2  -1  -5 8632.04  254.24
  -1  -2   4 7448.32  209.90
  -2  -1  -4 7269.02  209.78
  -2  -1  -4 7137.61  208.02
  -2  -1  -3 1140.34   33.21
   2   1  -3 1072.64   33.09
  -1  -2   2  664.38   19.89
  -1  -2   2  610.46   17.85
  -2  -1  -2  621.82   18.52
  -2  -1  -1 2914.70   88.62
  -1  -2   1 3075.10   88.82
  -2  -1  -1 3012.21   87.71
  -1  -2   0  342.01   12.30
  -2  -1   0  341.66   12.26
  -2  -1   0  356.81   11.65
  -1  -2  -1 2976.65   88.53
  -2  -1   1 2982.99   88.47
  -2  -1   1 3015.42   87.95
  -2  -1   2  638.56   20.70
  -2  -1   2  647.66   20.40
   2  -1  -2  621.49   21.03
  -2  -1   3 1127.15   35.93
  -2  -1   3 1202.61   36.06
   2  -1  -3 1188.87   36.60
  -1  -2  -4 7023.18  208.24
  -2  -1   4 7223.72  208.15
   2  -1  -4 7236.59  208.68
  -2  -1   5 9844.82  286.94
  -1  -2  -5 9999.00  287.21
   2  -1  -5 9863.56  287.57
  -1  -2  -6 3688.59  107.14
  -2  -1   6 3625.69  106.85
   2  -1  -6 3583.71  107.55
  -1  -2  -7 1966.23   58.15
  -2  -1   7 1875.67   57.74
  -2  -1   7 1964.33   58.98
  -1  -2  -8  325.02   12.01
  -2  -1   8  327.66   11.70
  -2  -1   8  353.75   13.03
  -1  -2  -9  305.79   11.74
  -2   1  -9  344.17   11.74
  -2  -1   9  326.66   11.52
  -2  -1   9  328.68   12.85
  -2  -1  10  444.70   15.50
  -2   1 -10  476.69   15.72
  -2  -1  10  496.19   17.51
  -2   1 -11  642.67   20.98
  -2  -1  11  662.05   21.01
  -2  -1  11  659.85   23.17
  -2  -1  12  159.01    6.52
  -2   1 -12  157.55    6.47
  -2  -1  12  168.98    8.44
  -2  -1  13   48.36    2.92
  -2   1 -13   46.73    2.81
  -1   2  13   47.77    3.69
  -2  -1  13   51.92    4.42
   2  -1 -14  267.31   10.24
  -2  -1  14  262.36    9.65
  -2   1 -14  274.71    9.55
  -2  -1  14  295.74   12.73
  -1   2  14  270.41   11.23
  -2   1 -15 1524.01   47.40
   1   2 -15 1576.76   48.59
   2  -1 -15 1666.52   48.98
  -2  -1  15 1770.41   52.47
  -1   2  15 1668.80   50.32
   2  -1 -16  249.39   10.09
   1   2 -16  253.63    9.96
  -1   2  16  259.55   11.18
  -2  -1  16  285.05   12.92
   2  -1 -17  321.02   12.37
   1   2 -17  316.87   12.15
  -1   2  17  335.37   13.58
  -2  -1  17  342.90   15.17
   2  -1 -18  122.86    6.24
   1   2 -18  114.01    5.91
  -1   2  18  116.40    7.00
  -2  -1  18  118.07    8.12
   2  -1 -19  136.22    6.91
   1   2 -19  126.99    6.60
  -1   2  19  151.02    8.15
  -2  -1  19  132.93    9.00
   2  -1 -20   90.64    5.61
   1   2 -20   96.53    5.55
  -2  -1  20   99.54    7.65
  -1   2  20  104.15    6.77
   1   2 -21  177.20    8.48
  -1   2  21  185.79   10.00
  -2  -1  21  180.38   11.12
   1   2 -22   72.42    5.00
  -1  -2 -22   70.04    5.57
  -2   1 -22   72.69    5.57
   2  -1 -22   73.10    5.58
  -1   2  22   68.53    5.84
   1   2 -22   67.69    5.48
  -2  -1  22   78.76    5.21
   1   2 -23   94.98    5.92
   2  -1 -23   88.14    6.35
  -1  -2 -23   94.06    6.66
   1   2 -23   92.29    6.60
  -2   1 -23   79.75    6.10
  -1   2  23  100.73    7.21
  -2   1 -23   96.24    5.82
  -2  -1  23   80.61    5.60
   1   2 -24   43.42    4.04
  -1  -2 -24   45.40    4.73
  -2   1 -24   46.76    4.64
   1   2 -24   40.41    4.38
   2  -1 -24   36.55    4.19
  -2  -1  24   40.99    3.96
  -2   1 -24   40.86    3.77
   2  -1 -25  129.04    8.28
  -2   1 -25  146.33    8.71
   1   2 -25  129.52    8.52
  -1  -2 -25  139.48    8.71
   1   2 -25  135.03    7.74
  -1  -2 -25  139.37    8.33
  -2   1 -25  125.22    7.42
  -2  -1  25  136.39    7.83
  -1  -2 -26  143.20    9.07
   2  -1 -26  145.06    8.91
  -2   1 -26  136.55    8.64
   1   2 -26  124.67    8.53
   1   2 -26  137.24    8.00
  -1  -2 -26  133.84    8.37
  -2   1 -26  125.85    7.50
  -2  -1  26  138.75    8.02
  -1  -2 -27   36.91    4.58
  -2   1 -27   29.52    4.04
   1   2 -27   37.15    4.54
   2  -1 -27   37.93    4.45
   1   2 -27   43.04    4.28
  -1  -2 -27   32.90    4.13
  -2  -1  27   40.32    4.17
  -2   1 -27   34.80    3.81
  -1  -2 -28  121.20    8.55
   1   2 -28  115.96    8.28
  -2   1 -28  111.72    8.11
   2  -1 -28  121.10    8.36
  -1  -2 -28  123.00    8.13
  -2   1 -28  121.18    7.37
  -2  -1  28  111.22    7.43
  -2   1 -29  149.56    9.57
   1   2 -29  148.87    9.65
   2  -1 -29  150.39    9.56
  -1  -2 -29  154.17    9.33
  -2   1 -29  135.62    8.25
  -2  -1  29  143.19    8.75
   2   1  29  145.49    7.94
   2  -1 -30    2.61    2.21
   1   2 -30    3.94    2.32
  -2   1 -30    1.60    1.96
  -1  -2 -30    3.89    2.18
  -2   1 -30    5.24    1.91
  -2  -1  30    0.27    1.59
   1  -2  30    3.33    1.74
   2   1  30    2.57    1.43
   2  -1 -31  179.01   10.97
   1   2 -31  175.11   10.87
  -2   1 -31  173.79   10.75
  -1  -2 -31  183.53   10.61
   2   1  31  184.06    9.26
  -2  -1  31  171.23    9.92
   1  -2  31  184.80   10.02
   2  -1 -32  358.28   17.08
  -2   1 -32  355.75   16.91
   1   2 -32  383.62   17.40
  -1  -2 -32  368.11   16.75
  -2  -1  32  360.36   16.12
   2   1  32  361.67   15.02
   1  -2  32  366.87   15.87
   1   2 -33  377.62   17.26
   2  -1 -33  370.94   17.38
  -2   1 -33  386.08   17.32
  -1  -2 -33  359.17   16.64
   2   1  33  346.52   14.89
   1  -2  33  383.94   16.07
  -2  -1  33  360.41   16.28
   2  -1 -34   50.44    5.66
   1   2 -34   54.57    5.76
  -2   1 -34   52.60    5.65
  -2   1 -34   48.19    5.14
  -1  -2 -34   54.90    5.61
   1  -2  34   55.77    5.03
  -2  -1  34   56.57    5.29
   2  -1 -35  206.54   11.66
   1   2 -35  195.53   11.30
  -2   1 -35  193.51   11.18
  -2   1 -35  194.31   10.69
   2  -1 -35  196.51   10.45
  -1  -2 -35  184.34   10.79
  -2  -1  35  199.64   10.58
   1  -2  35  208.26   10.44
   1   2 -36  116.94    8.16
  -2   1 -36  107.35    7.76
   2  -1 -36  121.67    8.30
   2  -1 -36   88.61    6.66
  -1  -2 -36  110.62    7.78
  -2   1 -36  109.26    7.38
   1  -2  36  115.90    7.21
  -2  -1  36  109.01    7.31
  -1   2  37    0.29    1.90
   2  -1 -37   -1.15    2.43
  -2   1 -37    1.35    1.99
   1   2 -37   -1.38    1.98
   2  -1 -37    0.23    1.70
  -2   1 -37    0.48    2.02
  -1  -2 -37    2.62    2.12
   1  -2  37    0.65    1.47
  -2  -1  37    0.70    1.46
   2  -1 -38  455.04   18.38
  -2   1 -38  422.98   17.75
  -1   2  38  374.94   17.69
   1   2 -38  425.47   17.86
  -2   1 -38  436.79   17.34
  -1  -2 -38  439.25   17.77
   2  -1 -38  441.15   17.10
   1  -2  38  461.07   17.08
  -2   1 -39   11.50    2.59
   2  -1 -39    7.53    2.50
  -1   2  39   11.93    2.61
   1   2 -39    8.12    2.58
   2  -1 -39    9.04    2.18
  -1  -2 -39    8.21    2.45
  -2   1 -39    8.44    2.39
   1  -2  39    8.14    2.02
  -1   2  40   42.53    4.33
   1   2 -40   58.47    4.87
  -2   1 -40   54.52    4.63
   1   2 -40   58.74    4.40
   2  -1 -40   51.24    4.14
  -2   1 -40   59.50    4.58
  -1  -2 -40   54.45    4.54
   1  -2  40   55.46    4.11
  -1   2  41   44.30    4.18
  -2   1 -41   63.75    4.65
   1   2 -41   70.77    4.98
  -1  -2 -41   71.28    4.86
  -2   1 -41   75.42    4.72
   1   2 -41   81.95    4.78
   2  -1 -41   60.84    4.14
  -2  -1  41   66.06    4.22
   1  -2  41   66.33    4.13
  -2   1 -42   43.42    3.49
  -1   2  42   22.70    2.90
  -2  -1  42   29.95    3.24
   1   2 -42   43.79    3.58
   2  -1 -42   42.93    3.05
  -2   1 -42   45.77    3.40
   1   2 -42   46.65    3.34
  -2  -1  42   38.36    2.84
   1  -2  42   42.39    2.95
   1  -2  43    1.28    0.94
   1   2 -43    4.19    1.33
   2   1  43    1.45    1.03
  -1   2  43    2.10    1.06
  -2  -1  43    2.90    1.15
   1   2 -43    4.79    1.23
   2  -1 -43    3.04    0.92
  -2   1 -43    4.08    1.22
   1   2 -44   10.06    1.33
  -2  -2   0  330.61   12.45
  -2  -2   0  336.98   11.69
  -2  -2   1  120.95    6.06
  -2  -2  -1  132.97    6.18
   2  -2  -1  122.56    6.58
  -2  -2   1  128.26    5.72
  -2  -2   2 7315.25  211.87
  -2  -2   2 7352.28  211.55
   2  -2  -2 7073.79  212.57
  -2  -2   3  517.78   17.87
   2  -2  -3  524.10   18.60
  -2  -2   3  520.58   17.77
  -2  -2  -4   14.04    1.95
  -2  -2   4   12.57    1.81
  -2  -2   4   14.41    1.92
   2  -2  -4   13.13    1.98
  -2  -2   5  765.11   25.33
  -2  -2  -5  801.13   25.63
  -2  -2   5  776.03   25.82
   2  -2  -5  777.54   26.20
  -2  -2   6 5930.47  175.11
  -2  -2  -6 6138.30  175.44
   2  -2  -6 5878.61  176.08
  -2  -2  -7  133.53    6.51
  -2  -2   7  138.85    6.43
  -2  -2   8  373.31   13.59
  -2  -2  -8  375.61   13.87
  -2  -2   9  402.17   14.47
  -2  -2  -9  405.22   14.72
  -2  -2  10 4754.88  138.77
  -2  -2 -10 4723.67  139.02
  -2  -2  10 4653.76  140.63
  -2  -2 -11  867.39   28.36
  -2  -2  11  887.23   28.17
  -2  -2  11  864.22   30.22
  -2  -2 -12  396.50   14.60
  -2  -2  12  396.61   14.44
  -2  -2  12  441.80   17.07
  -2  -2  13   66.82    4.03
  -2  -2 -13   69.61    4.30
  -2  -2  13   62.56    5.39
   2   2 -14 3403.20  103.90
  -2  -2  14 3534.65  104.41
  -2   2 -14 3537.01  104.16
   2  -2 -14 3590.76  104.18
  -2  -2  14 3653.89  108.11
   2  -2 -15  198.12    8.09
   2   2 -15  182.44    7.82
  -2   2  15  171.96    7.72
  -2   2 -15  194.42    7.75
  -2  -2  15  202.30   10.67
  -2   2  15  204.69    9.97
  -2   2 -16  484.66   16.83
   2  -2 -16  525.76   17.83
   2   2 -16  514.71   17.65
  -2  -2  16  549.10   21.56
  -2   2  16  536.73   20.03
   2  -2 -17   61.61    4.09
   2   2 -17   63.78    4.06
  -2   2  17   65.11    5.21
   2  -2 -18   90.52    5.28
   2   2 -18   91.46    5.19
  -2   2  18   93.44    6.65
   2  -2 -19  107.65    6.01
   2   2 -19   98.23    5.68
   2  -2 -20  301.62   12.17
   2   2 -20  289.02   11.88
  -2   2  20  290.23   13.95
  -2   2  21   69.63    6.06
   2   2 -21   68.23    4.71
   2  -2 -21   67.76    4.86
  -2  -2 -21   76.61    5.48
  -2  -2  21   56.35    4.56
  -2  -2 -21   65.76    5.07
   2  -2 -22  870.25   31.03
  -2  -2 -22  883.29   31.16
  -2   2  22  895.49   32.62
   2   2 -22  884.84   30.96
  -2   2 -22  884.11   30.86
   2   2 -22  882.38   29.76
   2  -2 -22  913.65   30.13
  -2  -2 -22  923.35   31.09
  -2  -2  22  877.21   30.17
  -2   2 -22  857.95   29.36
  -2  -2 -23   66.99    5.58
  -2   2  23   62.23    6.00
   2  -2 -23   58.33    5.31
   2   2 -23   59.16    5.28
  -2   2 -23   68.65    5.48
   2   2 -23   68.14    4.94
   2  -2 -23   70.66    5.20
  -2  -2 -23   59.63    5.18
  -2   2 -23   59.52    4.44
  -2  -2  23   65.84    5.02
  -2  -2 -24   23.32    3.43
  -2   2  24   18.78    3.45
  -2   2 -24   15.08    2.28
  -2   2 -24   14.36    2.83
   2  -2 -24   19.55    2.97
   2  -2 -24   15.96    2.95
   2   2 -24   15.32    2.66
   2   2 -24   17.02    2.97
  -2  -2 -24   14.02    2.80
  -2  -2  24   19.28    2.80
   2   2 -25  104.71    7.24
  -2   2  25   93.64    7.82
   2  -2 -25   92.01    7.03
  -2   2 -25   90.12    6.78
  -2  -2 -25  100.46    7.30
   2   2 -25   99.53    6.41
   2  -2 -25  104.03    6.72
  -2  -2 -25   94.71    6.92
  -2   2 -25   82.43    5.67
  -2  -2  25   88.40    6.31
   2   2 -26  357.67   16.04
   2  -2 -26  354.44   16.20
  -2  -2 -26  347.18   16.14
  -2   2 -26  345.80   15.80
   2  -2 -26  388.28   15.55
   2   2 -26  365.63   15.03
  -2  -2 -26  337.95   15.68
  -2  -2  26  353.96   15.25
  -2   2 -26  322.14   14.16
  -2   2 -27  202.69   11.14
   2  -2 -27  194.60   11.17
   2   2 -27  200.56   11.13
  -2  -2 -27  185.00   11.03
   2  -2 -27  215.63   10.79
   2   2 -27  196.49   10.21
  -2  -2 -27  206.62   11.20
  -2  -2  27  198.52   10.51
  -2   2 -27  183.85    9.59
   2  -2 -28  163.83   10.28
  -2  -2 -28  158.21   10.20
   2   2 -28  170.05   10.16
  -2   2 -28  172.45   10.25
   2  -2 -28  181.41    9.91
   2   2 -28  166.81    9.38
  -2  -2 -28  180.04   10.35
  -2  -2  28  174.98    9.75
  -2   2 -28  162.36    8.85
   2  -2 -29   52.49    5.66
  -2  -2 -29   45.53    5.39
   2   2 -29   53.97    5.46
  -2   2 -29   46.45    5.24
   2  -2 -29   56.70    5.39
   2   2 -29   49.13    4.89
  -2  -2 -29   54.16    5.56
  -2  -2  29   48.16    4.89
  -2   2 -29   52.13    4.65
   2   2 -30  191.77   11.19
   2  -2 -30  187.57   11.36
  -2   2 -30  192.65   11.18
  -2  -2 -30  198.76   11.71
   2   2 -30  184.68   10.35
  -2  -2 -30  207.32   11.45
  -2  -2  30  187.25   10.57
  -2   2 -30  186.56    9.77
  -2  -2 -31  230.70   12.68
   2  -2 -31  210.66   12.27
  -2   2 -31  212.08   11.96
   2   2 -31  234.73   12.41
  -2  -2 -31  233.24   12.36
  -2  -2  31  217.72   11.57
  -2   2 -31  195.22   10.35
  -2   2 -32   79.26    6.95
  -2  -2 -32  101.68    8.03
   2  -2 -32   91.32    7.60
   2   2 -32   91.21    7.45
  -2  -2 -32   95.71    7.49
   2  -2 -32   97.19    6.86
  -2  -2  32   94.65    7.15
   2  -2  32   87.34    6.51
   2   2 -33  157.65    9.97
  -2   2 -33  162.47   10.04
   2  -2 -33  156.38   10.18
  -2  -2 -33  153.04   10.14
  -2  -2 -33  153.16    9.89
   2  -2 -33  150.83    8.93
   2  -2  33  164.40    9.03
  -2  -2  33  158.40    9.57
   2  -2 -34  337.98   16.47
  -2  -2 -34  370.79   17.07
  -2   2  34  346.90   16.62
  -2  -2  34  369.49   17.06
   2   2 -34  344.03   16.24
  -2   2 -34  349.30   16.15
   2  -2 -34  339.00   15.16
  -2  -2 -34  353.44   16.32
  -2  -2  34  359.92   15.91
   2  -2  34  347.27   15.08
  -2   2  35    1.59    1.88
  -2  -2  35    5.16    2.46
  -2  -2 -35    4.83    2.52
   2  -2 -35    4.47    2.58
  -2   2 -35    2.03    2.13
   2   2 -35    3.82    2.43
  -2   2 -35    2.75    1.96
   2  -2 -35    3.13    1.90
  -2  -2 -35    5.01    2.58
  -2  -2  35    5.05    2.22
   2  -2  35    2.31    1.70
  -2  -2  36    0.61    1.97
  -2   2  36    0.30    1.60
  -2  -2 -36    0.31    2.10
   2  -2 -36    3.34    2.24
   2   2 -36    1.12    2.00
  -2   2 -36   -0.27    2.04
  -2  -2 -36    0.28    2.19
   2  -2 -36    2.74    1.72
  -2   2 -36   -0.71    1.88
  -2  -2  36    0.25    1.66
   2  -2  36    0.44    1.71
  -2   2 -37   84.75    6.45
  -2   2  37   77.24    6.54
  -2  -2  37   82.79    6.72
   2   2 -37   87.32    6.56
  -2   2 -37   78.72    5.84
   2  -2 -37   82.82    5.84
  -2  -2 -37   84.88    6.50
  -2  -2  37   80.12    6.07
   2  -2  37   82.23    5.70
  -2   2  38    1.82    1.92
  -2  -2  38    2.59    1.81
  -2   2 -38    5.36    2.17
   2   2 -38    3.82    1.91
   2  -2 -38    4.64    1.80
  -2  -2 -38    4.84    2.25
  -2   2 -38    0.20    1.64
  -2  -2  38    3.05    1.75
   2  -2  38    2.04    1.42
  -2   2 -39   15.11    2.71
  -2  -2  39   17.14    3.00
  -2   2  39   17.55    2.93
   2   2 -39   23.91    3.22
   2  -2 -39   16.61    2.53
  -2  -2 -39   19.68    3.13
  -2   2 -39   17.83    2.63
   2  -2  39   22.26    2.65
  -2  -2  40   10.07    2.36
  -2   2  40   16.83    2.69
   2   2 -40   16.51    2.66
  -2   2 -40   16.59    2.61
   2  -2 -40   15.10    2.23
  -2   2 -40   16.27    2.39
   2  -2  40   16.33    2.18
  -2   2 -41    1.73    1.44
  -2  -2  41    0.85    1.20
   2   2 -41    2.28    1.41
  -2   2  41    1.39    1.28
  -2   2 -41    1.69    1.26
   2  -2 -41    1.07    1.12
   2   2 -41    2.80    1.41
   2  -2  41    1.31    0.95
  -2  -2  42    0.67    0.99
   2   2 -42    1.07    1.16
   2   2  42   -0.13    0.97
  -2   2 -42    0.64    1.08
   2  -2  42   -0.50    1.02
  -2   2  42    0.84    1.13
   2   2 -42    1.52    1.07
  -2   2 -42    0.12    0.97
  -2  -2  42    2.16    0.94
   2  -2  42    1.00    0.69
  -2   2  43   28.77    2.54
   2   2 -43   68.82    3.29
  -2   2 -43   68.62    3.22
  -3   0   0    0.85    0.94
   0  -3   0    0.22    0.68
  -3   0  -1  236.11    9.88
  -3   0   1  243.58    9.93
   0  -3  -1  240.79    9.37
   0  -3   1  246.69    9.38
  -3   0   2   79.42    4.72
   0  -3   2   83.67    4.36
   3   0  -2   70.32    4.31
   0  -3  -2   81.33    4.38
  -3   0   3  815.44   25.81
   3   0  -3  744.96   25.09
  -3   0  -4   29.76    2.68
   3   0  -4   27.84    2.38
  -3   0  -5  587.31   19.86
  -3   0   5  586.13   19.98
   3   0  -5  566.29   19.33
  -3   0  -6    1.82    0.98
  -3   0   6    3.27    1.15
   3   0  -6    2.67    0.93
  -3   0   7 3694.38  112.44
  -3   0  -7 3893.42  112.51
  -3   0  -8   37.66    3.08
  -3   0   8   39.87    3.20
  -3   0  -9  645.51   21.79
  -3   0   9  636.93   21.86
  -3   0   9  665.38   23.32
  -3   0 -10   10.56    1.66
  -3   0  10    9.08    1.60
  -3   0  10    8.65    1.92
  -3   0  11  570.18   20.01
  -3   0 -11  597.22   20.00
  -3   0  11  597.87   21.75
   3   0 -12  143.66    6.53
  -3   0  12  136.18    6.74
  -3   0 -12  160.21    7.01
  -3   0  12  161.16    8.48
  -3   0 -13  467.61   15.92
   3   0 -13  429.58   15.55
  -3   0  13  445.20   15.79
  -3   0  13  456.34   18.12
   3   0 -14   73.63    4.25
  -3   0  14   64.46    4.01
  -3   0 -14   68.96    4.09
  -3   0  14   63.43    5.39
   0   3  14   67.88    4.07
  -3   0  15  149.04    6.96
   0  -3 -15  167.40    7.25
  -3   0 -15  170.36    7.14
   0   3 -15  161.65    7.06
   3   0 -15  158.81    7.31
  -3   0  15  184.94    9.84
   0   3  15  166.85    7.39
   3   0 -16   97.68    5.32
   0   3 -16   89.55    4.90
   0  -3 -16   94.34    5.12
  -3   0 -16   83.85    4.53
  -3   0  16   95.15    6.95
   0   3  16   96.76    5.20
   0   3 -17   69.92    4.31
   3   0 -17   66.06    4.40
   0  -3 -17   70.85    4.43
  -3   0  17   75.19    6.24
   0   3 -18  272.20   11.14
   3   0 -18  274.83   11.40
   0  -3 -18  293.62   11.51
  -3   0  18  293.46   14.34
   0  -3 -19    7.75    1.85
   0   3 -19    7.92    1.67
   3   0 -19   11.78    2.10
  -3   0  19   13.20    2.92
   3   0 -20   13.55    2.27
  -3   0  20   11.83    2.83
   0  -3 -21  174.55    9.58
  -3   0  21  178.98   11.23
   0   3 -21  161.25    9.17
   3   0 -21  167.31    8.49
   0  -3  21  177.00    8.25
  -3   0  21  169.42    8.55
  -3   0 -21  163.90    8.36
  -3   0 -22  194.99    9.94
   0   3 -22  202.40   10.35
   0  -3 -22  190.44   10.47
  -3   0  22  200.34   12.24
   3   0 -22  189.77    9.84
   3   0 -22  187.89    9.36
   0  -3 -22  195.05    9.64
   0  -3  22  199.29    9.14
  -3   0  22  193.89    9.52
  -3   0 -22  187.99    9.36
   0  -3 -23   31.63    3.97
  -3   0 -23   25.80    3.33
  -3   0  23   27.06    4.42
   3   0 -23   25.73    3.35
   3   0 -23   20.45    3.02
   0   3 -23   20.29    3.23
   0  -3  23   22.57    2.77
   0  -3 -23   24.89    3.18
  -3   0  23   23.67    3.02
  -3   0 -23   24.80    3.05
   0  -3 -24   -0.30    1.67
  -3   0  24   -1.31    2.18
  -3   0 -24    1.52    1.36
   3   0 -24    0.50    1.36
   3   0 -24    0.89    1.68
  -3   0 -24    0.25    1.38
   0   3 -24   -0.55    1.77
   0  -3 -24   -0.47    1.30
  -3   0  24    0.23    1.29
  -3   0  25   83.53    7.94
  -3   0 -25   76.56    6.14
   0  -3 -25   87.45    6.98
   3   0 -25   76.17    6.05
   0   3 -25   69.53    6.04
   3   0 -25   79.09    5.93
   0  -3 -25   82.82    6.14
  -3   0 -25   78.41    5.79
  -3   0  25   81.92    5.97
   0  -3 -26  177.79   10.46
   3   0 -26  152.56    9.38
   0   3 -26  159.95    9.77
  -3   0 -26  170.21    9.74
   3   0 -26  180.07    9.42
   0  -3 -26  170.15    9.48
  -3   0 -26  154.55    9.27
  -3   0  26  169.17    9.29
  -3   0 -26  154.05    9.05
   0  -3  26  169.35    9.17
  -3   0 -27   16.63    3.01
   0  -3 -27   16.31    3.63
  -3   0 -27   14.82    3.05
   3   0 -27   20.17    3.42
   0   3 -27   21.13    3.72
   3   0 -27   16.91    3.35
   0  -3 -27   16.54    3.12
  -3   0 -27   23.03    3.62
  -3   0  27   16.28    2.97
   0  -3  27   17.92    3.09
   0  -3 -28 1038.09   37.78
  -3   0 -28 1053.85   36.93
   3   0 -28 1046.14   36.85
   0   3 -28 1040.35   37.12
   3   0 -28 1043.07   36.00
   0  -3 -28 1044.47   36.27
  -3   0 -28 1068.50   36.69
  -3   0 -28  964.67   35.66
   0  -3  28 1082.73   36.21
  -3   0  28 1048.06   36.19
   3   0 -29   49.97    5.35
   0   3 -29   48.00    5.48
   0  -3 -29   46.08    5.58
  -3   0 -29   57.33    5.73
   3   0 -29   53.10    5.30
   0  -3 -29   44.94    4.95
  -3   0 -29   59.83    5.64
  -3   0 -29   51.61    5.15
  -3   0  29   56.47    5.24
   0  -3  29   53.49    5.12
  -3   0 -30  422.27   18.73
   0   3 -30  408.26   18.76
   0  -3 -30  429.06   19.53
  -3   0  30  454.60   19.88
   3   0 -30  410.53   18.54
   3   0 -30  429.01   18.05
  -3   0 -30  413.55   18.28
   0  -3 -30  411.91   18.08
  -3   0  30  455.25   18.38
   0  -3  30  442.70   18.12
  -3   0 -30  400.14   17.73
   0  -3 -31   10.47    3.26
  -3   0  31   13.53    3.25
  -3   0 -31   11.64    2.94
   3   0 -31   13.52    3.10
   3   0 -31    8.63    2.88
   0   3 -31    9.79    3.00
   0  -3 -31   16.02    3.28
  -3   0 -31   11.03    2.94
  -3   0  31   12.57    2.76
   0  -3  31   13.16    2.71
   0  -3 -32   16.59    3.75
  -3   0  32   14.23    3.46
   0   3 -32   17.18    3.56
  -3   0 -32   16.92    3.39
   3   0 -32   23.83    3.79
   3   0 -32   16.46    3.51
   0  -3 -32   23.32    3.69
  -3   0 -32   17.22    3.31
  -3   0  32   16.40    3.03
   0  -3  32   24.94    3.67
   3   0 -33   48.56    5.27
  -3   0 -33   47.18    5.25
   0  -3 -33   50.65    5.83
   0   3 -33   42.66    5.14
  -3   0  33   48.88    5.76
   3   0 -33   50.99    5.21
   0  -3 -33   49.52    5.11
  -3   0 -33   45.72    5.00
   3   0  33   47.78    4.34
   0  -3  33   50.10    5.01
  -3   0  33   51.80    4.98
  -3   0 -34   25.77    4.03
   3   0 -34   36.15    4.59
  -3   0  34   35.01    4.95
   0   3 -34   27.33    4.19
  -3   0 -34   32.89    4.29
   0  -3 -34   24.13    3.79
   0  -3  34   29.05    3.95
   3   0  34   34.44    3.54
  -3   0  35  119.72    8.68
   0   3 -35  112.91    8.02
  -3   0 -35   98.21    7.49
   3   0 -35  111.61    7.83
   0  -3 -35  105.90    7.48
  -3   0 -35  118.45    7.83
   3   0  35  110.69    6.59
   0  -3  35  116.59    7.58
   0   3 -36   63.98    5.80
  -3   0 -36   57.50    5.45
   3   0 -36   57.34    5.61
  -3   0  36   62.75    6.10
  -3   0 -36   62.54    5.61
   0  -3 -36   61.19    5.42
   3   0  36   66.28    4.73
   0  -3  36   61.93    5.24
  -3   0  37   26.16    4.02
   3   0 -37   25.67    3.58
  -3   0 -37   20.78    3.38
   0   3 -37   23.30    3.62
  -3   0 -37   26.24    3.57
   0  -3 -37   26.07    3.53
   3   0  37   25.84    2.82
  -3   0  37   21.52    3.15
   0  -3  37   30.13    3.51
   0  -3  38    2.26    1.73
  -3   0  38    8.99    2.69
   3   0 -38    5.58    2.06
  -3   0 -38    7.52    2.39
   0   3  38    2.90    1.94
   0   3 -38    4.29    2.12
  -3   0 -38    4.24    1.96
   3   0 -38    7.64    2.01
   0  -3 -38    4.39    2.03
   0  -3  38    4.96    1.83
   3   0  38    5.35    1.43
  -3   0  38    5.30    1.74
   0   3  39    1.73    1.45
   3   0 -39    3.74    1.88
  -3   0 -39    5.87    1.99
  -3   0  39    2.69    1.78
   0  -3  39    2.39    1.58
   0   3 -39    3.87    2.06
   0  -3 -39    3.73    1.91
   3   0 -39    4.14    1.63
  -3   0 -39    7.24    2.08
  -3   0  39    1.69    1.34
   0  -3  39    6.14    1.84
   0   3  40   32.57    3.74
   0   3 -40   64.33    4.77
  -3   0  40   57.01    4.88
   0  -3  40   32.30    3.60
   0   3 -40   61.84    4.33
   3   0 -40   64.45    4.20
  -3   0 -40   66.50    4.67
   0  -3  40   69.59    4.53
  -3   0  40   58.97    4.07
   0   3 -41    0.33    1.23
   0  -3  41    0.14    0.95
   0   3  41    0.77    1.13
  -3   0  41    0.37    1.45
  -3   0 -41    0.46    1.23
   0   3 -41   -1.65    1.46
   3   0 -41    0.48    1.01
   0  -3  41    0.70    1.03
   0   3 -42   99.56    4.89
  -3   0  42   77.13    4.50
   0   3 -42  101.01    4.51
   3   0 -42   73.13    3.64
   0  -3  42   91.31    4.29
   0   3 -43   54.46    3.29
   0   3 -43   57.46    2.98
  -1   3 -43   25.28    2.20
  -1   3 -43   25.15    1.95
  -1  -3  43   21.56    1.87
  -3   1  42   55.94    3.78
  -1   3 -42   74.59    4.13
   3   1 -42   71.13    3.58
  -1   3 -42   84.92    3.95
  -1   3 -41   20.08    2.63
  -1  -3  41    8.83    1.75
   1   3  41    6.86    1.80
  -3   1  41   20.19    2.67
  -1   3 -41   21.06    2.36
   3   1 -41   23.29    2.35
   3  -1  41   15.27    1.64
  -3   1  40   24.76    3.14
   1   3  40   10.02    2.20
  -1  -3  40   10.15    2.00
  -1   3 -40   20.11    2.88
   3   1 -40   18.29    2.66
  -1   3 -40   20.13    2.57
   3   1 -40   20.58    2.53
  -1  -3  40   20.00    2.60
   3  -1  40   19.27    2.10
   3   1 -39   22.69    3.04
  -1  -3  39   15.17    2.72
  -3   1  39   25.25    3.46
   1  -3 -39   22.78    2.83
  -1   3 -39   19.57    2.68
   3  -1  39   19.69    2.32
  -1  -3  39   26.98    3.12
  -3   1  38  171.36    9.61
   3   1 -38  180.90    9.28
   1  -3 -38  159.61    8.47
  -1   3 -38  177.16    8.65
   3  -1  38  165.96    7.95
  -1  -3  38  174.30    8.98
   3   1 -37  129.11    7.99
  -3   1  37  144.35    8.84
  -1  -3  37  108.78    7.59
  -3  -1 -37  122.30    8.03
   1  -3 -37  114.14    7.26
   3  -1  37  131.86    7.00
  -1  -3  37  132.06    7.88
  -3   1  37  128.24    7.21
  -1  -3  36  111.60    7.84
   3   1 -36  134.81    8.41
  -3  -1 -36  125.54    8.34
  -3   1  36  139.62    9.26
   1  -3 -36  129.03    7.85
  -3   1  36  132.80    7.64
  -1  -3  36  131.39    8.14
   3  -1  36  122.82    7.08
  -1  -3  35  201.69   11.75
  -3   1  35  252.40   13.11
   3   1 -35  253.33   12.41
  -3  -1 -35  229.86   12.29
   1  -3 -35  228.06   11.42
  -1  -3  35  232.11   11.70
   3  -1  35  235.23   10.88
  -3   1  35  219.13   11.10
  -3  -1 -34   27.53    4.22
  -3   1  34   33.80    4.86
   3   1 -34   26.43    3.83
   1  -3 -34   24.79    3.70
   3  -1  34   27.37    3.32
  -1  -3  34   28.15    3.83
   1  -3 -33  111.28    8.63
  -3   1  33  114.41    8.58
  -3  -1 -33  107.10    8.14
   3   1 -33  106.66    7.82
   1  -3 -33  106.46    7.40
  -1  -3  33  113.51    7.74
  -3  -1 -32   19.83    3.63
  -3   1  32   21.76    3.90
   1  -3 -32   18.84    3.98
   3   1 -32   18.50    3.54
   3   1 -32   18.02    3.59
   1  -3 -32   23.35    3.53
  -1  -3  32   21.96    3.55
  -3  -1 -31   21.90    3.84
  -3   1  31   27.94    4.32
   1  -3 -31   22.81    4.19
   3   1 -31   24.80    3.84
   3   1 -31   24.80    3.75
  -3  -1 -31   24.87    4.17
   1  -3 -31   22.02    3.56
  -1  -3  31   20.07    3.47
  -3  -1 -30  203.72   11.56
   3   1 -30  179.87   10.91
  -3   1  30  223.36   12.41
   1  -3 -30  190.11   11.72
   3   1 -30  199.87   10.79
  -3  -1 -30  204.28   11.46
   1  -3 -30  193.49   10.52
  -1  -3  30  204.86   10.91
  -3   1  30  198.42   10.66
  -1   3 -29   41.10    5.02
   3   1 -29   50.14    5.17
  -3  -1 -29   49.81    5.36
   1  -3 -29   39.77    5.25
  -3   1  29   42.11    5.13
   3   1 -29   40.01    4.56
  -3  -1 -29   48.18    5.14
   1  -3 -29   36.31    4.31
  -1  -3  29   39.40    4.45
  -3   1  29   39.67    4.44
   1  -3 -28   12.96    3.25
  -3  -1 -28    8.92    2.66
  -1   3 -28    9.36    2.79
   3   1 -28   12.18    2.86
   3   1 -28   11.02    2.75
   1  -3 -28   10.86    2.53
  -3  -1 -28    7.86    2.59
  -3   1  28    8.37    2.26
  -1  -3  28    8.32    2.32
  -3   1  27   61.34    6.88
  -3  -1 -27   63.77    5.87
  -1   3 -27   61.08    5.89
   3   1 -27   63.77    5.77
   1  -3 -27   67.22    6.36
   3   1 -27   66.48    5.57
   1  -3 -27   66.89    5.53
  -3  -1 -27   60.06    5.74
  -3   1  27   64.41    5.36
  -1  -3  27   64.85    5.43
  -3  -1 -27   53.80    5.24
   3   1 -26  499.97   20.34
  -3   1  26  458.21   22.57
  -3  -1 -26  500.78   20.47
  -1   3 -26  497.51   20.64
   1  -3 -26  507.49   21.31
   3   1 -26  503.32   19.61
   1  -3 -26  481.80   19.55
  -3  -1 -26  524.75   20.71
  -3  -1 -26  489.55   19.82
  -1  -3  26  527.19   20.04
  -3   1  26  503.67   19.79
  -1   3 -25   48.88    5.10
  -3  -1 -25   54.20    5.14
  -3   1  25   44.15    5.84
   3   1 -25   52.53    5.01
   1  -3 -25   50.51    5.27
   3   1 -25   51.43    4.64
   1  -3 -25   55.51    4.91
   1  -3 -25   49.81    4.53
  -3  -1 -25   55.30    5.13
  -1  -3  25   46.57    4.54
  -3   1  25   49.05    4.57
  -3  -1 -25   46.89    4.61
   1  -3 -24   40.14    4.66
  -3   1  24   27.92    4.62
  -3  -1 -24   38.05    4.30
  -1   3 -24   35.91    4.23
   3   1 -24   32.04    3.88
   3   1 -24   37.87    3.94
   1  -3 -24   35.28    3.88
  -3  -1 -24   40.91    4.30
   1  -3 -24   37.59    3.95
  -3   1  24   40.24    4.05
  -1  -3  24   33.93    3.68
  -3  -1 -24   36.12    3.95
  -3   1  23  283.54   15.42
   1  -3 -23  296.04   13.97
  -3  -1 -23  289.29   13.26
   3   1 -23  282.23   13.04
  -1   3 -23  276.89   13.32
   3   1 -23  309.57   12.76
   1  -3 -23  314.50   12.99
  -3  -1 -23  275.71   13.14
   1  -3 -23  269.94   12.43
  -3  -1 -23  271.86   12.56
  -3   1  23  287.25   12.62
   1  -3 -22  161.80    9.27
  -3   1  22  145.68   10.13
  -1   3 -22  137.73    8.42
  -3  -1 -22  156.75    8.73
   3   1 -22  145.76    8.40
   3   1 -22  158.05    8.17
   1  -3 -22  157.16    8.17
  -3  -1 -22  149.53    8.56
  -3  -1 -22  144.56    8.11
  -3   1  22  157.09    8.17
   1  -3 -21  126.24    7.99
  -1   3 -21  121.49    7.59
  -3   1  21  136.72    9.37
   3   1 -21  125.50    6.98
   1  -3 -21  135.75    7.20
  -3  -1 -21  124.16    7.45
  -3  -1 -21  128.42    7.26
   3   1 -20   70.60    4.96
   1  -3 -20   84.81    5.25
  -3   1  20   75.52    6.72
   3   1 -19  214.52    9.59
   1  -3 -19  226.52    9.69
  -3   1  19  208.69   11.86
   3   1 -18    9.99    1.93
   1  -3 -18    9.25    1.78
  -3   1  18   12.35    2.57
   3   1 -17  104.33    5.82
   1  -3 -17  111.61    5.78
  -3   1  17  108.95    7.59
  -3  -1 -16  110.79    5.76
   3   1 -16  119.92    6.09
  -3   1  16  120.26    7.98
   1  -3 -15  113.79    5.57
  -3   1  15  114.14    5.77
  -3  -1 -15  114.08    5.83
   3   1 -15  106.23    5.65
  -3   1  15  117.43    7.56
   3   1 -14  193.64    8.14
  -3  -1 -14  197.54    8.47
  -3   1  14  180.14    8.25
  -3   1  14  195.17   10.17
   3   1 -13  236.66    9.54
  -3   1  13  229.76    9.89
  -3  -1 -13  257.68   10.11
  -3   1  13  258.89   11.98
  -3  -1 -12  377.20   13.43
   3   1 -12  336.85   12.55
  -3   1  12  348.31   13.34
  -3   1  11   56.74    3.98
  -3  -1 -11   61.05    4.02
   1   3  11   55.68    2.58
  -3  -1 -10  578.31   19.44
  -3   1  10  538.37   19.51
  -3   1   9  217.33    9.53
  -3  -1  -9  224.67    9.38
  -3   1   8 1499.32   47.74
  -3  -1  -8 1563.83   47.60
  -3   1   7  175.09    8.30
  -3  -1  -7  193.48    8.32
  -3   1   6 1129.53   37.00
  -3  -1  -6 1189.80   36.90
  -1  -3   5  827.54   27.10
  -3  -1  -5  799.18   26.86
  -3   1   5  826.01   27.26
  -3  -1  -4 1974.13   59.19
  -3   1   4 1992.61   59.46
  -1  -3   4 2055.05   59.53
  -1  -3   4 1870.01   57.06
   1  -3  -4 2034.28   59.69
   3   1  -4 1873.53   57.31
  -1  -3   3   73.06    4.55
  -3   1   3   71.24    4.62
   3   1  -3   60.45    3.29
   1  -3  -3   73.60    4.71
  -1  -3   3   71.45    3.14
  -1  -3   2  691.54   22.84
   1  -3  -2  738.59   23.21
  -1  -3   2  696.60   20.65
  -3  -1  -1 1159.36   36.44
  -1  -3   1 1169.33   36.64
   1  -3  -1 1107.37   36.50
  -3  -1   0  284.85   11.53
  -1  -3   0  291.90   11.72
   1  -3   0  307.38   11.99
  -3  -1   1 1175.72   36.82
  -1  -3  -1 1130.71   36.87
   1  -3   1 1130.10   37.03
  -3  -1   1 1180.39   36.15
  -3  -1   2  722.68   23.91
   3  -1  -2  691.66   24.19
  -3  -1   2  712.93   23.37
  -3  -1   3   73.24    4.61
  -3  -1   3   79.21    4.53
   3  -1  -3   71.20    4.73
  -3  -1   4 2018.47   61.25
  -3   1  -4 2049.86   61.40
  -1  -3  -4 2020.64   61.54
  -3  -1   4 1970.27   61.10
   3  -1  -4 1960.62   61.48
  -1  -3  -5  836.01   27.78
  -3   1  -5  823.51   27.48
  -3  -1   5  834.26   27.48
   3  -1  -5  827.49   27.78
  -3  -1   5  849.74   27.61
  -3   1  -6 1173.22   36.77
  -3  -1   6 1148.17   36.63
   3  -1  -6 1135.27   36.98
  -3  -1   7  166.98    7.82
  -3   1  -7  179.35    8.06
   3  -1  -7  176.78    8.31
  -3  -1   8 1556.75   47.67
  -3   1  -8 1514.54   47.69
  -3  -1   9  229.26    9.53
  -3   1  -9  222.70    9.52
  -3   1 -10  561.96   19.51
  -3  -1  10  536.23   19.32
  -3  -1  10  606.21   21.18
  -3  -1  11   55.50    3.87
  -3   1 -11   62.29    4.09
  -3  -1  11   60.16    4.94
  -3  -1  12  349.72   13.43
  -3   1 -12  356.44   13.53
   3  -1 -12  364.59   13.09
  -3  -1  12  400.84   15.81
  -3  -1  13  240.07    9.80
  -3   1 -13  240.52    9.83
   3  -1 -13  229.67    9.45
  -3  -1  13  258.81   12.09
  -3  -1  14  201.04    8.51
  -3   1 -14  189.15    8.38
   3  -1 -14  196.11    8.38
  -3  -1  14  222.32   11.03
   1   3 -15  117.11    5.52
   3  -1 -15  111.73    5.81
  -3   1 -15  113.84    5.68
  -3  -1  15  107.71    5.61
  -1   3  15  121.48    6.72
  -3  -1  15  116.70    7.91
   1   3 -16  135.24    6.13
  -3   1 -16  118.81    5.77
   3  -1 -16  124.29    6.36
  -1   3  16  124.62    6.99
  -3  -1  16  131.99    8.70
   3  -1 -17   96.43    5.67
   1   3 -17   99.89    5.30
  -1   3  17  101.58    6.25
   3  -1 -18   10.29    2.07
   1   3 -18   11.68    1.80
  -3  -1  18   10.00    2.75
  -1   3  18    9.39    1.96
   1   3 -19  215.45    9.27
   3  -1 -19  200.36    9.45
  -3  -1  19  231.67   12.79
  -1   3  19  221.40   10.53
   1   3 -20   75.41    4.91
  -3  -1  20   84.06    7.32
  -1   3  20   78.39    5.77
   1   3 -21  118.03    7.50
  -1  -3 -21  134.50    8.22
  -3  -1  21  133.72    9.74
   1   3 -21  124.43    6.80
  -1  -3 -21  137.97    7.66
   1  -3  21  133.45    6.80
  -3   1 -21  121.74    6.85
  -3  -1  21  121.36    7.05
  -3  -1  22  154.54   10.95
   3  -1 -22  140.82    8.27
  -1  -3 -22  147.38    8.98
  -3   1 -22  153.88    8.56
   1   3 -22  149.27    8.80
   1   3 -22  163.11    8.08
   1  -3  22  158.25    7.75
  -1  -3 -22  149.10    8.51
  -3  -1  22  166.94    8.51
  -3   1 -22  155.01    8.02
  -3   1 -23  290.66   13.20
   1   3 -23  280.84   13.37
   3  -1 -23  278.47   13.10
  -1  -3 -23  302.61   14.06
  -3  -1  23  284.46   16.09
   1   3 -23  293.26   12.42
   1  -3  23  279.67   11.91
  -1  -3 -23  279.81   13.02
  -3  -1  23  292.74   12.85
  -3   1 -23  282.39   12.38
  -1  -3 -24   37.99    4.52
   1   3 -24   32.00    4.05
   3  -1 -24   37.81    4.14
  -3   1 -24   33.39    3.93
   1   3 -24   37.70    3.81
  -1  -3 -24   36.38    4.13
   1  -3  24   40.04    3.57
  -3   1 -24   40.93    3.88
  -3  -1  24   31.55    3.78
  -3   1 -25   53.56    5.07
   3  -1 -25   53.24    5.09
  -1  -3 -25   59.17    5.66
   1   3 -25   47.72    5.07
   1   3 -25   57.80    4.84
  -1  -3 -25   60.55    5.35
   1  -3  25   55.22    4.40
  -3   1 -25   49.52    4.52
  -3  -1  25   55.26    4.89
   3  -1 -26  483.94   20.29
  -3   1 -26  486.35   20.18
  -1  -3 -26  529.63   21.53
   1   3 -26  496.02   20.63
  -1  -3 -26  528.17   20.59
  -3   1 -26  498.37   19.42
  -3  -1  26  488.66   19.81
   3  -1 -27   56.15    5.53
  -1  -3 -27   61.32    6.21
  -3   1 -27   62.46    5.76
   1   3 -27   67.17    6.10
  -1  -3 -27   67.29    5.90
  -3   1 -27   66.94    5.43
  -3  -1  27   71.33    5.75
  -3   1 -28    6.06    2.06
   1   3 -28   11.95    2.93
  -3   1 -28   10.10    2.56
   3  -1 -28    7.60    2.49
  -1  -3 -28    8.26    2.57
  -3  -1  28    7.41    2.13
   1   3 -29   42.07    5.06
  -3   1 -29   43.96    4.92
   3  -1 -29   40.85    4.89
  -1  -3 -29   48.63    5.12
  -3   1 -29   35.87    4.20
  -3  -1  29   44.10    4.70
   1   3 -30  191.20   11.37
  -3   1 -30  207.30   11.32
   3  -1 -30  188.22   11.32
  -1  -3 -30  194.83   11.09
  -3   1 -30  199.25   10.82
  -3   1 -30  188.17   10.31
  -3  -1  30  191.73   10.77
   1  -3  30  206.52   10.69
   3  -1 -31   22.72    3.93
  -3   1 -31   16.26    3.11
  -3   1 -31   20.94    3.68
   1   3 -31   21.47    3.79
  -3   1 -31   23.36    3.61
  -1  -3 -31   26.22    4.05
   3   1  31   22.54    2.97
   1  -3  31   20.05    3.17
  -3  -1  31   23.84    3.59
   3  -1 -32   20.70    3.72
   1   3 -32   19.68    3.83
  -3   1 -32   19.56    3.52
  -1  -3 -32   19.33    3.61
  -3   1 -32   16.80    3.23
   1  -3  32   20.46    3.26
   3   1  32   19.27    2.74
  -3  -1  32   20.05    3.29
  -3   1 -33  105.66    7.83
   3  -1 -33  106.68    8.02
   1   3 -33  113.46    8.22
  -3   1 -33  110.72    7.60
  -1  -3 -33  108.71    7.89
  -3  -1  33  114.25    7.74
   1  -3  33  109.13    7.37
  -3   1 -34   30.09    4.25
   3  -1 -34   25.65    3.97
   1   3 -34   28.35    4.16
  -1  -3 -34   24.99    3.95
  -3   1 -34   29.74    3.95
   1  -3  34   23.35    3.51
  -3  -1  34   28.23    3.86
  -3   1 -35  218.73   11.67
  -1   3  35  206.13   11.63
   1   3 -35  223.83   11.94
   3  -1 -35  216.66   11.83
   3  -1 -35  213.88   10.71
  -1  -3 -35  228.36   11.81
  -3   1 -35  230.26   11.48
  -3  -1  35  221.63   11.44
   1  -3  35  230.05   11.21
  -3   1 -36  136.35    8.45
   3  -1 -36  124.28    8.34
  -1   3  36  123.34    8.33
   1   3 -36  138.28    8.65
   3  -1 -36  125.88    7.55
  -1  -3 -36  139.87    8.60
  -3   1 -36  133.14    8.07
   1  -3  36  134.21    7.92
   1   3 -37  141.81    8.48
  -3   1 -37  123.59    7.86
   3  -1 -37  136.50    8.37
  -1   3  37  112.23    7.86
  -3   1 -37  136.53    7.92
   3  -1 -37  122.29    7.18
  -1  -3 -37  131.67    8.16
   1  -3  37  135.72    7.72
   1   3 -38  178.05    9.38
  -3   1 -38  165.09    8.85
  -3   1 -38  160.31    8.56
   3  -1 -38  169.28    8.30
  -1  -3 -38  178.65    9.30
   1  -3  38  174.33    8.63
   1   3 -39   23.18    3.16
  -1   3  39   20.02    2.92
  -3   1 -39   20.82    2.93
   3  -1 -39   17.82    2.43
  -3   1 -39   20.84    2.92
  -3  -1  39   23.65    2.90
   1  -3  39   22.54    2.77
  -3   1 -40   17.72    2.58
  -1   3  40   13.01    2.43
   1   3 -40   19.53    2.79
   3  -1 -40   18.64    2.20
  -3   1 -40   21.18    2.57
   1  -3  40   20.33    2.40
  -3  -1  40   19.11    2.44
  -3  -1  41   21.56    2.79
   1   3 -41   23.99    2.80
  -1   3  41   13.21    2.14
  -3   1 -41   21.62    2.49
   1   3 -41   22.41    2.58
   3  -1 -41   21.18    2.08
   1  -3  41   23.04    2.40
  -3  -1  41   22.63    2.41
  -3  -1  42   58.20    3.81
   1   3 -42   82.15    4.34
   1   3 -42   83.07    4.05
  -3  -1  42   53.59    3.06
   1  -3  42   78.10    3.76
   3   1  43    6.88    1.28
  -3  -1  43   11.55    1.70
   1   3 -43   28.75    2.37
   1   3 -43   25.43    2.14
  -1  -3 -43   16.62    1.77
  -2   3 -42    5.92    1.34
  -3   2  42    4.03    1.22
   3   2 -42    9.14    1.37
  -2   3 -42    7.26    1.19
  -2  -3  42    6.77    1.34
   2   3  41    4.40    1.47
  -2   3 -41   18.13    2.22
   3   2 -41   14.46    2.00
  -2  -3  41    5.34    1.47
  -3   2  41   10.61    1.94
  -2   3 -41   16.47    1.89
   3   2 -41   15.25    1.88
   3  -2  41   13.59    1.62
  -3   2  40   33.87    3.42
   3   2 -40   31.95    3.13
  -2   3 -40   35.99    3.28
  -2   3 -40   33.35    2.98
   3  -2  40   30.84    2.71
  -3   2  39    2.14    1.56
   3   2 -39    3.12    1.56
  -2  -3  39    0.57    1.27
  -2   3 -39    0.38    1.31
  -2   3 -39    2.69    1.47
   2  -3 -39    1.40    1.17
   3  -2  39    1.59    1.12
  -2  -3  38   44.52    4.49
  -3   2  38   61.00    5.26
  -2   3 -38   60.39    4.89
   3   2 -38   66.46    5.08
   2  -3 -38   52.08    4.21
  -2   3 -38   59.43    4.50
   3  -2  38   58.49    4.27
  -2  -3  38   68.05    5.21
  -2  -3  37   10.10    2.43
  -3   2  37   10.69    2.73
  -2   3 -37   10.05    2.54
   3   2 -37   12.03    2.52
   2  -3 -37    8.57    2.01
  -2   3 -37    7.45    2.07
   3  -2  37   10.49    2.07
  -2  -3  37   10.23    2.50
  -2   3 -36   79.05    6.28
  -2  -3  36   75.45    6.27
  -3   2  36   84.04    6.71
   3   2 -36   87.47    6.47
   2  -3 -36   82.28    5.76
  -2   3 -36   78.43    5.68
   3  -2  36   82.10    5.61
  -2  -3  36   88.01    6.35
  -2  -3  35   12.18    2.83
  -3   2  35    9.88    2.83
   3   2 -35    4.84    2.21
  -2   3 -35    9.73    2.64
   2  -3 -35    7.71    2.08
  -2  -3  35   11.88    2.81
   3  -2  35    8.80    2.26
  -2  -3  34   31.21    4.31
   3   2 -34   32.23    4.19
  -3  -2 -34   27.19    4.23
  -3   2  34   43.36    4.98
  -2   3 -34   28.83    3.95
   2  -3 -34   27.93    3.62
  -2  -3  34   37.19    4.36
   3  -2  34   40.10    4.04
  -3  -2 -33   78.72    6.98
  -2   3 -33   79.89    6.80
  -3   2  33   96.22    7.64
   3   2 -33   83.38    6.83
  -2  -3  33   80.93    6.95
   2  -3 -33   89.10    6.36
  -2  -3  33   90.55    6.88
  -3   2  32   39.38    4.91
  -3  -2 -32   39.27    4.90
  -2   3 -32   34.81    4.63
  -2  -3  32   37.24    4.68
   2  -3 -32   30.98    4.62
   3   2 -32   37.95    4.61
   3   2 -32   35.16    4.18
   2  -3 -32   29.10    3.83
  -2   3 -32   30.32    3.36
  -2  -3  32   32.32    4.13
  -2  -3  31   72.40    6.65
  -3   2  31   86.51    7.26
   2  -3 -31   78.44    7.22
  -3  -2 -31   75.36    6.84
   3   2 -31   82.41    6.74
  -2   3 -31   66.89    6.37
   3   2 -31   85.17    6.42
   2  -3 -31   76.52    5.98
  -3   2  31   74.54    5.83
  -2   3 -31   73.27    5.34
  -2  -3  31   86.57    6.69
  -3  -2 -30   89.45    7.37
  -3   2  30   89.31    7.44
   2  -3 -30   80.37    7.31
  -2   3 -30   92.76    7.28
   3   2 -30   93.09    7.20
   3   2 -30   88.63    6.63
   2  -3 -30   90.87    6.48
  -2  -3  30   89.77    6.88
  -2   3 -30   80.84    5.75
   2  -3 -29   20.23    3.71
  -3  -2 -29   20.88    3.80
  -3   2  29   25.68    3.96
   3   2 -29   21.92    3.71
  -2   3 -29   20.81    3.71
   3   2 -29   19.04    3.38
   2  -3 -29   20.13    3.12
  -2   3 -29   21.62    2.94
  -2  -3  29   19.39    3.35
   2  -3 -28   13.47    3.22
  -3  -2 -28   15.68    3.31
  -3   2  28    8.72    2.73
  -2   3 -28   10.00    2.15
   2  -3 -28   12.37    2.71
   3   2 -28   15.76    2.95
   3   2 -28   10.80    2.80
  -2   3 -28   10.41    2.75
   2  -3 -28   10.83    2.41
  -2  -3  28   12.30    2.53
   2  -3 -27   87.96    7.29
  -3  -2 -27   94.94    7.27
  -3   2  27   98.45    7.57
  -3   2  27   85.25    8.07
  -2   3 -27   88.49    6.95
   3   2 -27   85.97    6.83
   3   2 -27   84.01    6.28
   2  -3 -27   94.06    6.62
   2  -3 -27   90.21    6.30
  -2   3 -27   82.81    5.72
  -2  -3  27   80.49    6.37
  -3   2  26   66.46    7.04
  -2   3 -26   77.72    6.36
   3   2 -26   71.44    6.12
   2  -3 -26   70.90    6.45
  -3  -2 -26   75.41    6.35
   3   2 -26   75.49    5.70
   2  -3 -26   79.91    5.95
   2  -3 -26   61.49    5.17
  -2   3 -26   69.10    5.03
  -2  -3  26   71.25    5.78
  -3   2  25   18.01    3.73
   2  -3 -25   17.45    3.26
  -3  -2 -25   20.90    3.47
  -2   3 -25   16.90    2.57
   3   2 -25   20.49    3.23
  -2   3 -25   22.78    3.52
   3   2 -25   19.93    3.23
   2  -3 -25   19.76    3.19
   2  -3 -25   17.00    2.68
  -2  -3  25   18.95    3.00
   2  -3 -24  316.39   13.39
   3   2 -24  311.74   13.18
  -3  -2 -24  299.65   14.14
  -3   2  24  298.90   15.98
   3   2 -24  291.38   13.77
  -2   3 -24  280.99   13.71
   2  -3 -24  306.34   14.60
  -2   3 -24  294.61   12.50
   3   2 -23   52.31    4.43
   2  -3 -23   51.19    4.46
   2  -3 -23   55.93    5.31
  -3   2  23   49.78    5.72
  -2   3 -23   53.27    5.02
   3   2 -23   57.83    5.06
  -3  -2 -23   51.10    5.01
  -3   2  23   52.73    4.46
  -3  -2 -23   48.24    4.62
  -2   3 -23   46.89    3.94
   3   2 -22   71.43    5.14
   2  -3 -22   78.53    5.37
  -3   2  22   71.81    6.71
  -2   3 -22   68.51    5.55
  -3  -2 -22   81.28    6.08
   2  -3 -22   77.13    6.15
   3   2 -22   74.49    5.72
  -2   3 -22   66.26    4.71
  -3  -2 -22   70.85    5.39
  -3   2  22   70.15    5.22
   3   2 -21   58.36    4.44
   2  -3 -21   57.25    4.44
   3   2 -21   55.34    4.78
  -3   2  21   51.92    5.69
  -3  -2 -21   56.00    4.90
  -2   3 -21   54.59    4.82
   2  -3 -21   57.30    5.16
  -2   3 -21   50.50    3.90
  -3  -2 -21   49.59    4.42
   3   2 -20  280.66   11.62
   2  -3 -20  274.05   11.62
   2  -3 -20  268.83   12.78
  -2   3 -20  269.80   12.40
  -3   2  20  281.06   14.32
  -3  -2 -20  286.01   12.24
   2  -3 -19   25.23    2.82
   3   2 -19   28.61    2.90
  -3   2  19   23.46    3.66
   3   2 -18   14.65    2.12
   2  -3 -18   13.49    2.09
  -3   2  18   13.96    2.84
   3   2 -17   43.26    3.40
   2  -3 -17   46.51    3.53
  -2   3 -17   42.75    3.19
  -3   2  17   40.49    4.52
   2  -3 -16  406.14   14.19
  -3  -2 -16  372.77   14.39
  -3   2  16  347.11   14.20
   3   2 -16  391.29   14.13
  -3   2  16  401.55   17.05
  -3   2  15  998.37   34.44
   3   2 -15 1089.63   34.02
  -3  -2 -15 1093.00   34.86
   2  -3 -15 1071.26   33.85
  -3   2  15 1145.56   37.67
  -3  -2 -14  506.90   18.08
   2  -3 -14  493.77   16.87
  -3   2  14  469.29   17.84
   3   2 -14  495.97   17.04
  -3  -2 -13  176.27    8.50
   3   2 -13  179.04    7.56
  -3   2  13  176.08    8.54
  -3   2  12 2118.58   68.14
  -3  -2 -12 2305.46   68.39
  -2  -3  12 2338.03   68.37
   3   2 -12 2171.58   66.61
  -2  -3  11  637.54   22.26
  -3  -2 -11  633.15   22.30
  -3  -2 -10  482.83   18.04
  -2  -3  10  504.62   18.11
  -3  -2  -9  268.99   11.36
  -2  -3   9  270.22   11.30
  -3  -2  -8 2549.30   76.61
  -2  -3   8 2482.79   76.43
  -2  -3   7  301.10   12.79
  -3  -2  -7  345.43   13.22
   2  -3  -7  338.34   13.92
  -3  -2  -6   34.74    3.32
  -2  -3   6   34.59    3.24
   2  -3  -6   40.90    3.90
  -2  -3   5  323.40   12.94
  -3  -2  -5  325.86   12.98
  -2  -3   4  813.39   25.39
  -3  -2  -4  844.60   25.54
  -2  -3   3  131.89    6.89
  -3  -2  -3  125.16    5.19
  -2  -3   2  360.16   13.84
  -3  -2  -2  343.48   12.00
  -2  -3   1  947.03   30.82
  -3  -2  -1  946.52   30.76
  -3  -2  -1  911.41   29.12
  -2  -3   0 1419.30   44.49
  -3  -2   0 1405.68   44.32
  -3  -2   0 1388.45   43.00
  -3  -2   1  962.99   31.01
  -2  -3  -1  921.25   30.98
  -3  -2   1  939.88   29.95
   3  -2  -1  925.56   31.91
  -3  -2   2  359.08   13.95
  -3  -2   2  353.53   13.34
   3  -2  -2  372.12   14.91
  -3  -2   3  136.66    7.02
   3  -2  -3  138.10    7.60
  -3  -2   3  132.36    6.74
  -3  -2   4  812.69   27.29
  -2  -3  -4  793.14   27.52
  -3  -2   4  836.22   27.19
   3  -2  -4  806.29   28.14
  -3  -2   5  311.07   12.71
  -2  -3  -5  322.17   13.05
   3  -2  -5  313.26   13.35
  -3  -2   5  337.05   13.08
  -2  -3  -6   38.48    3.55
  -3  -2   6   37.70    3.37
  -3  -2   6   40.36    3.63
   3  -2  -6   32.88    3.60
  -2  -3  -7  341.64   13.41
  -3  -2   7  302.08   12.72
   3  -2  -7  318.54   13.69
  -3  -2   7  342.11   13.64
  -2  -3  -8 2563.02   78.28
  -3  -2   8 2541.41   77.80
  -3  -2   8 2593.89   79.14
   3  -2  -8 2574.85   78.97
  -2  -3  -9  256.10   11.40
  -3  -2   9  275.32   11.21
  -2  -3 -10  463.76   17.87
  -3  -2  10  488.19   17.52
  -2  -3 -11  628.97   22.60
  -3  -2  11  644.58   22.15
  -3  -2  12 2213.66   67.25
  -3   2 -12 2305.11   67.54
   3  -2 -12 2117.54   66.01
  -3  -2  12 2214.82   69.86
   3  -2 -13  179.67    7.76
  -3   2 -13  180.53    8.46
  -3  -2  13  184.56    8.50
  -3  -2  13  176.44   10.09
   2   3 -14  469.29   16.78
  -3   2 -14  497.07   17.95
  -3  -2  14  522.42   18.15
   3  -2 -14  514.88   17.42
  -3  -2  14  503.92   20.90
   3  -2 -15 1047.51   33.54
  -3  -2  15  990.99   33.80
   2   3 -15 1051.41   33.10
  -3   2 -15 1077.01   34.02
  -3   2 -16  407.27   14.82
   2   3 -16  397.13   14.39
  -3  -2  16  386.57   14.84
   3  -2 -16  401.07   14.81
  -3  -2  16  431.36   18.74
   3  -2 -17   46.25    3.63
   2   3 -17   42.85    3.30
  -3   2 -17   46.51    3.32
  -3  -2  17   50.39    5.68
  -2   3  17   39.37    4.23
   2   3 -18   12.87    1.90
   3  -2 -18   14.16    2.22
  -3  -2  18   11.01    3.09
  -2   3  18   11.12    2.38
   3  -2 -19   29.14    3.11
   2   3 -19   24.47    2.69
  -2   3  19   27.38    3.56
  -3  -2  19   32.82    4.79
   2   3 -20  279.07   12.53
  -2   3  20  282.52   13.46
  -2  -3 -20  264.11   12.67
   3  -2 -20  286.00   11.80
   2   3 -20  274.27   11.34
  -2  -3 -20  266.72   12.42
  -3   2 -20  263.05   11.37
  -3  -2  20  272.00   11.94
   2   3 -21   54.80    4.89
   3  -2 -21   58.89    4.90
  -3   2 -21   54.63    4.71
  -2   3  21   65.17    5.67
  -2  -3 -21   57.80    5.22
   3  -2 -21   60.10    4.65
   2   3 -21   57.31    4.36
   2  -3  21   53.41    4.03
  -2  -3 -21   52.20    4.81
  -3  -2  21   59.11    4.76
  -3   2 -21   58.69    4.43
   2   3 -22   73.70    5.76
  -2  -3 -22   75.15    6.12
  -3   2 -22   79.56    5.78
   3  -2 -22   61.10    5.42
  -2   3  22   75.47    6.35
   2   3 -22   76.08    5.18
   3  -2 -22   81.55    5.53
  -2  -3 -22   77.32    5.98
   2  -3  22   71.96    4.84
  -3  -2  22   72.01    5.47
  -3   2 -22   65.45    4.91
   3  -2 -23   47.43    4.73
   2   3 -23   44.51    4.61
  -3   2 -23   54.22    4.90
  -2   3  23   55.56    5.47
  -2  -3 -23   57.25    5.32
   2   3 -23   46.50    4.12
   3  -2 -23   50.39    4.47
   2  -3  23   47.54    3.90
  -2  -3 -23   43.76    4.67
  -3   2 -23   46.48    4.14
  -3  -2  23   51.34    4.60
  -3   2 -24  281.11   13.38
  -2  -3 -24  289.40   14.19
   2   3 -24  301.44   13.98
   3  -2 -24  281.10   13.69
   2   3 -24  291.52   12.66
   3  -2 -24  315.45   13.30
   2  -3  24  295.68   12.21
  -2  -3 -24  297.01   13.98
  -3   2 -24  277.30   12.40
  -3  -2  24  276.47   13.30
  -3   2 -25   17.01    2.71
  -2  -3 -25   19.60    3.52
   3  -2 -25   17.00    3.25
   2   3 -25   18.75    3.31
  -3   2 -25   16.24    2.94
   2   3 -25   24.96    3.29
   3  -2 -25   23.70    3.40
  -2  -3 -25   20.35    3.45
  -3  -2  25   17.86    3.01
   2  -3  25   14.89    2.36
   2   3 -26   80.05    6.49
  -3   2 -26   74.97    6.16
  -2  -3 -26   76.20    6.75
   3  -2 -26   66.65    6.10
   3  -2 -26   75.04    5.91
   2   3 -26   71.63    5.54
  -2  -3 -26   74.02    6.36
   2  -3  26   72.41    5.10
  -3  -2  26   73.03    5.90
  -3   2 -26   67.63    5.29
   3  -2 -27   85.70    6.96
   2   3 -27   87.42    7.02
  -3  -2  27   89.99    7.39
  -3   2 -27   93.20    6.96
  -2  -3 -27   90.24    7.38
   2   3 -27   96.15    6.52
   3  -2 -27   83.51    6.40
  -2  -3 -27   89.66    7.12
  -3   2 -27   78.22    5.91
  -3  -2  27   91.66    6.81
  -3  -2  28   18.96    3.54
  -2  -3 -28   14.34    3.19
  -3   2 -28   10.83    2.38
   3  -2 -28   16.96    3.29
   2   3 -28   11.82    3.09
   2   3 -28   13.24    2.69
  -3   2 -28    9.48    2.62
   3  -2 -28   13.67    2.96
  -2  -3 -28   16.74    3.39
  -3  -2  28   12.26    2.70
  -3  -2  29   23.53    3.95
   3  -2 -29   18.61    3.58
  -3   2 -29   17.74    2.99
  -2  -3 -29   22.24    3.98
   2   3 -29   22.37    3.69
   3  -2 -29   24.56    3.79
  -3   2 -29   21.30    3.61
  -2  -3 -29   23.40    3.87
  -3  -2  29   20.08    3.40
   2   3 -30   86.93    7.17
  -3   2 -30   89.15    7.00
  -3  -2  30   96.38    7.72
   3  -2 -30   90.67    7.43
  -2  -3 -30   85.33    7.41
   3  -2 -30   87.60    6.81
  -2  -3 -30   81.68    7.05
  -3  -2  30   88.32    6.99
  -3   2 -30   80.26    6.12
  -3   2 -31   80.40    6.72
   2   3 -31   76.90    6.83
  -2  -3 -31   85.48    7.39
   3  -2 -31   77.65    6.97
  -2   3  31   86.24    7.13
  -3  -2  31   92.28    7.58
   3  -2 -31   91.17    6.87
  -2  -3 -31   81.53    7.00
  -3  -2  31   89.05    6.90
  -3   2 -31   71.09    5.73
  -3   2 -32   34.84    4.45
  -3  -2  32   44.35    5.19
   3  -2 -32   35.59    4.78
  -2   3  32   39.48    4.86
   2   3 -32   35.92    4.72
  -2  -3 -32   28.04    4.21
   3  -2 -32   28.70    3.68
  -3   2 -32   35.21    4.08
  -3   2 -32   33.64    3.82
  -3  -2  32   33.90    4.28
   2  -3  32   34.39    3.98
  -3   2 -33   95.47    7.15
  -2   3  33   87.26    7.10
  -3  -2  33   92.82    7.54
   2   3 -33   76.61    6.76
   3  -2 -33   81.20    7.00
   3  -2 -33   78.70    5.95
  -3   2 -33   95.64    6.62
  -2  -3 -33   99.79    7.47
  -3  -2  33   90.36    6.94
   2  -3  33   82.38    6.29
  -3   2 -33   70.27    5.67
   3  -2 -34   31.29    4.45
  -3   2 -34   33.45    4.17
  -2   3  34   38.86    4.69
  -3  -2  34   39.12    4.90
   2   3 -34   31.20    4.33
  -2  -3 -34   35.31    4.53
  -3   2 -34   35.45    4.03
   3  -2 -34   33.93    3.74
   2  -3  34   38.13    4.02
  -3  -2  34   30.41    4.14
  -3  -2  35    8.14    2.69
  -2   3  35    6.47    2.56
   2   3 -35    8.05    2.52
  -3   2 -35    6.28    2.28
  -3   2 -35    6.33    2.15
  -2  -3 -35    8.65    2.83
   3  -2 -35    8.09    2.01
  -3  -2  35    6.66    2.44
   2  -3  35    6.65    2.12
  -3   2 -36   88.59    6.43
  -3  -2  36   88.11    6.95
   2   3 -36   86.23    6.58
  -2   3  36   81.69    6.53
  -3   2 -36   79.46    5.82
  -2  -3 -36   85.46    6.68
   3  -2 -36   83.27    5.66
   2  -3  36   95.86    6.18
  -3  -2  37   10.49    2.65
  -2   3  37    7.61    2.45
   2   3 -37   13.94    2.82
  -3   2 -37    9.18    2.26
  -3   2 -37    8.58    2.19
   3  -2 -37   10.17    2.14
  -2  -3 -37   14.87    2.87
   2  -3  37   13.76    2.41
   2   3 -38   62.40    5.08
  -2   3  38   54.38    4.88
  -3   2 -38   53.00    4.64
  -3  -2  38   60.82    5.19
   3  -2 -38   54.16    4.10
  -3   2 -38   62.96    4.67
   2  -3  38   67.48    4.75
  -2   3  39    2.61    1.60
  -3  -2  39    1.28    1.44
  -3   2 -39    0.53    1.18
   2   3 -39    1.36    1.50
  -3   2 -39    0.82    1.40
   3  -2 -39    0.78    1.09
   2  -3  39    0.80    1.02
  -3  -2  40   25.73    3.10
  -2   3  40   20.87    2.91
  -3   2 -40   33.69    3.19
   2   3 -40   40.01    3.55
  -3   2 -40   33.45    2.99
  -3  -2  40   33.22    3.19
   2  -3  40   39.65    3.13
  -3  -2  41    9.59    1.80
   2  -3  41    4.15    1.34
  -3   2 -41   11.86    1.80
   2   3 -41   17.49    2.22
  -2   3  41    8.04    1.69
   2   3 -41   17.07    2.11
  -3   2 -41   13.19    1.75
   2  -3  41   16.69    1.93
  -3  -2  41   16.16    2.03
   2   3 -42    4.34    1.24
  -3  -2  42    4.43    1.28
   3   2  42    1.75    0.96
   2   3 -42    6.54    1.35
  -3  -2  42    5.15    1.20
   2  -3  42    5.04    1.11
   2   3 -43   48.08    2.85
  -3  -3   0 1604.30   51.17
   3  -3   0 1608.29   52.39
  -3  -3  -1  300.75   13.18
  -3  -3   1  320.95   13.38
   3  -3  -1  308.47   14.01
  -3  -3   2  218.09   10.33
   3  -3  -2  223.07   11.14
  -3  -3   3 1462.83   46.48
   3  -3  -3 1423.16   47.38
  -3  -3  -4  439.19   16.98
  -3  -3   4  433.43   16.76
  -3  -3   4  406.86   16.29
   3  -3  -4  430.02   17.52
  -3  -3   5  808.28   28.10
  -3  -3  -5  814.00   28.34
  -3  -3   5  830.59   28.30
   3  -3  -5  801.12   29.01
  -3  -3   6   67.86    5.14
  -3  -3  -6   76.67    5.57
  -3  -3   6   78.91    5.55
   3  -3  -6   75.93    5.91
  -3  -3  -7   34.67    3.69
  -3  -3   7   31.76    3.39
   3  -3  -7   37.72    4.10
  -3  -3   7   27.72    3.49
  -3  -3   8   78.59    5.42
  -3  -3  -8   68.21    5.32
  -3  -3   8   73.62    5.88
   3  -3  -8   75.64    5.96
  -3  -3   9 2364.97   74.71
  -3  -3  -9 2481.86   75.38
  -3  -3   9 2457.74   76.26
  -3  -3 -10  273.34   12.42
  -3  -3  10  276.39   12.17
  -3  -3  10  291.42   13.70
   3   3 -11  347.18   12.86
  -3  -3 -11  376.44   15.42
  -3  -3  11  389.07   15.12
   3  -3 -11  372.50   13.12
   3   3 -12  111.54    5.44
  -3  -3  12  112.07    6.73
   3  -3 -12  117.82    5.63
  -3  -3 -12  115.53    7.19
  -3  -3  13   30.69    3.40
   3   3 -13   37.37    2.85
   3  -3 -13   36.77    2.96
  -3  -3 -13   40.31    3.94
   3   3 -14  308.16   11.81
  -3  -3  14  307.93   13.22
  -3  -3 -14  340.92   13.97
   3  -3 -14  316.55   12.02
  -3   3 -15   28.07    3.04
   3  -3 -15   25.27    2.56
   3   3 -15   23.71    2.44
  -3  -3 -15   24.06    3.01
  -3  -3  15   23.15    2.88
  -3   3  16  160.81    8.54
   3   3 -16  180.51    7.89
  -3   3 -16  175.43    8.58
   3  -3 -16  175.03    7.97
   3   3 -17   29.75    2.97
   3  -3 -17   37.45    3.29
  -3   3 -17   38.10    3.37
  -3   3  17   34.16    4.44
  -3   3  18  126.22    8.72
   3   3 -18  135.65    6.74
   3  -3 -18  119.15    6.63
  -3  -3 -18  132.87    7.77
  -3  -3  18  127.17    7.22
  -3   3 -19    2.04    1.14
  -3   3  19    1.00    1.25
   3  -3 -19    2.31    1.38
   3   3 -19    2.33    1.27
  -3  -3 -19    0.74    1.43
  -3  -3  19    2.49    1.29
   3  -3 -20  211.68   11.17
  -3   3 -20  239.69   11.29
  -3  -3  20  258.86   12.00
   3   3 -20  225.88   11.20
  -3   3  20  226.57   12.79
  -3  -3 -20  217.43   11.51
  -3   3  20  247.60   11.64
   3   3 -20  242.02   10.47
   3  -3 -20  250.83   10.76
  -3  -3 -20  246.71   11.96
   3  -3  20  231.45   10.10
  -3   3 -20  224.25   10.26
  -3  -3  20  237.35   11.05
  -3  -3 -21  317.30   14.48
   3  -3 -21  297.03   14.12
  -3   3  21  317.23   15.75
  -3  -3  21  343.08   14.77
  -3   3 -21  323.44   13.98
  -3   3  21  331.11   14.44
   3   3 -21  307.87   13.86
   3  -3 -21  327.79   13.36
   3   3 -21  306.47   12.90
  -3  -3 -21  331.02   14.70
   3  -3  21  297.94   12.49
  -3   3 -21  289.94   12.67
  -3   3  22   86.36    7.59
  -3  -3 -22   89.78    6.88
  -3   3 -22   90.41    6.44
   3   3 -22   87.31    6.47
   3  -3 -22   82.30    6.57
  -3  -3  22   89.16    6.76
  -3   3  22   97.32    6.78
   3  -3 -22  102.30    6.31
   3   3 -22   86.94    5.81
  -3  -3 -22  102.00    7.24
   3  -3  22   92.97    5.60
  -3   3 -22   81.01    5.53
  -3   3  23   43.08    4.58
  -3   3  23   39.20    5.09
  -3  -3 -23   43.17    4.78
   3  -3 -23   40.31    4.61
   3   3 -23   45.75    4.63
  -3   3 -23   39.24    4.26
  -3  -3  23   45.09    4.76
   3   3 -23   41.14    4.00
   3  -3 -23   40.44    4.14
   3  -3  23   42.29    3.64
  -3  -3 -23   41.94    4.75
  -3   3 -23   42.54    3.86
  -3  -3  24    9.43    2.74
  -3   3  24    7.02    2.27
  -3   3 -24    7.50    1.97
  -3   3  24    5.56    2.26
   3  -3 -24    6.72    2.35
  -3  -3 -24    8.79    2.51
   3   3 -24   12.71    2.79
   3   3 -24    9.20    2.28
   3  -3 -24    8.23    2.36
  -3   3 -24    9.29    2.37
  -3  -3 -24   11.02    2.90
   3  -3  24    5.04    1.55
  -3   3  25  405.71   19.86
   3  -3 -25  399.35   18.28
  -3   3  25  426.87   18.46
  -3  -3  25  441.98   18.71
  -3  -3 -25  433.26   18.73
   3   3 -25  407.83   17.83
  -3   3 -25  418.70   17.86
   3   3 -25  428.79   17.01
   3  -3 -25  444.56   17.46
   3  -3  25  417.40   16.09
  -3  -3 -25  430.96   18.70
  -3   3 -25  412.53   16.58
  -3   3 -26   99.55    7.15
  -3  -3 -26   91.04    7.38
   3  -3 -26   82.75    7.08
  -3   3  26   83.50    7.02
  -3  -3  26   89.58    7.19
   3   3 -26   88.99    6.94
   3   3 -26   98.71    6.53
   3  -3 -26   98.34    6.73
  -3  -3 -26   97.76    7.58
   3  -3  26   93.86    5.77
  -3  -3  26   95.36    7.02
  -3   3 -26   86.53    5.97
  -3  -3 -27   22.48    3.87
  -3  -3  27   24.77    3.85
   3  -3 -27   29.62    4.39
  -3   3  27   27.72    3.94
   3  -3 -27   26.14    3.68
   3   3 -27   23.72    3.76
  -3   3 -27   24.09    3.79
   3   3 -27   28.12    3.64
   3  -3  27   26.52    2.93
   3  -3 -27   26.79    3.21
  -3  -3 -27   30.71    4.47
  -3   3 -27   21.49    3.11
  -3  -3  27   22.79    3.61
  -3   3  28    5.25    2.16
   3  -3 -28    5.25    2.36
  -3   3 -28    4.17    1.64
  -3  -3 -28    3.70    2.48
  -3  -3  28    5.36    2.44
   3  -3 -28    4.95    2.31
   3   3 -28    6.62    2.32
   3   3 -28    6.63    2.49
  -3   3 -28    2.65    2.17
  -3  -3 -28    6.36    2.93
   3  -3 -28    5.24    1.88
  -3  -3  28    5.89    2.17
   3   3 -29  275.33   13.58
  -3  -3  29  280.21   14.15
  -3   3 -29  277.46   13.49
  -3   3  29  287.56   14.14
   3  -3 -29  254.58   13.89
   3   3 -29  261.82   12.47
   3  -3 -29  273.91   12.87
  -3  -3 -29  275.61   14.15
   3  -3 -29  227.91   11.60
  -3  -3  29  272.52   13.50
  -3   3 -29  239.56   11.76
   3   3 -30  220.07   12.05
  -3  -3  30  220.21   12.41
  -3   3  30  234.07   12.61
  -3   3 -30  226.27   11.95
   3  -3 -30  233.73   11.64
   3   3 -30  224.71   11.24
   3  -3 -30  200.87   10.41
  -3  -3 -30  229.43   12.63
  -3   3 -30  214.24   10.60
  -3  -3  30  225.38   11.97
  -3  -3  31    1.00    2.00
  -3   3  31    1.65    2.09
  -3   3 -31    3.22    1.60
  -3   3 -31    2.90    2.11
   3   3 -31    1.79    2.02
  -3  -3 -31    4.66    2.42
   3  -3 -31    4.58    1.80
  -3  -3  31    3.58    2.23
  -3  -3  32    0.32    1.62
  -3   3 -32   -0.21    1.37
  -3   3  32    2.26    2.08
   3   3 -32    1.17    1.85
  -3   3 -32    2.26    1.86
  -3  -3 -32    3.58    2.52
  -3   3 -32    2.84    1.74
   3  -3 -32    0.21    1.36
  -3  -3  32    0.59    1.93
  -3  -3  33    2.82    2.02
  -3   3  33    2.19    2.15
  -3   3 -33    2.18    1.39
   3   3 -33    3.37    2.12
  -3   3 -33    1.09    1.87
  -3   3 -33    3.67    1.77
  -3  -3 -33    3.47    2.23
   3  -3 -33   -0.41    1.45
  -3  -3  33    4.02    2.19
  -3  -3  34    7.42    2.41
  -3   3  34    5.96    2.26
   3   3 -34    3.74    2.14
  -3   3 -34    3.62    1.98
  -3   3 -34    6.77    1.95
   3  -3 -34    7.36    1.86
  -3  -3 -34    6.33    2.52
   3  -3  34    6.32    2.00
  -3  -3  34    4.42    2.22
   3   3 -35   41.47    4.39
  -3  -3  35   36.93    4.38
  -3   3  35   40.87    4.60
  -3   3 -35   39.08    4.28
  -3   3 -35   36.57    3.76
   3  -3 -35   35.21    3.49
   3  -3  35   36.32    3.81
  -3  -3  35   43.01    4.56
  -3  -3  36    1.53    1.75
  -3   3  36   -0.26    1.59
  -3   3 -36    2.46    1.75
   3   3 -36    1.40    1.67
  -3   3 -36    0.57    1.27
  -3  -3  36    0.73    1.61
   3  -3  36    0.39    1.31
  -3   3 -37   89.08    6.04
   3   3 -37   93.40    6.19
  -3   3  37   91.43    6.44
  -3  -3  37   84.31    6.16
  -3   3 -37   82.79    5.43
   3  -3  37   93.18    5.73
  -3  -3  38   12.88    2.52
  -3   3  38   17.28    2.67
  -3   3 -38   16.15    2.44
   3   3 -38   15.43    2.57
  -3   3 -38   16.78    2.33
   3  -3  38   14.71    2.19
  -3   3 -39    3.85    1.49
  -3  -3  39    2.92    1.58
   3   3 -39    5.05    1.65
  -3   3  39    3.42    1.55
  -3   3 -39    5.33    1.39
   3  -3  39    4.51    1.29
  -3   3 -40   41.07    3.24
  -3  -3  40   27.38    2.90
  -3   3  40   30.93    3.13
   3   3 -40   39.33    3.26
  -3   3 -40   43.19    3.01
   3  -3  40   44.28    3.08
  -3  -3  40   44.40    3.55
   3   3  41    1.79    1.00
   3   3 -41   12.91    1.67
  -3   3  41    6.35    1.40
  -3  -3  41    4.75    1.23
  -3   3 -41    8.81    1.43
   3   3 -41   14.00    1.76
  -3  -3 -41   11.66    1.90
  -3  -3  41   12.23    1.84
   3  -3  41    9.73    1.42
  -3  -3 -42    3.04    0.99
   3   3 -42    2.90    0.95
  -3  -3  42    3.32    0.92
  -4   0   0 1002.71   34.21
   0  -4   0 1052.82   33.25
  -4   0  -1  321.71   13.69
  -4   0   1  331.83   13.84
   0  -4  -1  343.41   13.03
   0  -4   1  344.63   12.95
  -4   0   2  320.22   13.46
   4   0  -2  313.37   12.97
   0  -4   2  346.36   12.81
  -4   0   3   13.36    2.22
   4   0  -3   13.12    2.13
   0  -4   3   14.77    2.03
  -4   0  -4  148.20    7.72
  -4   0   4  125.01    7.41
   4   0  -4  136.33    7.02
   0  -4   4  157.06    7.31
  -4   0  -5    2.75    1.29
  -4   0   5    1.79    1.20
   4   0  -5    2.23    1.30
  -4   0   6  192.21    9.30
  -4   0  -6  184.94    9.11
   4   0  -6  191.67    8.62
  -4   0   7    2.59    1.60
  -4   0  -7    1.77    1.29
   4   0  -7    5.42    1.36
  -4   0   8 2051.41   63.35
  -4   0  -8 2020.61   63.17
  -4   0  -9 1115.49   36.27
  -4   0   9 1086.15   36.30
   4   0 -10  109.44    5.80
  -4   0  10  102.07    6.47
  -4   0 -10  126.79    6.90
  -4   0  10  124.19    7.73
  -4   0  11 1009.43   34.15
   4   0 -11 1006.77   32.89
  -4   0 -11 1049.69   34.19
  -4   0  11 1086.47   36.02
  -4   0  12 2159.24   68.53
  -4   0 -12 2325.91   68.77
   4   0 -12 2186.18   67.33
  -4   0  12 2274.73   70.89
  -4   0  13  111.20    6.69
  -4   0 -13  134.37    7.11
   4   0 -13  130.86    6.46
  -4   0  13  126.89    8.38
   4   0 -14   71.81    4.60
  -4   0 -14   65.54    4.74
  -4   0  14   71.12    4.89
  -4   0  14   78.88    6.43
  -4   0  15  234.42   10.34
  -4   0 -15  234.73   10.32
   4   0 -15  232.13    9.95
  -4   0  15  224.28   12.29
  -4   0  16   15.49    2.15
   4   0 -16   12.98    2.15
  -4   0 -16   14.10    2.08
  -4   0  16   17.00    3.28
  -4   0 -17    4.36    1.30
   4   0 -17    2.23    1.42
  -4   0  17    2.50    1.98
   4   0 -18  240.55   10.58
  -4   0  18  233.02   13.35
   4   0 -19    1.32    1.57
   0   4 -19    1.80    1.43
  -4   0  19    2.36    1.42
   0  -4 -19    3.44    1.56
  -4   0  19    2.37    1.80
  -4   0 -19    0.74    1.06
  -4   0  19    2.09    1.26
   0  -4  19    1.20    1.11
   0  -4 -20  453.22   18.78
   0   4 -20  431.04   17.76
  -4   0  20  442.35   18.81
  -4   0  20  458.75   21.03
   4   0 -20  470.67   17.22
   0  -4 -20  432.70   17.25
  -4   0 -20  445.36   17.38
   0  -4  20  464.08   16.85
  -4   0 -20  437.65   16.99
  -4   0  20  403.52   17.15
   0   4 -21   96.84    6.79
  -4   0  21   98.79    8.74
   0  -4 -21   98.98    7.35
  -4   0 -21  101.55    6.49
  -4   0  21  116.56    7.70
   4   0 -21   90.31    6.17
   4   0 -21  101.66    6.40
   0  -4  21   87.96    5.75
  -4   0 -21  106.65    6.71
   0  -4 -21   91.08    6.28
  -4   0  21  101.72    6.59
  -4   0 -21  102.68    6.34
   0  -4 -22  106.71    7.72
   4   0 -22   91.03    6.38
  -4   0 -22  104.92    6.77
  -4   0  22  112.37    7.83
   0   4 -22  102.57    7.12
  -4   0  22  100.09    8.93
   4   0 -22  109.82    6.75
  -4   0 -22  105.08    6.84
   0  -4  22   94.97    6.07
   0  -4 -22   99.40    6.72
  -4   0  22  105.43    6.93
  -4   0 -22  107.47    6.69
  -4   0 -23  180.90    9.59
  -4   0  23  153.75   11.64
   0  -4 -23  186.09   10.73
  -4   0  23  184.58   10.57
   0   4 -23  164.04    9.69
   4   0 -23  156.95    9.07
   4   0 -23  190.59    9.46
   0  -4 -23  166.33    9.28
  -4   0 -23  169.78    9.45
   0  -4  23  178.16    8.88
  -4   0  23  157.42    9.16
  -4   0 -23  190.68    9.54
  -4   0  24  568.55   22.29
   4   0 -24  473.00   19.94
   0   4 -24  503.05   20.77
  -4   0 -24  491.77   20.24
   0  -4 -24  535.32   22.06
  -4   0  24  513.72   24.36
   4   0 -24  551.82   20.24
  -4   0 -24  519.26   20.43
   0  -4 -24  490.45   20.09
   0  -4  24  531.27   19.58
  -4   0 -24  513.25   20.09
  -4   0  24  511.49   20.36
  -4   0  25   12.54    3.00
  -4   0  25   15.62    3.92
   0  -4 -25   10.90    3.07
  -4   0 -25   15.74    2.91
   4   0 -25   15.66    2.84
  -4   0 -25   19.03    3.13
   4   0 -25   15.22    2.90
   0   4 -25   17.39    3.33
  -4   0 -25   16.63    2.98
   0  -4 -25   17.89    3.09
  -4   0  25   14.47    2.79
   0  -4 -26  282.59   14.75
  -4   0  26  317.47   15.24
  -4   0 -26  281.77   13.56
  -4   0  26  241.94   16.07
   4   0 -26  264.85   13.28
   0   4 -26  276.96   13.87
   4   0 -26  288.23   13.18
   0  -4 -26  272.69   13.26
  -4   0 -26  288.26   13.60
  -4   0  26  277.79   13.47
  -4   0 -26  283.94   13.33
  -4   0  27    5.37    2.43
  -4   0 -27    4.20    2.10
  -4   0  27    5.83    2.72
   4   0 -27    1.68    1.72
   4   0 -27    4.68    2.38
  -4   0 -27    3.38    1.85
   0   4 -27    2.80    2.11
   0  -4 -27    5.56    2.05
  -4   0 -27    5.99    2.26
  -4   0  27    4.81    2.08
  -4   0  28    0.36    1.97
  -4   0 -28   -0.27    1.67
  -4   0 -28    1.46    1.65
   0  -4 -28   -0.57    1.89
   4   0 -28    1.33    2.12
  -4   0 -28    2.87    1.79
   4   0 -28    2.58    1.82
   0   4 -28    2.85    2.30
  -4   0  29    2.21    2.18
  -4   0 -29    2.17    1.92
   4   0 -29    1.62    2.32
   0   4 -29   -0.32    2.19
   4   0 -29    2.62    1.82
  -4   0 -29    1.45    1.75
  -4   0 -29    3.55    2.12
   0  -4 -29    2.01    1.91
  -4   0  30   18.11    3.72
  -4   0 -30   11.08    2.78
  -4   0 -30   13.07    2.77
   0   4 -30   11.81    3.17
   4   0 -30   13.46    2.91
   4   0 -30   11.13    2.99
  -4   0 -30   13.96    3.12
   0  -4 -30    9.77    2.69
   0  -4  30   16.22    3.03
   0   4 -31   60.29    6.00
   4   0 -31   57.62    5.60
  -4   0  31   62.47    6.41
  -4   0 -31   58.43    5.58
   4   0 -31   58.51    5.54
   0  -4 -31   61.94    5.64
  -4   0 -31   71.38    6.10
   0  -4  31   54.71    5.38
  -4   0 -32    0.85    1.86
   4   0 -32    0.29    1.91
  -4   0  32    1.45    2.09
   0   4 -32    1.24    2.10
   4   0 -32    0.27    1.91
   0  -4 -32    1.12    1.93
  -4   0 -32    3.19    2.16
   0  -4  32    1.09    1.60
  -4   0  33    1.40    2.41
  -4   0 -33    0.27    1.67
   4   0 -33   -0.28    1.76
   0   4 -33   -0.90    2.56
   4   0 -33    0.26    2.02
   0  -4 -33    0.82    1.94
  -4   0 -33    0.56    1.72
   0  -4  33   -0.27    1.59
  -4   0  34  102.93    8.02
   4   0 -34   91.07    7.04
   0   4 -34  104.72    7.61
  -4   0 -34  100.05    7.16
   4   0 -34  105.59    7.25
  -4   0 -34  109.18    7.44
   0  -4 -34   97.15    7.10
   0  -4  34  100.05    7.02
  -4   0  34  110.23    7.38
   4   0  34  113.65    6.48
  -4   0  35    7.01    2.79
   4   0 -35    6.23    2.41
  -4   0 -35    6.36    2.24
   0   4 -35    8.46    2.68
  -4   0 -35    7.14    2.39
   0  -4 -35    5.97    2.08
   0  -4  35    6.06    2.15
  -4   0  35    4.94    2.03
   4   0  35    7.09    1.75
   4   0 -36  185.05    9.65
  -4   0  36  211.75   10.99
  -4   0 -36  175.91    9.41
   0   4 -36  187.38    9.95
  -4   0 -36  183.44    9.62
   0  -4  36  203.48    9.77
   4   0  36  184.85    8.33
  -4   0  36  193.73    9.63
   0  -4  37   13.20    2.40
   0   4  37   18.13    2.83
   4   0 -37   19.37    2.90
  -4   0  37   22.90    3.60
   0   4 -37   24.81    3.44
  -4   0 -37   18.97    2.91
  -4   0 -37   24.02    3.24
   4   0 -37   17.36    2.47
   0  -4  37   19.80    2.98
  -4   0  37   24.30    3.05
   4   0  37   23.02    2.45
   0  -4  38   -0.17    1.00
   0   4  38   -0.19    1.21
  -4   0  38   -0.25    1.72
   0   4 -38    0.64    1.78
   4   0 -38    0.89    1.26
  -4   0 -38   -0.39    1.33
  -4   0  38    0.71    1.11
   0  -4  38   -0.38    1.46
  -4   0  39   17.00    2.77
   0   4 -39   16.04    2.52
   4   0 -39   15.81    2.03
   0  -4  39   14.12    2.30
  -4   0  39   10.99    1.95
   0   4  40   -0.25    1.02
  -4   0  40    1.13    1.48
   0   4 -40    3.76    1.52
   0   4 -40    1.32    1.19
   4   0 -40    2.20    1.04
   0  -4  40    1.03    1.00
  -4   0  40    1.81    0.94
  -4   0  41    3.73    1.37
   0   4 -41    3.29    1.46
   0  -4 -41    1.46    0.90
   0   4 -41    0.33    0.96
   0  -4  41    1.85    1.09
   0   4 -42   12.68    1.76
  -4   0  42    7.08    1.52
   0   4 -42   10.12    1.42
  -4   1  42  118.38    6.05
  -4  -1 -42  130.39    5.94
  -1   4 -41    6.84    1.63
  -4   1  41    6.77    1.55
  -1   4 -41    4.87    1.22
   4   1 -41    5.29    1.13
  -1   4 -40   31.89    3.09
  -4   1  40   29.40    3.11
  -1   4 -40   36.67    2.78
   4   1 -40   32.39    2.55
   4  -1  40   24.67    2.00
  -1  -4  40   35.61    3.13
  -4   1  39   12.78    2.41
  -1   4 -39    8.68    2.15
  -1   4 -39    9.51    1.80
   4   1 -39    9.75    1.77
  -1  -4  39   10.81    2.14
   4  -1  39    9.95    1.47
  -1  -4  38    1.86    1.23
   1   4  38    4.19    1.70
  -4   1  38    4.75    2.02
   4   1 -38    3.34    1.51
  -1   4 -38    3.24    1.48
  -1  -4  38    3.51    1.71
   4  -1  38    3.77    1.25
  -4   1  37   88.21    6.42
   4   1 -37   75.82    5.37
  -4  -1 -37   79.30    5.79
  -4   1  37   73.76    5.00
  -1  -4  37   80.63    5.68
   4  -1  37   76.68    4.79
  -4   1  36   19.53    3.50
   4   1 -36   24.61    3.33
  -4  -1 -36   26.77    3.59
   1  -4 -36   22.64    2.98
  -1  -4  36   20.07    3.14
  -4   1  36   19.70    2.72
   4  -1  36   26.13    2.85
  -1  -4  35   14.21    2.83
  -4   1  35   19.14    3.45
   4   1 -35   19.03    3.12
  -4  -1 -35   17.73    3.19
   1  -4 -35   15.61    2.81
   4  -1  35   15.13    2.41
  -1  -4  35   20.18    3.24
  -4   1  35   13.54    2.57
  -4   1  34   13.73    3.19
  -1  -4  34    6.87    2.30
  -4  -1 -34   12.56    2.74
   4   1 -34    6.68    2.28
   4   1 -34   10.55    2.73
   1  -4 -34    7.84    2.28
  -4  -1 -34   10.23    2.80
  -4   1  34    9.54    2.34
  -1  -4  34   11.51    2.74
  -1  -4  33   63.30    5.72
   4   1 -33   59.81    5.51
  -4  -1 -33   64.40    5.79
  -4   1  33   78.54    6.86
   4   1 -33   65.83    5.71
  -4  -1 -33   72.40    6.22
   1  -4 -33   59.71    5.33
  -1  -4  33   67.95    5.75
  -4   1  33   58.46    5.31
  -4   1  32  139.83    9.83
  -4  -1 -32  123.27    8.45
   4   1 -32  131.77    8.55
   4   1 -32  127.04    8.29
  -4  -1 -32  134.37    8.93
   1  -4 -32  130.82    8.23
  -1  -4  32  137.98    8.62
  -4   1  32  139.09    8.48
  -4   1  31  190.73   11.52
   4   1 -31  167.13   10.00
  -4  -1 -31  171.31   10.32
   4   1 -31  168.40    9.78
   1  -4 -31  167.86    9.66
  -4  -1 -31  172.39   10.39
  -4   1  31  196.16   10.43
  -1  -4  31  184.55   10.26
  -4  -1 -30  191.78   11.12
  -4   1  30  220.39   12.53
   4   1 -30  200.42   11.06
  -4  -1 -30  201.24   11.49
   1  -4 -30  181.67   10.39
   4   1 -30  218.42   11.05
   4   1 -29   41.60    4.78
  -4  -1 -29   44.92    4.94
  -4   1  29   51.97    5.82
   4   1 -29   54.97    5.21
   1  -4 -29   50.31    4.91
  -4  -1 -29   52.39    5.49
  -4  -1 -28  110.04    7.83
   4   1 -28  108.40    7.58
  -4   1  28   93.89    9.22
  -4   1  28  119.50    8.62
  -1   4 -28  107.69    8.00
   4   1 -28  113.01    7.53
  -4  -1 -28  105.42    7.89
   1  -4 -28  105.46    7.24
  -4  -1 -28  105.02    7.58
  -4   1  27   15.12    3.25
  -4  -1 -27   20.59    3.49
  -4  -1 -27   14.26    2.96
  -4   1  27   15.22    3.91
   1  -4 -27   19.09    3.11
  -4  -1 -27   20.93    3.61
  -1   4 -27   24.59    3.82
   4   1 -27   14.86    3.12
   4   1 -27   14.98    3.00
  -4  -1 -26    5.60    2.21
  -4  -1 -26    7.66    2.42
  -4   1  26    4.98    2.36
  -4   1  26    5.49    2.33
  -4  -1 -26    8.72    2.61
   1  -4 -26    6.80    2.02
   4   1 -26    8.65    2.54
  -1   4 -26    3.92    2.17
   4   1 -26   11.25    2.76
  -4   1  25   10.66    2.79
  -4  -1 -25    8.77    2.34
  -4  -1 -25    7.97    2.34
   1  -4 -25    8.80    2.86
  -4   1  25    3.89    2.37
  -1   4 -25    8.48    2.62
   4   1 -25    8.07    2.25
   4   1 -25    9.45    2.45
   1  -4 -25    8.79    2.26
  -4  -1 -25   13.41    2.89
  -4   1  24   29.28    4.12
   1  -4 -24   37.03    4.73
  -4  -1 -24   31.09    3.89
  -4   1  24   39.15    5.45
   4   1 -24   24.80    3.45
  -1   4 -24   36.12    4.26
   4   1 -24   35.37    3.98
  -4  -1 -24   38.81    4.40
   1  -4 -24   35.10    3.81
  -4  -1 -24   30.05    3.67
  -1  -4  24   33.00    3.70
  -4   1  23   21.99    3.51
  -4  -1 -23   24.18    3.36
  -4   1  23   33.15    4.93
  -1   4 -23   25.25    3.51
   1  -4 -23   27.16    3.93
  -4  -1 -23   20.21    3.15
   4   1 -23   21.03    3.11
   4   1 -23   27.26    3.47
  -4  -1 -23   25.92    3.49
   1  -4 -23   23.51    3.11
  -1  -4  23   18.19    2.86
   1  -4 -22   10.31    2.67
  -4   1  22   13.67    2.69
  -4   1  22    6.13    2.60
  -4  -1 -22   12.30    2.40
  -1   4 -22   14.54    2.76
   4   1 -22   12.08    2.40
   4   1 -22   10.92    2.43
  -4  -1 -22   12.71    2.57
  -4  -1 -22   12.91    2.66
   1  -4 -22   13.62    2.40
  -1  -4  22   10.75    2.16
  -4   1  21   54.45    6.23
  -1   4 -21   42.93    4.35
  -4   1  21   45.27    4.77
   4   1 -21   44.13    4.16
   1  -4 -21   48.51    5.00
  -4  -1 -21   45.27    4.39
   4   1 -21   41.92    4.04
   1  -4 -21   51.25    4.22
  -1  -4  21   48.66    4.04
  -4  -1 -21   45.79    4.55
   1  -4 -21   46.15    4.13
  -4  -1 -21   43.64    4.10
  -1  -4  21   45.16    4.06
   1  -4 -20   18.82    3.27
  -4   1  20   19.01    3.02
  -4   1  20   20.42    3.82
   1  -4 -20   21.52    2.72
  -1   4 -20   19.60    3.02
   4   1 -20   19.05    2.76
  -4  -1 -20   23.19    3.05
  -1  -4  20   18.78    2.49
  -1  -4  20   19.70    2.59
  -4   1  19   84.81    6.23
   1  -4 -19   70.54    5.96
  -1   4 -19   79.52    5.68
  -4   1  19   80.18    7.37
   1  -4 -19   80.92    5.13
   4   1 -19   69.58    5.07
  -4  -1 -19   78.26    5.63
  -1  -4  19   83.55    5.22
  -1  -4  19   77.67    5.34
   4   1 -18   59.45    4.45
   1  -4 -18   56.71    4.12
  -4   1  18   55.90    6.00
   1  -4 -17  467.67   16.98
  -4  -1 -17  469.51   17.57
   4   1 -17  497.65   17.65
  -4   1  17  477.36   20.83
  -4   1  16   69.42    4.88
   4   1 -16   76.75    4.86
  -4  -1 -16   72.54    5.00
   1  -4 -16   69.41    4.33
  -4   1  16   76.56    6.59
   1  -4 -15  264.01   10.17
   4   1 -15  251.99   10.68
  -4   1  15  248.25   11.30
  -4  -1 -15  265.02   11.38
  -4   1  15  257.11   13.30
  -4  -1 -14  373.90   14.84
  -4   1  14  359.23   14.76
   4   1 -14  362.03   13.90
  -4   1  14  395.05   17.13
  -4   1  13  385.70   15.57
   4   1 -13  368.91   14.31
  -4  -1 -13  418.55   15.75
  -4   1  13  425.19   17.92
  -4  -1 -12  259.03   11.59
   4   1 -12  253.15   10.57
   4   1 -11 1663.80   52.60
  -4   1  11 1685.63   54.32
  -4  -1 -11 1842.98   54.49
  -4   1  10  835.59   28.70
  -4  -1 -10  873.86   28.57
   4   1 -10  794.58   26.81
  -4  -1  -9   85.17    5.67
  -4   1   9   93.78    6.12
  -4  -1  -8  429.91   16.41
  -4   1   8  409.67   16.55
  -4  -1  -7 1224.16   38.04
  -4   1   7 1134.99   38.06
  -1  -4   7 1124.85   35.69
  -4   1   6 1040.86   34.90
  -4  -1  -6 1086.88   34.81
  -1  -4   6 1022.47   32.29
  -4  -1  -5 1031.27   34.32
  -4   1   5 1045.61   34.68
  -1  -4   5 1061.04   31.91
   4   1  -5  993.36   32.14
  -4   1   4  286.80   12.60
  -4  -1  -4  283.60   12.25
   1  -4  -4  307.40   12.64
   4   1  -4  265.45   10.43
  -1  -4   4  288.93   10.13
  -4   1   3   33.53    3.63
  -1  -4   3   38.15    2.45
   4   1  -3   32.36    2.62
   1  -4  -3   34.52    3.52
  -4   1   2  388.73   15.09
   1  -4  -2  393.60   14.90
  -4   1   1   32.24    3.56
  -4  -1  -1   37.56    3.61
   1  -4  -1   36.42    3.53
  -4   1   0   18.44    2.74
  -4  -1   0   21.64    2.86
   1  -4   0   26.79    3.00
  -4  -1   1   37.62    3.70
  -4   1  -1   36.59    3.70
   1  -4   1   43.21    3.90
  -4  -1   2  389.58   15.81
   1  -4   2  411.08   16.13
  -4  -1   2  426.76   15.58
   4  -1  -2  386.15   16.08
  -4  -1   3   39.39    3.73
   1  -4   3   38.09    3.78
   4  -1  -3   32.72    3.54
  -4  -1   3   37.50    3.42
  -4   1  -4  304.30   12.70
  -4  -1   4  280.40   12.39
   4  -1  -4  282.44   12.50
  -4  -1   4  287.10   12.18
  -4   1  -5 1071.66   35.62
  -4  -1   5 1092.98   35.59
   4  -1  -5 1031.18   35.46
  -4  -1   5 1082.63   35.44
  -4  -1   6 1133.35   36.53
  -4   1  -6 1098.68   36.46
  -4  -1   6 1111.91   36.56
   4  -1  -6 1062.82   36.37
  -4   1  -7 1227.03   39.42
  -4  -1   7 1186.90   39.24
   4  -1  -7 1216.88   39.49
  -4  -1   7 1166.46   39.54
  -4  -1   8  407.59   16.23
  -4   1  -8  444.65   16.64
   4  -1  -8  406.08   16.37
  -4  -1   8  405.52   16.91
  -4  -1   9   79.12    5.63
  -4   1  -9  119.98    6.65
  -4  -1  10  812.93   28.65
   4  -1 -10  818.24   27.28
  -4   1 -11 1787.28   54.39
  -4  -1  11 1813.92   54.38
  -4  -1  12  228.43   10.95
   4  -1 -12  247.94   10.24
  -4   1 -13  409.83   15.99
   4  -1 -13  395.16   14.88
  -4  -1  13  414.09   15.98
  -4  -1  13  416.93   18.09
  -4   1 -14  354.25   14.41
  -4  -1  14  334.71   14.18
   4  -1 -14  361.24   13.75
   1   4 -15  261.23    9.90
   4  -1 -15  256.34   10.76
  -4  -1  15  245.99   11.05
  -4   1 -15  257.72   11.21
  -4  -1  15  252.38   13.66
  -4   1 -16   75.91    4.95
   1   4 -16   78.35    4.38
   4  -1 -16   70.19    4.78
  -4  -1  16   83.08    7.07
   1   4 -17  484.33   17.12
   4  -1 -17  496.51   18.03
  -4   1 -17  491.97   17.84
  -4  -1  17  481.97   21.71
  -1   4  17  490.94   18.75
   1   4 -18   55.28    3.92
  -4  -1  18   58.19    6.32
  -4  -1  19   89.08    6.40
  -1  -4 -19   78.98    6.17
  -4  -1  19   83.64    7.68
   1   4 -19   74.92    5.67
   1   4 -19   80.49    4.96
   1  -4  19   67.33    4.84
  -1  -4 -19   82.53    5.78
  -4   1 -19   81.10    5.30
  -4  -1  19   70.98    5.37
  -4  -1  20   15.96    2.83
  -4  -1  20   19.74    3.94
  -1  -4 -20   19.00    3.15
   1   4 -20   19.26    2.45
   1   4 -20   17.42    2.78
   1  -4  20   18.59    2.50
  -1  -4 -20   17.66    2.73
  -4   1 -20   18.88    2.70
  -4  -1  20   19.85    2.91
  -4   1 -20   22.83    2.89
  -4  -1  21   47.51    4.88
  -1  -4 -21   47.45    4.98
  -4  -1  21   46.74    5.99
   1   4 -21   37.38    4.16
  -4   1 -21   47.09    4.26
   4  -1 -21   46.28    4.28
   1   4 -21   46.08    3.87
   1  -4  21   48.07    3.90
  -4   1 -21   48.23    4.19
  -1  -4 -21   47.51    4.57
  -4  -1  21   41.76    4.16
  -4   1 -21   46.74    4.07
  -4  -1  22   14.68    2.91
  -1  -4 -22   20.17    3.38
  -4   1 -22    8.87    1.99
  -4  -1  22   14.34    3.58
   1   4 -22   10.49    2.50
   1   4 -22   10.26    2.15
  -4   1 -22   12.13    2.41
   4  -1 -22   11.02    2.31
  -1  -4 -22   11.69    2.53
  -4   1 -22   14.90    2.49
   1  -4  22   11.55    2.16
  -4  -1  22   14.41    2.60
  -4  -1  23   30.25    4.09
   4  -1 -23   25.70    3.38
  -1  -4 -23   34.66    4.40
  -4  -1  23   32.81    5.29
  -4   1 -23   17.00    2.98
   1   4 -23   23.59    3.56
  -1  -4 -23   28.83    3.74
   1  -4  23   29.77    3.19
  -4   1 -23   19.54    3.22
  -4   1 -23   22.92    3.22
  -4  -1  23   26.20    3.52
   1   4 -24   29.37    4.05
  -1  -4 -24   33.31    4.47
  -4  -1  24   38.31    4.63
  -4   1 -24   33.79    3.87
  -4  -1  24   34.51    5.59
   4  -1 -24   31.61    3.89
   1  -4  24   35.43    3.53
  -1  -4 -24   31.84    4.00
  -4   1 -24   35.76    3.87
  -4   1 -24   35.29    3.84
  -4  -1  24   34.46    4.05
  -4   1 -25   12.09    2.38
  -4  -1  25    6.49    2.39
   1   4 -25    8.87    2.55
  -4   1 -25    5.72    2.07
   4  -1 -25    6.93    2.23
  -1  -4 -25   10.20    2.72
  -4   1 -25    8.49    2.19
  -4  -1  25    5.48    2.16
   1  -4  25    6.10    1.77
   4  -1 -26    5.54    2.00
  -4   1 -26    5.13    1.92
  -4   1 -26   11.57    2.72
   1   4 -26    6.09    2.39
  -4   1 -26    6.71    2.18
  -1  -4 -26    3.79    2.07
   1  -4  26    6.89    1.82
  -4  -1  26    6.23    2.25
   4  -1 -27   16.03    3.19
  -4   1 -27   20.03    3.11
   1   4 -27   18.03    3.50
  -4   1 -27   14.88    2.88
  -1  -4 -27   18.19    3.28
  -4   1 -27   19.89    3.18
  -4  -1  27   18.60    3.26
   4  -1 -28  103.95    7.70
  -4   1 -28  101.08    7.36
   1   4 -28   99.48    7.78
  -4   1 -28  101.78    7.22
  -1  -4 -28  116.77    8.07
  -4   1 -28  110.61    7.32
  -4  -1  28  118.05    7.97
   1   4 -29   43.04    5.22
   4  -1 -29   40.37    4.89
  -4   1 -29   47.68    4.94
  -1  -4 -29   48.67    5.30
  -4   1 -29   42.47    4.66
  -4  -1  29   45.08    4.97
   1  -4  29   57.47    5.13
  -4   1 -29   47.82    4.79
   4  -1 -30  194.10   11.37
  -4   1 -30  205.11   11.26
   1   4 -30  209.00   11.80
  -1  -4 -30  204.75   11.53
  -4   1 -30  219.87   11.32
  -4  -1  30  206.23   11.50
  -4   1 -30  215.49   11.05
   1  -4  30  213.19   11.00
   4  -1 -31  158.89    9.98
  -4   1 -31  161.66    9.72
   1   4 -31  161.49   10.18
  -1  -4 -31  170.70   10.21
  -4   1 -31  179.25    9.92
   1  -4  31  187.54    9.95
  -4   1 -31  172.15    9.65
   1   4 -32  132.08    8.92
   4  -1 -32  113.35    8.25
  -4   1 -32  143.04    8.67
  -1  -4 -32  131.36    8.72
  -4   1 -32  130.84    8.25
   1  -4  32  129.22    8.14
  -4   1 -32  125.51    8.03
  -1   4  33   56.29    5.55
   4  -1 -33   55.92    5.58
  -4   1 -33   65.42    5.64
   1   4 -33   63.95    5.98
  -1  -4 -33   66.28    5.90
  -4   1 -33   71.79    5.78
   1  -4  33   71.16    5.66
  -1   4  34    6.12    2.22
   4  -1 -34   10.24    2.64
  -4   1 -34   11.53    2.80
   1   4 -34    9.16    2.74
  -1  -4 -34   12.00    2.92
  -4   1 -34   13.99    2.70
   1  -4  34   11.29    2.64
  -1   4  35   10.96    2.69
   4  -1 -35   13.90    2.80
  -4   1 -35   15.90    2.82
   1   4 -35   22.35    3.55
  -1  -4 -35   17.45    3.14
   4  -1 -35   17.80    2.57
  -4   1 -35   17.65    2.91
   1  -4  35   15.87    2.78
  -1   4  36   16.85    2.90
  -4   1 -36   19.71    2.91
   1   4 -36   20.33    3.34
   4  -1 -36   19.48    2.61
  -4   1 -36   21.60    3.04
   1  -4  36   22.87    3.08
  -4  -1  36   25.08    3.39
   1   4 -37   79.84    5.85
  -4   1 -37   68.24    5.07
  -4   1 -37   66.48    5.07
   4  -1 -37   69.91    4.62
   1  -4  37   77.01    5.27
  -4  -1  37   77.67    5.58
  -1   4  38    4.55    1.61
   1  -4  38    1.78    1.27
   1   4 -38    2.70    1.63
  -4   1 -38    5.51    1.85
   4  -1 -38    4.70    1.35
  -4  -1  38    4.43    1.67
   1  -4  38    4.71    1.66
  -1   4  39    5.05    1.59
  -4   1 -39    8.17    1.84
   1  -4  39    9.66    1.87
  -4  -1  39    6.77    1.68
   1   4 -40   35.41    3.23
  -4  -1  40   31.72    2.81
   1  -4  40   36.18    3.03
   1   4 -41    8.05    1.69
  -4  -1  41    4.41    1.57
  -1  -4 -41    3.65    1.24
  -4  -1  41    4.97    1.22
   1  -4  41    8.96    1.52
   1   4 -42  170.34    6.77
   1   4 -42  177.84    6.46
  -4  -2 -42    5.57    1.13
  -2  -4  42    7.64    1.23
  -4   2  41   19.50    2.28
  -2   4 -41   22.99    2.23
  -4  -2 -41   24.75    2.53
   4   2 -41   24.94    2.10
  -2  -4  41   28.34    2.56
  -2   4 -40    2.29    1.25
  -4   2  40    2.19    1.29
  -2   4 -40    2.84    1.02
   4   2 -40    4.48    1.30
   4  -2  40    2.64    0.93
  -4   2  39   64.43    4.57
  -2   4 -39   56.79    4.10
   4   2 -39   52.21    3.65
  -2   4 -39   53.95    3.53
   4  -2  39   58.90    3.58
   4   2 -38    8.52    1.91
  -4   2  38    7.56    2.11
  -2   4 -38    7.22    1.95
  -2   4 -38    6.27    1.55
  -2  -4  38    8.91    2.04
   4  -2  38    7.59    1.55
  -2  -4  37   15.60    2.58
  -4   2  37   21.29    3.24
   4   2 -37   20.20    2.75
  -2   4 -37   21.38    2.97
  -2   4 -37   19.73    2.52
  -2  -4  37   25.20    3.14
   4  -2  37   19.02    2.42
  -2  -4  36   20.68    3.10
  -4   2  36   29.79    3.87
   4   2 -36   32.71    3.55
  -2   4 -36   29.44    3.55
  -2   4 -36   27.07    3.05
   4  -2  36   28.07    3.03
  -2  -4  36   31.50    3.65
  -2  -4  35    8.86    2.22
  -4   2  35   12.65    2.91
  -2   4 -35    5.45    2.02
   4   2 -35   10.25    2.31
   2  -4 -35    7.45    1.94
  -2  -4  35    8.99    2.29
   4  -2  35    7.94    1.90
  -4   2  34    5.83    2.32
  -2  -4  34    3.91    1.90
   4   2 -34    8.56    2.35
  -2   4 -34    9.81    2.75
  -4  -2 -34    4.09    2.29
   2  -4 -34    4.45    1.79
  -2  -4  34    5.28    2.23
  -4   2  33   28.73    4.22
  -2  -4  33   14.41    3.08
  -2   4 -33   29.34    3.97
   4   2 -33   29.07    3.76
   4   2 -33   23.05    3.45
   2  -4 -33   20.87    3.07
  -4  -2 -33   17.46    3.60
  -2  -4  33   30.23    3.98
  -2   4 -32  172.23   10.27
  -4   2  32  205.08   11.51
  -2  -4  32  169.75   10.20
   4   2 -32  181.46   10.16
   4   2 -32  176.50    9.88
   2  -4 -32  164.85    9.24
  -4  -2 -32  184.95   10.92
  -4   2  32  194.34    9.98
  -2  -4  32  200.93   10.65
  -4   2  31   13.38    3.39
  -2  -4  31   17.71    3.32
  -2   4 -31   19.42    3.57
   4   2 -31   17.17    3.32
   4   2 -31   17.26    3.26
   2  -4 -31   13.92    2.68
  -4  -2 -31   23.19    3.94
  -4   2  31   15.66    2.76
  -4   2  30   76.54    6.91
  -2   4 -30   78.26    6.61
   4   2 -30   80.45    6.44
  -4  -2 -30   72.73    6.45
  -2  -4  30   72.85    6.39
   4   2 -30   78.95    6.20
   2  -4 -30   71.60    5.65
  -4  -2 -30   85.19    7.03
  -4   2  30   73.67    5.98
  -4   2  29   26.21    4.10
  -2  -4  29   26.55    3.85
  -4  -2 -29   26.14    3.90
   4   2 -29   25.75    3.76
  -2   4 -29   26.89    4.01
   4   2 -29   23.11    3.58
  -4  -2 -29   29.33    4.33
   2  -4 -29   22.14    3.16
  -2   4 -29   25.01    2.96
  -4   2  29   28.73    3.68
  -2   4 -28  149.73    9.51
   4   2 -28  163.85    9.50
  -4   2  28  172.25   10.52
  -4  -2 -28  154.24    9.68
  -2  -4  28  159.68    9.67
  -4   2  28  120.23   10.76
   4   2 -28  163.47    9.17
  -4  -2 -28  157.45    9.98
   2  -4 -28  134.32    8.30
  -4   2  28  151.83    9.10
  -2   4 -28  144.27    7.82
  -4   2  27  158.78   10.13
  -4   2  27  118.25   10.46
  -4  -2 -27  151.23    9.56
  -2   4 -27  154.84    9.59
  -2  -4  27  169.09    9.84
   4   2 -27  156.12    9.27
   4   2 -27  165.73    9.11
  -4  -2 -27  148.70    9.82
   2  -4 -27  142.89    8.44
  -4   2  27  152.28    8.98
  -2   4 -27  144.95    7.84
  -4   2  26  478.64   23.21
  -4  -2 -26  487.51   20.63
  -4   2  26  528.90   21.51
  -2   4 -26  484.56   20.42
   4   2 -26  484.35   19.97
   4   2 -26  524.10   19.78
  -4  -2 -26  516.53   21.19
   2  -4 -26  476.38   19.07
  -2   4 -26  462.50   18.20
  -4   2  26  520.24   20.14
  -4  -2 -25   48.20    5.09
  -4   2  25   50.67    5.37
  -2   4 -25   47.93    5.03
  -4   2  25   45.95    6.07
   4   2 -25   49.34    4.90
   2  -4 -25   54.18    4.80
   4   2 -25   46.80    4.63
   2  -4 -25   45.21    4.35
  -4  -2 -25   50.29    5.29
  -4   2  25   50.43    4.74
  -2   4 -25   45.62    3.95
  -2  -4  25   45.66    4.67
  -4   2  24   54.80    6.54
  -4   2  24   60.47    5.78
  -2   4 -24   54.58    5.24
   4   2 -24   53.81    5.00
  -4  -2 -24   61.10    5.51
   4   2 -24   53.04    4.80
   2  -4 -24   51.94    4.68
  -4  -2 -24   54.34    5.41
  -4   2  24   52.27    4.84
  -2   4 -24   50.05    4.12
  -2  -4  24   60.56    5.12
  -4  -2 -24   50.62    5.06
  -4   2  23  371.74   18.80
  -2   4 -23  344.23   15.67
  -4  -2 -23  349.75   15.79
  -4   2  23  368.86   16.50
   4   2 -23  335.22   15.16
   4   2 -23  366.00   15.01
   2  -4 -23  382.72   15.06
  -4  -2 -23  369.54   16.39
  -2  -4  23  337.37   15.13
  -2   4 -23  335.98   13.95
  -4   2  23  386.55   15.74
  -4  -2 -22   68.84    5.65
  -4   2  22   57.63    5.55
  -2   4 -22   57.03    5.21
   4   2 -22   61.92    5.16
  -4   2  22   56.03    6.49
   4   2 -22   63.10    4.96
   2  -4 -22   65.06    5.02
  -4  -2 -22   64.89    5.67
  -4   2  22   72.26    5.50
  -2  -4  22   61.36    5.05
  -2   4 -22   56.52    4.30
  -4   2  21   12.41    2.73
  -4  -2 -21   11.56    2.36
  -4   2  21    9.17    3.05
  -2   4 -21   10.94    1.87
   4   2 -21   16.60    2.63
  -2   4 -21    8.67    2.18
   4   2 -21   12.50    2.34
   2  -4 -21   15.13    2.45
  -4  -2 -21    9.78    2.47
  -4   2  21   16.81    2.72
  -2  -4  21   13.11    2.34
  -4  -2 -20  391.52   16.01
   4   2 -20  364.15   15.35
  -2   4 -20  398.38   16.12
  -4   2  20  406.94   18.98
  -4   2  20  378.57   16.41
   2  -4 -20  395.40   14.98
   4   2 -20  383.73   15.09
  -4  -2 -20  378.93   16.23
  -2   4 -20  344.48   14.22
  -4   2  20  381.49   15.71
  -2  -4  20  381.39   15.39
  -4   2  19   62.21    6.45
  -4   2  19   71.67    5.76
  -2   4 -19   70.33    5.40
   4   2 -19   73.74    5.04
   2  -4 -19   71.61    4.78
  -4  -2 -19   71.24    5.55
  -2   4 -19   66.49    4.46
  -2  -4  19   64.94    4.86
  -4  -2 -19   59.93    4.85
  -2   4 -18  379.73   15.77
  -4   2  18  403.30   16.53
  -4   2  18  412.69   18.88
   4   2 -18  410.54   15.28
   2  -4 -18  401.63   14.90
  -4  -2 -18  392.17   16.19
  -4  -2 -18  381.07   15.42
  -2  -4  18  371.24   15.17
  -4  -2 -17  110.18    6.73
   4   2 -17  119.70    6.50
   2  -4 -17  113.68    6.09
  -4   2  17  125.22    8.89
  -4   2  16  267.25   12.19
  -4  -2 -16  264.86   12.25
   2  -4 -16  277.25   11.03
   4   2 -16  300.85   11.64
  -4   2  16  286.44   14.74
   4   2 -15  301.81   11.93
  -4  -2 -15  286.02   12.96
  -4   2  15  304.93   13.16
   2  -4 -15  298.87   11.45
  -4   2  14  320.43   14.20
  -4  -2 -14  365.42   14.65
   2  -4 -14  334.31   12.35
   4   2 -14  328.81   12.87
  -4   2  13    1.61    1.33
   4   2 -13    1.28    1.21
   2  -4 -13    2.02    0.90
  -4   2  12   66.49    3.82
  -4   2  12   66.31    5.30
  -4  -2 -12   72.74    5.45
   4   2 -12   67.80    4.27
  -4  -2 -11  611.73   21.55
  -4   2  11  545.25   18.67
  -4   2  11  565.45   21.48
   4   2 -11  557.37   19.22
  -4   2  10  537.96   20.28
  -4   2  10  501.52   17.37
   4   2 -10  500.06   17.81
  -4   2   9  121.13    5.64
  -4  -2  -9  131.92    7.46
  -4   2   9  121.98    7.49
   4   2  -9  106.07    5.69
  -4   2   8  784.57   28.11
  -2  -4   8  751.43   27.57
  -4  -2  -8  829.83   27.95
  -2  -4   7  619.14   22.85
  -4   2   7  597.41   23.00
  -4  -2  -7  645.12   22.95
  -4  -2  -6  395.04   15.67
  -2  -4   6  361.61   15.42
  -4  -2  -5 1100.93   34.02
  -2  -4   5 1102.12   34.19
  -2  -4   4 1028.07   33.86
  -4  -2  -4 1056.06   33.86
   2  -4  -4 1072.74   34.65
  -2  -4   3 1200.71   39.38
   2  -4  -3 1221.30   40.05
  -4  -2  -3 1160.28   36.51
  -2  -4   2  535.14   19.23
   2  -4  -2  547.36   19.76
  -4  -2  -2  520.41   16.85
  -4  -2  -1   36.47    3.79
  -2  -4   1   29.26    3.64
   2  -4  -1   32.11    3.68
   4   2  -1   28.67    2.06
  -4  -2  -1   36.62    2.96
  -2  -4   0  168.06    8.96
  -4  -2   0  169.53    8.90
  -4  -2   0  159.60    7.61
   2  -4   0  167.11    9.27
  -4  -2   1   38.03    4.03
  -2  -4  -1   33.29    3.86
  -4  -2   1   36.12    3.29
   2  -4   1   36.90    4.06
   4  -2  -1   31.59    3.87
  -4  -2   2  553.09   20.60
  -4  -2   2  532.16   19.42
   4  -2  -2  524.35   21.08
   2  -4   2  558.20   21.40
  -4  -2   3 1206.04   40.68
  -4  -2   3 1256.17   40.06
   4  -2  -3 1247.23   41.63
  -4  -2   4 1039.86   35.00
  -2  -4  -4 1031.57   35.48
   4  -2  -4 1033.47   35.74
  -4  -2   4 1049.13   34.63
  -2  -4  -5 1145.28   38.14
  -4  -2   5 1161.16   37.69
  -4  -2   5 1144.88   37.45
   4  -2  -5 1046.35   37.93
  -4   2  -6  396.62   16.01
  -2  -4  -6  406.72   16.37
   4  -2  -6  369.48   16.13
  -4  -2   6  411.52   16.03
  -4   2  -7  665.81   23.81
  -2  -4  -7  669.96   24.14
  -4  -2   7  631.00   23.27
  -4  -2   7  615.53   23.66
   4  -2  -7  619.69   23.94
  -4  -2   8  813.62   28.04
  -4   2  -8  771.69   25.57
  -4   2  -8  832.62   28.43
  -4  -2   8  817.25   28.75
   4  -2  -8  786.57   28.80
   4  -2  -9  121.02    6.08
  -4  -2   9  116.75    7.18
  -4   2  -9  122.85    5.77
  -4   2  -9  123.58    7.46
  -4  -2   9  126.08    7.96
  -4  -2  10  547.63   20.30
   4  -2 -10  504.34   18.29
  -4   2 -10  544.55   20.42
  -4   2 -10  526.93   17.91
  -4  -2  10  589.92   21.87
  -4   2 -11  614.42   22.39
  -4   2 -11  581.44   19.79
  -4  -2  11  625.08   22.35
   4  -2 -11  601.93   20.44
  -4   2 -12   69.14    5.29
  -4  -2  12   68.78    5.20
   4  -2 -12   69.79    4.39
  -4   2 -12   75.82    4.12
   4  -2 -13    2.37    1.25
  -4   2 -13    4.24    1.51
  -4  -2  13    3.93    1.48
  -4   2 -13    2.84    0.91
   2   4 -14  337.02   12.48
  -4  -2  14  341.34   14.42
  -4   2 -14  363.36   14.69
  -4   2 -14  346.29   12.47
   4  -2 -14  359.18   13.48
  -4  -2  15  296.73   13.00
   2   4 -15  304.25   11.43
   4  -2 -15  305.77   12.19
  -4   2 -15  304.61   13.08
  -4  -2  15  303.92   15.62
  -4  -2  16  264.52   11.95
   4  -2 -16  285.15   11.48
   2   4 -16  254.96   10.54
  -4   2 -16  287.63   12.15
  -4  -2  16  298.60   15.31
   2   4 -17  130.86    6.41
   4  -2 -17  126.58    6.89
  -4   2 -17  123.99    7.03
  -4  -2  17  133.64    9.90
  -2   4  18  381.81   17.03
  -4  -2  18  406.32   16.85
   2   4 -18  379.52   15.95
  -4  -2  18  434.36   20.34
   2   4 -18  401.51   14.76
   4  -2 -18  394.43   15.36
  -2  -4 -18  410.12   16.43
   2  -4  18  396.06   15.17
  -4   2 -18  381.55   15.17
  -2   4  19   64.56    5.71
  -4  -2  19   70.02    5.85
  -4  -2  19   66.95    7.34
   2   4 -19   70.82    5.47
   4  -2 -19   71.98    5.03
   2   4 -19   67.07    4.60
  -2  -4 -19   58.58    5.20
   2  -4  19   77.40    4.98
  -4   2 -19   62.25    4.67
  -4  -2  19   65.36    5.15
  -4   2 -20  365.18   15.20
   2   4 -20  369.28   15.80
  -2   4  20  376.70   16.64
  -4  -2  20  378.28   16.47
  -4  -2  20  394.07   19.99
   4  -2 -20  334.30   15.13
   4  -2 -20  392.71   15.20
   2   4 -20  384.42   14.48
   2  -4  20  372.34   14.68
  -2  -4 -20  372.36   16.01
  -4  -2  20  375.83   15.68
  -4   2 -20  362.04   14.82
  -4   2 -21   11.76    2.21
  -4  -2  21   10.37    3.41
  -4  -2  21   11.88    2.64
   4  -2 -21   12.60    2.43
   4  -2 -21   12.22    2.55
   2   4 -21   14.42    2.64
  -4   2 -21   11.08    2.26
   2   4 -21   12.03    2.18
  -2  -4 -21   10.76    2.54
  -4  -2  21   14.22    2.56
   2  -4  21   12.28    2.12
  -4   2 -22   66.24    5.34
  -4  -2  22   74.38    6.14
   4  -2 -22   54.70    5.01
   2   4 -22   60.46    5.41
   2   4 -22   54.36    4.44
   4  -2 -22   72.93    5.36
  -2  -4 -22   63.74    5.64
   2  -4  22   56.31    4.53
  -4  -2  22   62.30    5.29
  -4   2 -22   62.83    4.93
   2   4 -23  360.55   16.05
  -4  -2  23  385.74   17.05
  -4   2 -23  362.10   15.50
   4  -2 -23  325.93   15.52
   4  -2 -23  390.91   15.54
   2   4 -23  364.84   14.77
   2  -4  23  365.15   14.68
  -2  -4 -23  366.54   16.33
  -4  -2  23  358.33   15.80
  -4   2 -23  363.27   15.13
  -4   2 -24   47.58    4.71
   2   4 -24   50.29    5.10
  -4  -2  24   55.84    5.69
   4  -2 -24   51.21    5.08
   4  -2 -24   56.35    4.95
   2   4 -24   55.75    4.62
   2  -4  24   52.88    4.35
  -2  -4 -24   59.52    5.58
  -4   2 -24   47.71    4.48
  -4  -2  24   61.39    5.40
   4  -2 -25   45.87    4.97
  -4  -2  25   62.56    5.98
  -4   2 -25   51.56    4.93
   2   4 -25   52.10    5.23
   2   4 -25   48.47    4.51
   4  -2 -25   47.37    4.82
  -2  -4 -25   49.83    5.26
  -4   2 -25   44.34    4.34
   2  -4  25   54.23    4.42
  -4  -2  25   46.97    4.90
  -4   2 -25   47.44    4.47
   2   4 -26  510.78   21.03
  -4  -2  26  564.82   22.47
   4  -2 -26  481.39   20.71
  -4   2 -26  492.40   20.27
   4  -2 -26  518.77   20.20
   2   4 -26  486.91   19.41
  -2  -4 -26  511.95   21.27
  -4   2 -26  495.86   19.77
   2  -4  26  535.52   19.42
  -4  -2  26  502.14   20.79
  -4   2 -26  504.19   19.76
  -4  -2  27  167.71   10.52
  -2   4  27  165.83    9.68
   2   4 -27  153.41    9.68
  -4   2 -27  138.30    8.85
   4  -2 -27  149.58    9.49
   4  -2 -27  167.72    9.26
  -2  -4 -27  160.56    9.94
  -4   2 -27  143.47    8.59
   2  -4  27  142.81    8.06
  -4   2 -27  146.61    8.63
  -4  -2  27  165.56    9.83
  -4   2 -28  154.63    9.32
  -2   4  28  169.95    9.97
   2   4 -28  156.36    9.83
   4  -2 -28  145.47    9.58
  -4  -2  28  166.12   10.48
   4  -2 -28  162.43    9.35
  -4   2 -28  153.06    8.95
  -2  -4 -28  167.02   10.22
  -4  -2  28  147.41    9.47
  -4   2 -28  162.20    9.00
  -4  -2  29   26.23    4.18
  -4   2 -29   21.14    3.24
   4  -2 -29   17.99    3.57
  -2   4  29   27.61    3.98
   4  -2 -29   24.94    3.70
   2   4 -29   23.74    3.89
  -4   2 -29   20.49    3.33
  -2  -4 -29   23.43    3.97
  -4   2 -29   25.50    3.42
  -4  -2  29   25.17    3.84
   2   4 -30   81.63    6.89
  -4  -2  30   90.31    7.51
   4  -2 -30   60.03    6.10
  -2   4  30   84.45    6.93
  -4   2 -30   74.70    6.23
   4  -2 -30   79.89    6.32
  -2  -4 -30   75.81    6.76
  -4   2 -30   79.67    6.12
  -4   2 -30   82.59    6.12
  -4  -2  30   81.79    6.74
  -4  -2  31   17.90    3.52
  -2   4  31   17.39    3.27
  -4   2 -31   17.11    2.88
  -4   2 -31   21.88    3.49
   4  -2 -31   16.56    3.34
   4  -2 -31   18.57    3.42
   2   4 -31   18.36    3.40
  -4   2 -31   19.17    3.16
   4  -2 -31    8.14    2.13
  -2  -4 -31   20.12    3.58
  -4  -2  31   16.04    3.27
  -4   2 -32  171.23    9.86
  -2   4  32  170.87   10.42
   2   4 -32  188.22   10.69
  -4  -2  32  215.28   11.74
   4  -2 -32  174.88    9.94
  -4   2 -32  172.86    9.54
   4  -2 -32  162.47    8.72
  -2  -4 -32  170.71   10.45
  -4   2 -32  179.36    9.52
   2  -4  32  198.53   10.07
  -2   4  33   24.28    3.71
  -4  -2  33   33.56    4.43
   2   4 -33   26.19    3.99
  -4   2 -33   23.83    3.52
   4  -2 -33   24.76    3.71
  -4   2 -33   23.75    3.35
  -2  -4 -33   24.11    3.96
  -4   2 -33   23.49    3.22
   2  -4  33   24.80    3.46
  -4  -2  34    7.49    2.42
  -2   4  34    4.34    2.03
  -4   2 -34    4.96    2.03
   2   4 -34    6.81    2.41
  -4   2 -34    6.03    2.06
   2  -4  34    4.17    1.82
  -4  -2  35   11.09    2.66
  -2   4  35   10.83    2.52
  -4   2 -35    8.76    2.19
   2   4 -35   10.70    2.67
  -4   2 -35   11.25    2.41
   2  -4  35    7.87    2.21
  -4   2 -36   25.03    3.15
  -2   4  36   24.34    3.39
   2   4 -36   31.15    3.79
  -4  -2  36   31.22    3.92
  -4   2 -36   27.65    3.16
  -4  -2  36   27.54    3.77
   2  -4  36   32.33    3.45
  -2   4  37   15.89    2.67
  -4   2 -37   22.84    2.80
  -4  -2  37   20.49    3.24
   2   4 -37   18.45    2.99
  -4   2 -37   22.75    2.76
   2  -4  37   23.25    2.81
  -4  -2  37   21.73    3.12
  -2   4  38    4.91    1.66
  -4  -2  38    5.20    1.89
   2   4 -38   11.12    2.24
  -4   2 -38    8.66    1.77
   2  -4  38    9.33    1.87
  -4  -2  38    8.58    2.08
   2   4 -39   55.78    4.27
  -4  -2  39   54.43    4.45
  -4   2 -39   56.35    3.68
  -4  -2  39   61.82    4.46
   2  -4  39   60.68    4.06
  -4  -2  40    5.70    1.54
  -2   4  40    0.83    0.81
   2   4 -40    3.09    1.35
  -2  -4 -40    2.96    1.33
   2  -4  40    2.87    1.16
  -4  -2  40    3.77    1.26
   2   4 -41   26.24    2.38
  -4  -2  41   15.71    2.12
  -2  -4 -41   20.51    2.33
   2   4 -41   30.21    2.43
  -4  -2  41   23.58    2.30
   2  -4  41   24.66    2.20
   2   4 -42    9.56    1.26
   2  -4  42    8.27    1.15
   4   3 -41   35.35    2.38
  -3  -4  41   38.45    2.80
  -3   4 -40   11.09    1.62
  -4   3  40    9.37    1.68
  -3  -4  40   19.98    2.26
   4  -3  40   20.85    1.86
  -3   4 -39    0.50    0.95
   3   4  39   -0.56    0.93
   4   3 -39    0.43    0.83
  -4   3  39    0.15    0.97
   4  -3  39    0.23    0.80
  -3  -4  39    0.32    1.16
  -3   4 -38   10.86    1.90
   4   3 -38    8.56    1.67
  -4   3  38    7.20    1.81
   4  -3  38    8.22    1.63
  -3   4 -37   16.99    2.48
   4   3 -37   19.13    2.47
  -4   3  37   16.87    2.71
   4  -3  37   19.98    2.43
  -4   3  36   56.44    4.88
  -3  -4  36   42.67    4.14
  -3   4 -36   58.52    4.68
   4   3 -36   53.67    4.41
  -3   4 -36   50.72    3.84
   4  -3  36   52.21    4.12
  -4   3  35   28.00    3.66
  -3  -4  35   24.40    3.34
   4   3 -35   27.21    3.31
  -3   4 -35   28.49    3.48
  -3   4 -35   27.49    2.96
   4  -3  35   28.96    3.18
  -3  -4  35   29.45    3.71
  -3  -4  34    9.86    2.27
  -4   3  34    9.43    2.55
  -3   4 -34   10.15    2.51
   4   3 -34   15.97    2.79
  -3   4 -34   10.23    2.11
  -3  -4  34   12.83    2.88
  -3  -4  33   60.30    5.58
  -3   4 -33   74.24    5.86
  -4   3  33   75.76    6.36
   4   3 -33   68.94    5.62
  -3   4 -33   65.30    4.94
  -3  -4  33   71.61    6.08
  -3   4 -33   61.53    4.57
  -4   3  32   65.56    5.99
  -3  -4  32   61.22    5.66
   4   3 -32   58.78    5.29
  -3   4 -32   60.36    5.51
  -3   4 -32   53.42    4.34
   4   3 -31   16.54    3.20
   4   3 -31   21.92    3.36
  -3   4 -31   20.78    3.49
  -4   3  31   23.09    3.69
  -3  -4  31   18.09    3.27
  -3   4 -31   20.02    2.69
   4   3 -30  233.51   11.60
  -3   4 -30  236.13   12.21
  -4   3  30  249.45   13.21
  -3  -4  30  234.49   12.56
   4   3 -30  235.37   12.09
  -3   4 -30  243.19   11.01
  -3   4 -29    8.08    2.64
   4   3 -29    5.90    2.36
   4   3 -29    6.98    2.36
  -4   3  29    3.99    2.33
  -3  -4  29    5.31    2.34
  -3   4 -29    7.15    1.92
  -3   4 -28   13.66    2.98
   4   3 -28   15.35    2.90
   3  -4 -28   14.66    2.95
   4   3 -28   15.16    2.96
  -4   3  28   18.70    3.46
  -3  -4  28   16.06    3.14
  -3   4 -28   18.04    2.64
   3  -4 -27   39.47    4.49
   4   3 -27   44.89    4.59
  -3   4 -27   48.30    5.09
  -3  -4  27   53.45    5.44
  -4   3  27   54.46    5.62
   4   3 -27   46.36    4.87
  -3   4 -27   45.21    4.15
   4   3 -26  586.23   22.62
   3  -4 -26  614.18   22.88
  -4   3  26  617.70   24.79
  -4   3  26  527.07   26.05
  -3  -4  26  664.08   24.69
  -3   4 -26  627.82   23.92
   4   3 -26  608.75   23.61
  -3   4 -26  602.87   22.15
  -3  -4  26  629.65   24.01
   3  -4 -25   35.79    4.03
   4   3 -25   38.40    4.15
   4   3 -25   42.92    4.63
  -3  -4  25   40.82    4.65
  -4   3  25   34.59    5.31
  -4   3  25   38.85    4.74
  -3   4 -25   43.91    4.73
  -3  -4  25   38.42    4.43
  -3   4 -25   35.93    3.66
   3  -4 -24  400.17   15.83
   4   3 -24  399.01   15.80
   4   3 -24  354.71   16.01
  -4   3  24  378.87   17.14
  -3   4 -24  374.69   16.46
  -3  -4  24  378.97   16.84
  -4   3  24  362.31   19.04
  -3  -4  24  365.84   16.25
  -3   4 -24  359.39   14.94
   4   3 -23  157.40    9.15
  -4   3  23  161.88   11.50
  -4   3  23  171.38   10.09
  -3  -4  23  167.91    9.72
  -3   4 -23  166.05    9.46
   3  -4 -23  154.95    8.55
   4   3 -23  153.90    8.51
   4  -3  23  159.16    7.88
  -3   4 -23  154.07    8.25
  -3  -4  23  165.47    9.33
  -3   4 -22   68.64    5.59
   4   3 -22   69.34    5.58
  -4   3  22   56.98    6.64
  -4   3  22   72.98    6.17
  -3  -4  22   65.55    5.73
   3  -4 -22   61.29    4.91
   4   3 -22   71.76    5.30
   4  -3  22   62.34    4.53
  -3   4 -22   65.41    4.82
  -3  -4  22   64.24    5.39
   4   3 -21  194.32   10.32
  -4   3  21  218.90   11.41
  -4   3  21  206.87   13.07
  -3  -4  21  228.27   11.42
  -3   4 -21  212.55   10.77
   3  -4 -21  217.84   10.06
   4   3 -21  206.62    9.95
   4  -3  21  207.57    9.43
  -3   4 -21  209.04    9.76
  -3  -4  21  202.36   10.46
   4   3 -20   29.49    3.35
   3  -4 -20   31.14    3.26
   4   3 -20   30.72    3.72
  -4   3  20   30.45    4.59
  -4   3  20   29.15    3.71
  -3   4 -20   29.36    3.55
  -3  -4  20   30.27    3.82
   4  -3  20   32.93    3.11
  -3  -4  20   39.22    3.92
  -3   4 -20   30.32    3.19
  -3   4 -19  511.29   19.88
  -4   3  19  500.27   20.38
   4   3 -19  506.58   19.60
  -4   3  19  530.52   23.17
  -3  -4  19  554.64   20.58
   3  -4 -19  526.34   18.92
   4   3 -19  521.27   19.01
  -4  -3 -19  519.30   20.79
  -3   4 -19  501.80   18.76
   4  -3  19  516.34   18.59
  -3  -4  19  502.29   19.64
  -4   3  18  255.45   14.27
  -4   3  18  260.62   12.23
  -3   4 -18  247.28   11.55
   3  -4 -18  263.70   10.92
   4   3 -18  242.30   10.76
  -4  -3 -18  261.28   12.49
  -4  -3 -18  245.61   11.57
  -3  -4  18  260.73   11.57
   4  -3  18  235.41   10.48
  -3   4 -18  255.71   10.86
  -4   3  17  154.07   10.53
   4   3 -17  149.59    7.60
   3  -4 -17  163.09    7.68
  -4  -3 -17  143.14    8.62
  -4  -3 -17  162.62    9.02
  -4  -3 -17  155.52    8.29
  -3   4 -17  149.20    7.61
  -3  -4  17  160.12    8.22
  -4  -3 -16  154.20    8.66
   4   3 -16  153.63    7.54
   3  -4 -16  151.72    7.38
  -4  -3 -16  156.80    9.00
  -4   3  16  157.80    8.86
  -4  -3 -15  431.12   17.65
   3  -4 -15  422.79   15.23
  -4   3  15  422.56   17.56
   4   3 -15  402.94   15.35
   3  -4 -14  454.33   15.90
  -4  -3 -14  451.97   18.51
   4   3 -14  438.28   16.08
  -4   3  14  436.76   18.39
  -3  -4  13  347.63   14.96
   4   3 -13  332.68   12.74
  -4  -3 -13  362.42   15.42
  -4   3  13  319.44   12.25
   3  -4 -13  333.09   12.41
  -4   3  13  335.18   15.17
   3  -4 -12  173.88    7.60
   4   3 -12  180.92    7.98
  -4   3  12  187.18   10.19
  -4   3  12  179.51    7.77
  -4  -3 -12  180.08   10.05
  -3  -4  12  191.99   10.04
   3  -4 -11   58.97    3.66
  -4   3  11   61.55    3.88
  -4  -3 -11   71.49    5.80
   4   3 -11   61.34    4.01
  -3  -4  11   61.41    5.32
  -4   3  10  743.15   25.18
  -4  -3 -10  760.00   28.18
   4   3 -10  797.48   25.38
  -3  -4  10  813.18   28.26
  -4  -3  -9 1140.59   36.90
  -3  -4   9 1130.10   36.56
  -4   3   9 1004.39   33.21
   4   3  -9 1036.80   33.29
  -4   3   8  132.34    6.37
  -3  -4   8  165.73    9.01
  -4  -3  -8  153.59    8.81
   4   3  -8  129.67    6.34
  -4  -3  -7  181.78    9.88
  -3  -4   7  174.66    9.64
   3  -4  -7  168.08   10.16
  -4  -3  -6  277.68   13.12
  -3  -4   6  279.09   13.04
  -3  -4   5  144.66    8.59
  -4  -3  -5  146.91    8.73
  -3  -4   4  766.99   27.79
  -4  -3  -4  763.41   27.84
  -3  -4   3   47.03    4.69
  -3  -4   2   52.87    4.92
  -4  -3  -1   57.42    5.19
  -3  -4   1   66.62    5.48
  -3  -4   0  378.84   16.39
  -4  -3   0  389.97   16.55
   4  -3   0  387.69   17.52
  -4  -3   1   61.80    5.36
  -3  -4  -1   73.86    5.97
   4  -3  -1   69.68    6.16
  -4  -3   1   65.38    4.70
  -4  -3   2   50.37    4.89
  -4  -3   2   45.03    4.01
   4  -3  -2   46.97    5.03
  -4  -3   3   46.91    4.75
  -4  -3   3   52.62    4.45
   4  -3  -3   58.85    5.54
  -3  -4  -4  792.56   28.54
  -4  -3   4  787.90   28.23
  -4  -3   4  776.47   27.55
   4  -3  -4  755.65   29.01
  -4  -3   5  154.58    8.96
  -3  -4  -5  151.67    9.09
   4  -3  -5  152.99    9.42
  -4  -3   5  146.45    8.59
  -3  -4  -6  254.21   12.71
  -4  -3   6  262.73   12.55
  -4  -3   6  266.76   12.69
   4  -3  -6  272.38   13.49
  -3  -4  -7  188.46   10.47
  -4  -3   7  189.47   10.15
   4  -3  -7  181.92   10.68
  -4  -3   7  200.64   10.63
  -3  -4  -8  141.30    8.78
   4  -3  -8  140.84    6.65
  -4   3  -8  148.35    6.79
  -4  -3   8  145.03    8.55
  -4  -3   8  144.20    8.98
   4  -3  -8  135.20    9.02
  -4   3  -9 1132.21   35.28
  -3  -4  -9 1119.94   38.62
   4  -3  -9 1092.51   35.15
  -4  -3   9 1120.50   38.05
  -4  -3   9 1128.89   39.31
   4  -3 -10  781.19   26.12
  -4   3 -10  828.21   26.26
  -3  -4 -10  816.75   29.55
  -4  -3  10  782.51   28.73
  -4  -3  10  800.57   30.29
   3   4 -11   63.10    3.73
  -4  -3  11   62.32    5.33
  -4   3 -11   65.03    4.00
   4  -3 -11   66.72    4.23
  -3  -4 -11   68.63    5.87
  -4  -3  11   61.04    6.09
   3   4 -12  171.66    7.59
  -4   3 -12  205.98   10.39
  -4   3 -12  186.40    7.96
  -4  -3  12  213.19   10.43
  -3  -4 -12  196.47   10.60
   4  -3 -12  167.02    8.00
  -4  -3  12  194.66   11.52
  -4  -3  13  334.64   14.90
  -4   3 -13  353.94   15.21
   3   4 -13  329.95   12.48
  -4   3 -13  355.47   12.80
   4  -3 -13  347.82   13.16
  -4  -3  13  339.65   17.04
   4  -3 -14  459.48   16.29
  -4  -3  14  429.90   17.84
   3   4 -14  423.36   15.49
  -4   3 -14  461.39   18.19
  -4   3 -14  443.39   15.57
   4  -3 -15  422.15   15.76
  -4  -3  15  438.94   17.59
   3   4 -15  412.80   15.13
  -4   3 -15  414.09   14.87
  -4   3 -15  439.77   17.45
  -4   3 -16  159.91    8.65
   3   4 -16  154.83    7.16
   4  -3 -16  156.09    7.62
  -4  -3  16  140.81    8.34
  -3  -4 -16  146.51    8.45
  -4  -3  16  129.93    7.76
  -4   3 -16  145.53    7.53
   4  -3 -17  158.00    7.89
   3   4 -17  152.16    7.44
  -4   3 -17  160.98    8.64
  -3  -4 -17  159.24    9.04
   3  -4  17  159.28    7.98
  -4  -3  17  163.41    8.55
  -4   3 -17  151.59    7.84
   3   4 -18  237.95   11.59
  -4  -3  18  263.22   12.52
  -3   4  18  256.56   13.80
   4  -3 -18  253.76   11.04
   3   4 -18  253.46   10.63
  -3  -4 -18  271.54   12.63
  -4   3 -18  242.84   11.00
   3  -4  18  265.67   11.09
  -4  -3  18  235.89   11.52
   3   4 -19  500.20   19.72
  -3   4  19  516.62   22.07
  -4   3 -19  516.52   19.41
  -4  -3  19  536.83   20.82
  -3   4  19  457.42   19.40
   4  -3 -19  507.53   18.93
   3   4 -19  536.10   18.65
  -3  -4 -19  536.20   20.79
   3  -4  19  507.73   18.86
  -4   3 -19  503.22   18.88
  -4  -3  19  496.21   19.86
  -3   4  20   36.74    4.77
  -4  -3  20   34.57    4.13
  -3   4  20   29.69    3.56
   3   4 -20   26.45    3.49
  -4   3 -20   30.00    3.48
   4  -3 -20   27.48    3.35
   3   4 -20   30.03    3.19
  -3  -4 -20   31.34    4.08
   3  -4  20   38.04    3.48
  -4  -3  20   26.33    3.49
  -4   3 -20   29.63    3.27
   3   4 -21  187.43   10.37
  -4  -3  21  195.88   11.07
  -3   4  21  221.56   11.00
  -3   4  21  194.48   11.85
  -4   3 -21  211.79   10.46
   4  -3 -21  214.55   10.15
   3   4 -21  196.58    9.48
   3  -4  21  200.70    9.59
  -3  -4 -21  227.09   11.69
  -4   3 -21  202.03    9.82
  -4   3 -22   64.12    5.30
  -4  -3  22   63.59    5.93
  -3   4  22   67.07    6.51
  -3   4  22   62.10    5.45
   3   4 -22   64.09    5.55
   3   4 -22   67.41    4.99
   4  -3 -22   70.01    5.41
   3  -4  22   66.62    4.86
  -3  -4 -22   73.07    6.32
  -4   3 -22   66.21    5.06
  -4   3 -23  167.59    9.35
  -3   4  23  163.61    9.78
  -4  -3  23  168.37   10.10
   3   4 -23  172.96    9.76
   4  -3 -23  163.13    8.94
   3   4 -23  158.72    8.50
   3  -4  23  170.51    8.52
  -3  -4 -23  166.42   10.27
  -4   3 -23  164.14    8.75
  -4   3 -24  381.65   16.42
   3   4 -24  373.91   16.68
  -4  -3  24  383.86   17.54
  -3   4  24  399.62   17.08
   4  -3 -24  382.38   15.96
   3   4 -24  388.02   15.56
  -3  -4 -24  392.11   17.72
   3  -4  24  369.19   15.13
  -4   3 -24  379.00   15.63
  -4  -3  25   34.43    4.57
  -3   4  25   37.26    4.38
  -4   3 -25   34.23    4.13
   3   4 -25   32.63    4.24
   4  -3 -25   42.45    4.48
   3   4 -25   38.19    4.09
   3  -4  25   44.51    3.89
  -3  -4 -25   31.06    4.55
  -4   3 -25   39.36    3.96
  -3   4  26  628.44   24.23
   3   4 -26  616.54   23.98
  -4   3 -26  601.42   23.46
  -4  -3  26  638.85   24.93
   3   4 -26  582.78   22.41
   4  -3 -26  629.01   23.20
  -3  -4 -26  613.05   24.78
   3  -4  26  611.53   21.99
  -4   3 -26  587.68   22.46
   3   4 -27   47.42    5.14
  -4  -3  27   45.82    5.29
  -3   4  27   42.72    4.91
  -4   3 -27   42.64    4.63
   3   4 -27   45.29    4.47
   4  -3 -27   42.91    4.66
  -4   3 -27   49.97    4.46
   3  -4  27   40.92    3.84
  -3  -4 -27   44.55    5.33
  -4  -3  27   46.35    5.03
  -4   3 -27   43.46    4.28
  -4  -3  28   21.92    3.69
  -3   4  28   18.73    3.39
  -4   3 -28   17.03    2.83
   4  -3 -28   17.18    3.10
   3   4 -28   15.54    2.82
  -4   3 -28   17.71    3.05
   3   4 -28   10.17    2.73
  -3  -4 -28   18.22    3.61
  -4   3 -28   20.08    3.00
  -4  -3  28   15.83    3.33
   3  -4  28   14.60    2.37
  -4  -3  29    8.15    2.66
  -3   4  29    6.54    2.21
  -4   3 -29    2.97    1.75
   4  -3 -29    5.68    2.28
  -4   3 -29    2.70    1.94
   3   4 -29    4.47    2.44
  -3  -4 -29    7.52    2.99
  -4   3 -29    5.01    1.92
  -4  -3  29    8.39    2.57
  -3   4  30  247.43   12.72
  -4  -3  30  243.59   12.99
   3   4 -30  241.67   12.43
  -4   3 -30  244.10   12.08
   4  -3 -30  232.15   11.79
  -4   3 -30  221.96   11.11
  -4   3 -30  239.19   11.38
  -4  -3  30  246.47   12.84
  -4  -3  31   23.05    3.84
  -3   4  31   26.07    3.82
  -4   3 -31   17.74    2.83
  -4   3 -31   27.25    3.60
   3   4 -31   19.19    3.55
   4  -3 -31   19.65    3.29
  -4   3 -31   17.13    2.73
  -4  -3  31   22.68    3.65
  -4   3 -32   63.10    5.40
  -3   4  32   55.93    5.44
   3   4 -32   53.40    5.43
  -4  -3  32   63.59    5.91
  -4   3 -32   63.82    4.94
  -4   3 -32   57.93    4.79
   3   4 -33   69.50    5.84
  -4   3 -33   67.73    5.54
  -4  -3  33   71.92    6.21
  -3   4  33   71.08    6.00
  -4   3 -33   72.70    5.27
  -4   3 -33   64.07    5.02
   3  -4  33   80.72    5.78
  -3   4  34    9.17    2.34
  -4  -3  34    7.48    2.41
   3   4 -34   10.60    2.54
  -4   3 -34    7.82    2.22
  -4   3 -34    7.17    1.93
  -4   3 -34    7.99    1.99
   3  -4  34    7.73    2.15
  -4  -3  35   27.58    3.64
  -4   3 -35   23.78    3.11
   3   4 -35   33.71    3.79
  -3   4  35   25.26    3.43
  -4   3 -35   25.68    2.88
   3  -4  35   33.04    3.48
  -4  -3  36   49.71    4.61
  -4   3 -36   51.34    4.27
   3   4 -36   58.29    4.82
  -3   4  36   46.21    4.42
   3  -4  36   56.67    4.38
   3   4 -37   16.47    2.53
  -4  -3  37   16.11    2.64
  -3   4  37   13.58    2.27
   3  -4  37   15.34    2.31
  -4  -3  37   18.75    2.86
   3   4 -38    7.54    1.75
  -3   4  38    3.67    1.46
  -4  -3  38    8.72    1.87
   3  -4  38    9.01    1.74
  -4  -3  38    7.62    2.02
   3   4 -39   -0.80    1.12
  -4  -3  39   -0.14    0.90
  -3   4  39   -0.35    0.83
  -3  -4 -39    0.35    1.14
   3  -4  39    0.13    0.93
  -4  -3  39   -0.16    1.25
   3   4 -40   18.87    1.97
  -3  -4 -40   16.76    2.23
  -4  -3  40   18.90    2.19
   3  -4  40   19.09    1.94
  -3  -4 -41   33.50    2.78
  -4  -3  41   30.82    2.57
   3  -4  41   35.65    2.41
  -4  -4   0  741.07   28.30
   4  -4   0  752.32   29.70
  -4  -4   1   46.01    5.16
  -4  -4  -1   59.14    5.82
   4  -4  -1   47.69    5.65
  -4  -4   2    1.87    1.76
   4  -4  -2    5.20    2.40
  -4  -4   3   36.39    4.68
   4  -4  -3   50.07    5.53
  -4  -4  -4  634.99   25.00
  -4  -4   4  605.33   24.55
   4  -4  -4  655.80   25.97
  -4  -4   5  269.51   13.32
  -4  -4  -5  249.42   13.17
   4  -4  -5  237.92   13.45
  -4  -4  -6   92.64    7.42
  -4  -4   6  107.26    7.76
   4  -4  -6   96.12    7.89
  -4  -4   7  551.65   21.93
   4   4  -7  506.83   17.88
  -4  -4  -7  548.53   22.11
   4  -4  -7  533.98   18.10
   4  -4  -7  547.89   22.92
  -4  -4  -8  159.97    9.86
   4   4  -8  142.88    6.66
   4  -4  -8  151.34    6.84
  -4  -4   8  161.68    9.68
   4  -4  -8  157.17   10.22
   4  -4  -9   31.46    2.71
   4   4  -9   30.71    2.67
  -4  -4   9   39.39    4.52
  -4  -4  -9   35.81    4.67
  -4  -4 -10   20.86    3.58
   4  -4 -10   19.50    2.25
   4   4 -10   23.04    2.33
  -4  -4  10   23.06    3.53
  -4  -4  11  317.37   14.98
   4  -4 -11  311.26   11.99
  -4  -4 -11  296.36   15.00
   4   4 -11  317.82   11.94
   4  -4 -12  747.67   25.10
  -4   4 -12  812.76   25.56
   4   4 -12  723.06   24.90
  -4  -4  12  756.04   28.45
  -4  -4 -12  738.79   28.78
  -4   4  12  773.75   25.36
   4   4 -13  185.38    8.13
   4  -4 -13  178.28    8.15
  -4   4 -13  185.69    8.23
  -4  -4 -13  187.88   11.03
  -4  -4  13  178.30   10.39
  -4   4  13  173.94    8.06
  -4   4 -13  177.50    8.58
  -4   4  14   17.71    2.15
   4   4 -14   21.93    2.44
  -4  -4 -14   17.70    3.24
  -4  -4  14   24.55    3.71
  -4   4 -14   21.54    2.34
   4  -4 -14   21.41    2.48
  -4   4 -14   19.17    2.53
   4  -4  14   19.93    2.59
   4  -4 -15    5.02    1.57
   4   4 -15    5.41    1.50
  -4   4  15    2.80    1.72
  -4   4 -15    3.52    1.67
  -4   4 -15    4.98    1.41
  -4  -4 -15    6.49    2.20
  -4  -4  15    3.59    1.77
  -4   4 -15    5.68    1.56
  -4  -4  15    2.55    1.33
   4  -4  15    4.84    1.54
  -4   4 -16  203.89    8.77
   4  -4 -16  206.11    9.36
   4   4 -16  209.05    9.24
  -4   4  16  188.81   11.12
  -4   4 -16  219.19   11.25
   4  -4  16  221.16    9.84
  -4  -4  16  197.55   10.12
  -4   4 -16  206.68    9.60
   4  -4 -17   99.93    5.92
   4   4 -17  102.95    5.90
  -4   4 -17   96.52    6.80
  -4   4 -17   91.92    6.04
   4   4 -17   92.47    6.20
  -4  -4  17   97.83    6.71
  -4   4  17   93.94    6.52
  -4  -4  17   97.65    6.49
   4  -4  17   92.34    5.79
  -4   4 -17   92.02    5.87
   4  -4 -18   11.51    2.15
   4   4 -18   13.10    2.26
   4   4 -18    8.61    2.17
  -4   4 -18    8.37    2.04
  -4  -4  18   10.54    2.46
  -4   4  18    5.89    1.92
  -4   4  18   12.00    3.00
  -4   4 -18   13.47    2.27
   4  -4  18    9.15    1.89
  -4  -4  18   10.15    2.33
   4   4 -19  249.29   10.93
   4  -4 -19  261.14   11.25
  -4   4  19  257.17   12.24
  -4   4  19  273.24   15.02
  -4  -4  19  246.73   12.40
   4   4 -19  238.35   11.74
  -4   4 -19  256.51   11.80
  -4  -4  19  257.25   12.20
   4  -4  19  239.26   10.94
  -4   4 -19  233.32   10.97
   4   4 -20  228.53   10.29
   4  -4 -20  217.14   10.28
  -4   4  20  210.16   11.19
  -4   4 -20  226.26   10.93
   4   4 -20  201.21   10.74
  -4  -4  20  202.95   11.35
  -4   4  20  211.26   13.21
  -4  -4  20  232.62   11.43
   4  -4  20  219.23   10.16
  -4   4 -20  232.01   10.52
  -4   4  21   54.48    6.36
  -4   4 -21   54.18    4.85
   4   4 -21   59.28    5.12
  -4  -4  21   59.04    5.40
  -4   4  21   46.09    4.83
   4   4 -21   56.84    4.56
   4  -4 -21   56.71    4.67
   4  -4  21   54.52    4.37
  -4  -4  21   58.20    5.22
  -4   4 -21   52.12    4.48
  -4  -4  22   15.81    3.03
  -4   4  22   20.71    3.27
  -4   4  22   19.34    3.92
  -4   4 -22   16.87    2.60
  -4   4 -22   21.65    3.21
   4   4 -22   20.36    2.86
   4  -4 -22   20.70    3.02
   4   4 -22   15.18    2.88
   4  -4  22   22.07    2.71
  -4  -4  22   24.85    3.58
   4   4 -23  395.52   16.82
  -4  -4  23  414.23   17.71
  -4   4  23  400.31   17.46
  -4   4 -23  393.66   16.72
  -4   4  23  400.38   19.82
   4  -4 -23  376.35   15.88
   4   4 -23  403.21   15.97
   4  -4  23  394.17   15.47
  -4  -4  23  395.45   17.19
  -4   4 -23  366.01   15.63
  -4   4  24   57.33    6.63
  -4   4 -24   57.65    5.32
   4   4 -24   62.42    5.61
  -4  -4  24   59.09    5.71
  -4   4  24   67.20    5.97
   4  -4 -24   60.38    5.10
   4   4 -24   70.67    5.31
   4  -4  24   55.32    4.43
  -4  -4  24   63.31    5.81
  -4   4 -24   61.20    4.95
   4  -4 -25   11.53    2.62
   4   4 -25   13.15    2.79
  -4   4 -25   13.25    2.79
   4   4 -25   15.02    2.84
  -4  -4  25   19.15    3.30
  -4   4 -25   14.79    2.62
  -4   4  25   11.70    2.70
  -4  -4  25   12.59    3.13
   4  -4  25   12.19    2.17
  -4   4 -26  132.37    8.32
   4   4 -26  132.39    8.47
  -4   4  26  132.28    8.80
  -4  -4  26  131.04    8.83
   4  -4 -26  135.18    8.03
   4   4 -26  141.21    7.95
   4  -4  26  131.74    7.14
  -4   4 -26  117.70    7.38
  -4  -4  26  124.87    8.56
  -4  -4  27   14.64    3.09
  -4   4  27   12.15    2.94
  -4   4 -27   11.64    2.36
   4   4 -27   13.83    2.81
   4   4 -27   14.16    3.02
   4  -4 -27   12.34    2.70
  -4   4 -27   12.01    2.75
  -4   4 -27   11.17    2.27
  -4  -4  27    8.60    2.56
   4  -4  27   12.95    2.12
  -4   4  28   50.11    5.40
  -4  -4  28   63.39    5.83
  -4   4 -28   48.40    4.88
   4   4 -28   48.28    4.99
   4  -4 -28   54.86    4.93
   4   4 -28   51.91    4.69
   4  -4  28   51.72    4.09
  -4   4 -28   46.01    4.11
  -4   4 -28   45.60    4.38
  -4   4  29   34.71    4.37
   4   4 -29   33.53    4.07
  -4  -4  29   29.13    4.06
  -4   4 -29   33.89    4.05
   4  -4 -29   33.99    3.93
   4   4 -29   34.95    3.91
  -4   4 -29   36.70    3.58
  -4   4 -29   30.57    3.45
  -4   4 -30    0.82    1.37
  -4  -4  30   -0.30    1.64
  -4   4  30    0.59    1.52
  -4   4 -30    1.00    1.62
   4   4 -30    2.11    1.78
  -4   4 -30   -0.38    1.12
  -4  -4  31   29.72    3.94
  -4   4  31   43.04    4.75
  -4   4 -31   36.81    4.07
   4   4 -31   34.97    4.09
  -4   4 -31   35.26    3.44
  -4   4 -31   42.37    3.91
   4   4 -32   13.12    2.68
  -4   4 -32   14.24    2.70
  -4   4 -32   10.59    2.09
  -4  -4  32   11.21    2.64
  -4   4  32   12.45    2.69
   4   4 -33   -0.67    1.57
  -4   4 -33    1.68    1.50
  -4   4 -33    1.72    1.33
  -4  -4  33   -0.25    1.34
  -4   4  33    0.25    1.58
  -4   4  34   31.33    3.68
  -4   4 -34   32.01    3.41
  -4  -4  34   28.55    3.47
   4   4 -34   28.62    3.36
  -4   4 -34   29.57    3.00
   4  -4  34   27.65    3.27
   4   4 -35    0.18    1.21
  -4   4 -35    0.34    1.23
  -4   4  35    0.63    1.30
  -4  -4  35   -0.40    1.22
   4  -4  35    0.18    1.31
  -4   4  36    3.82    1.62
   4   4 -36    7.24    1.70
  -4  -4 -36    5.90    2.07
   4  -4  36    6.10    1.61
  -4  -4  36    8.05    2.02
   4   4 -37   92.05    5.15
  -4  -4 -37   99.73    6.38
   4  -4  37   95.91    5.29
  -4  -4  37  109.80    6.35
  -4   4  38   -0.35    0.90
   4   4 -38   -0.11    0.90
  -4  -4 -38   -0.18    1.28
  -4  -4  38   -0.33    1.22
   4  -4  38    0.37    0.91
  -4  -4 -39   35.94    3.23
  -4  -4  39   34.10    3.07
   4  -4  39   43.98    2.89
  -4  -4 -40    8.85    1.44
  -4  -4  40    8.27    1.41
   4  -4  40    7.43    1.14
  -5   0   0    3.18    2.23
   0  -5   0    0.76    1.05
  -5   0   1  821.87   29.60
  -5   0  -1  825.01   29.56
   5   0  -1  774.60   28.64
   0  -5   1  856.79   28.12
  -5   0   2  192.37   10.36
   0  -5   2  208.10    9.30
  -5   0   3  222.78   11.45
   5   0  -3  221.23   10.55
   0  -5   3  230.06   10.29
  -5   0  -4  207.24   10.74
  -5   0   4  201.47   10.77
   0  -5   4  207.25    9.65
   5   0  -4  199.12    9.75
  -5   0   5  564.67   22.35
  -5   0  -5  575.52   22.33
   0  -5   5  614.18   21.32
   5   0  -5  563.85   21.09
  -5   0  -6 1658.89   54.66
  -5   0   6 1698.33   54.91
   0  -5   6 1758.83   53.59
   5   0  -6 1639.13   53.20
  -5   0   7  555.12   21.61
  -5   0  -7  545.03   21.42
   0  -5   7  551.15   20.46
   5   0  -7  547.55   20.16
  -5   0   8   56.94    5.06
  -5   0  -8   40.78    4.40
   0  -5   8   41.65    4.01
  -5   0   8   50.79    5.00
  -5   0   9  155.13    9.04
  -5   0  -9  155.21    8.97
  -5   0  10  885.31   32.33
  -5   0 -10  971.59   32.72
  -5   0 -11  298.62   13.67
  -5   0  11  307.35   13.87
   5   0 -11  300.37   12.31
   5   0 -12  200.16    9.06
  -5   0  12  178.60    9.88
  -5   0 -12  186.13    9.99
  -5   0 -13  176.58    9.46
  -5   0  13  152.93    8.98
   5   0 -13  175.58    8.35
  -5   0  13  163.65   10.49
   5   0 -14    0.72    1.45
  -5   0 -14    1.01    1.19
  -5   0  14    0.50    1.14
  -5   0  14    4.06    2.00
   5   0 -15  108.76    6.50
  -5   0  15  103.78    6.98
  -5   0 -15  118.31    7.27
  -5   0  15  122.46    9.12
  -5   0  16    1.68    1.30
  -5   0 -16    1.92    1.27
   5   0 -16    2.92    1.51
  -5   0  16    4.20    1.72
  -5   0  16    4.83    2.12
  -5   0 -16    3.92    1.39
   0  -5  16    1.77    1.11
  -5   0 -17    0.23    0.90
   5   0 -17    1.20    1.61
  -5   0  17   -0.27    1.25
  -5   0  17    0.42    1.92
  -5   0 -17    2.06    1.23
   0  -5  17    0.18    0.94
  -5   0  18    0.57    1.26
  -5   0 -18    0.59    1.23
  -5   0  18   -0.44    2.07
   0   5 -18    2.39    1.43
   5   0 -18    1.44    1.59
  -5   0 -18   -0.21    1.04
   0  -5 -18    1.29    1.13
   0  -5  18    0.57    1.14
   0   5 -19  208.99   10.81
  -5   0  19  233.62   11.96
  -5   0  19  215.15   13.76
   0  -5  19  208.93    9.93
  -5   0 -19  196.53   10.10
   0  -5 -19  213.12   10.46
   5   0 -19  228.55   10.55
  -5   0  20  148.78    9.36
  -5   0  20  146.89   11.26
   0   5 -20  136.86    8.44
   0  -5  20  144.36    7.79
   0  -5 -20  132.32    8.04
  -5   0 -20  142.05    8.15
   5   0 -20  146.62    8.14
   0   5 -21   85.60    6.53
  -5   0  21   92.28    7.21
  -5   0  21   86.54    8.53
   5   0 -21   85.15    6.10
   0  -5 -21   80.12    6.07
  -5   0 -21   85.18    6.22
   0  -5  21   89.20    5.89
  -5   0  22   37.78    4.65
   0   5 -22   29.25    3.97
  -5   0  22   32.31    5.44
   5   0 -22   35.53    3.97
   0  -5 -22   25.96    3.49
   0  -5  22   25.80    3.23
  -5   0 -22   31.81    3.78
  -5   0 -22   28.75    3.53
  -5   0  23   15.33    3.86
  -5   0 -23   15.19    2.89
  -5   0  23   11.02    2.98
   5   0 -23   11.49    2.76
   0   5 -23   17.56    3.17
  -5   0 -23   14.57    2.68
   0  -5 -23   10.51    2.43
   0  -5  23   17.47    2.73
   0  -5  23   11.60    2.30
  -5   0  24  181.89   11.03
  -5   0  24  162.71   12.51
   0   5 -24  159.51    9.77
   5   0 -24  164.42    9.22
   0  -5 -24  157.71    9.32
   0  -5  24  157.32    8.75
  -5   0 -24  164.84    9.44
   0  -5  24  160.09    8.94
  -5   0 -24  161.04    9.20
  -5   0 -25  259.97   12.81
  -5   0  25  254.82   16.69
   0   5 -25  273.17   13.80
  -5   0  25  294.03   14.95
   5   0 -25  293.55   13.35
  -5   0 -25  285.56   13.54
   0  -5 -25  275.78   13.36
  -5   0 -25  287.12   13.40
   0  -5  25  282.49   13.10
  -5   0 -26  209.56   11.10
  -5   0  26  223.37   15.13
   0   5 -26  215.42   11.97
  -5   0  26  210.00   12.59
   5   0 -26  227.80   11.50
  -5   0 -26  226.61   11.71
   0  -5 -26  218.80   11.52
   0  -5  26  213.46   11.12
  -5   0 -26  227.28   11.67
  -5   0  27    9.29    2.84
  -5   0 -27    4.35    2.23
  -5   0  27    7.40    3.36
  -5   0 -27    4.85    1.96
   0   5 -27    7.54    2.73
   5   0 -27    7.49    2.76
  -5   0 -27    4.29    2.11
   0  -5 -27    3.40    1.95
  -5   0  27    7.35    2.45
   0  -5  27    4.50    1.85
  -5   0  28    0.75    2.06
  -5   0 -28    0.51    1.48
  -5   0 -28    0.82    1.65
   0   5 -28    0.94    2.20
   5   0 -28    0.81    2.13
  -5   0 -28    0.58    1.98
   0  -5 -28    0.28    1.77
  -5   0  28    0.61    1.66
   0  -5  28    0.27    1.81
  -5   0  29   12.23    3.31
   5   0 -29   10.49    2.38
  -5   0 -29    8.78    2.63
  -5   0 -29    9.15    2.34
   0   5 -29    9.72    3.04
   5   0 -29   11.54    2.95
  -5   0 -29   12.62    2.75
   0  -5 -29   10.71    2.70
  -5   0  29   11.58    2.75
   0  -5  29   13.19    2.80
  -5   0  30    0.36    2.11
  -5   0 -30    1.36    1.66
  -5   0 -30   -0.75    1.47
   5   0 -30    0.25    1.46
   0   5 -30    0.62    2.09
   5   0 -30    3.46    2.11
  -5   0 -30    1.13    1.77
   0  -5  30   -0.54    1.67
  -5   0  30    2.70    1.73
  -5   0  31    5.34    2.66
  -5   0 -31    3.14    1.67
   5   0 -31    1.96    1.62
   0   5 -31    3.62    2.20
   5   0 -31    3.92    2.39
  -5   0 -31    3.32    1.79
  -5   0  31    7.29    2.53
  -5   0 -31    5.58    2.28
  -5   0 -32   14.74    2.72
   0  -5  32   11.39    2.44
   0   5  32   12.46    2.64
   5   0 -32   15.32    2.85
  -5   0  32   16.53    3.42
   0   5 -32   19.55    3.55
   5   0 -32   16.08    3.10
  -5   0 -32   15.78    2.95
  -5   0  32   14.55    3.07
   5   0 -33   31.50    3.77
  -5   0  33   42.12    5.03
   0   5 -33   40.22    4.71
   5   0 -33   44.42    4.55
  -5   0 -33   39.71    4.40
  -5   0  33   47.31    4.73
   0   5 -34   52.90    5.20
  -5   0  34   54.72    5.55
   5   0 -34   47.44    4.63
  -5   0 -34   44.31    4.43
   5   0  34   48.82    3.80
  -5   0  34   46.14    4.70
   0   5 -35   11.06    2.63
  -5   0  35   13.35    2.92
   5   0  35   11.72    1.82
  -5   0  35   11.62    2.41
  -5   0  36    8.25    2.60
   0   5 -36    7.42    2.15
   5   0 -36    8.58    1.68
  -5   0  36    7.57    1.96
   5   0  36   10.21    1.57
   0   5 -37    5.68    1.92
  -5   0  37    5.52    2.03
  -5   0  37    6.24    1.76
  -5   0  38   29.66    3.48
   0   5 -38   32.34    3.35
   0  -5 -38   20.90    2.53
  -5   0  38   26.74    2.78
   0  -5  38   28.90    3.00
  -5   0  39    3.46    1.51
   0   5 -39    2.49    1.41
   0   5 -39    3.38    1.20
   0  -5 -39    3.76    1.09
   0  -5  39    3.28    1.34
  -5   0  39    2.51    0.98
  -5   0  40    2.70    1.39
   0   5 -40    3.50    1.34
  -5   0 -40    3.04    0.97
   0   5 -40    4.14    1.06
   0  -5  40    4.30    1.18
  -5   0  41    2.07    0.96
   0   5 -41    2.33    1.03
  -1   5 -41   29.47    2.37
  -5   1  41   26.55    2.43
  -1   5 -40  100.38    5.09
  -5   1  40   92.88    5.22
  -1   5 -40   77.84    3.97
  -5  -1 -40   77.24    4.54
  -5   1  39   49.93    3.99
  -1   5 -39   49.83    3.75
  -1   5 -39   39.07    2.80
   5   1 -39   34.53    2.51
  -1   5 -38   31.45    3.28
  -5   1  38   33.49    3.56
   5   1 -38   28.11    2.45
  -1   5 -38   27.33    2.59
   5  -1  38   30.22    2.40
  -1   5 -37   14.04    2.54
  -5   1  37   18.44    2.99
  -5   1  37   15.27    2.13
   5  -1  37   15.27    1.92
  -5   1  36    8.21    2.51
  -5   1  36    9.25    1.91
   5  -1  36    8.37    1.62
  -5   1  35    7.29    2.37
  -5   1  35    4.50    1.75
   5  -1  35    4.39    1.40
   5   1 -34   25.77    3.59
  -5   1  34   30.14    4.09
  -5   1  34   30.77    3.60
   5   1 -33    5.09    2.29
   5   1 -33    3.21    1.66
  -5   1  33    5.11    2.42
  -5   1  33    5.70    1.96
  -5   1  32   55.24    5.77
  -1  -5  32   39.79    4.37
   5   1 -32   53.08    4.83
   5   1 -32   52.55    5.11
  -5  -1 -32   60.42    5.51
  -5   1  32   57.62    5.22
  -1  -5  31    6.87    2.21
   5   1 -31   15.29    2.75
  -5   1  31   10.75    3.08
   5   1 -31   12.86    2.97
  -5  -1 -31   10.99    2.78
  -1  -5  31   12.37    2.65
  -5   1  31   14.41    2.83
  -5  -1 -30   73.55    5.96
   5   1 -30   68.92    5.61
  -5   1  30   84.56    7.19
  -1  -5  30   56.42    5.27
   5   1 -30   70.79    5.94
  -5  -1 -30   79.23    6.57
   1  -5 -30   68.20    5.65
  -1  -5  30   71.06    5.99
  -5   1  30   78.09    6.37
  -5  -1 -29  211.92   11.34
  -5   1  29  255.13   13.44
   5   1 -29  206.02   11.02
  -1  -5  29  190.89   10.86
  -5   1  29  211.63   14.84
   5   1 -29  246.82   11.85
  -5  -1 -29  235.19   12.31
   1  -5 -29  203.24   10.96
  -5   1  29  239.09   12.10
  -1  -5  29  240.19   11.88
  -5  -1 -28   67.15    5.82
  -5   1  28   67.41    7.96
  -5   1  28   74.19    6.94
  -1  -5  28   59.84    5.50
   5   1 -28   71.80    5.97
  -5  -1 -28   83.05    6.82
   1  -5 -28   63.21    5.54
  -5   1  28   77.29    6.42
  -5  -1 -28   74.17    6.41
  -1  -5  28   73.07    5.94
  -5   1  27    8.00    2.91
  -5  -1 -27    6.12    2.18
  -1  -5  27    3.45    1.75
  -5   1  27    4.94    2.59
  -5  -1 -27    5.65    2.29
   5   1 -27    3.70    2.34
  -1   5 -27    7.43    2.71
  -5  -1 -27    7.74    2.43
   1  -5 -27    5.14    1.99
  -5   1  27    5.97    2.20
  -1  -5  27    4.07    1.79
  -1   5 -26   88.17    7.08
  -5   1  26   86.37    9.04
  -5   1  26  111.97    8.32
  -5  -1 -26   82.78    6.52
   5   1 -26   94.21    6.88
  -5  -1 -26   96.14    7.33
   1  -5 -26   87.29    6.48
  -5   1  26   95.90    7.15
  -5  -1 -26   88.83    6.91
  -1  -5  26   93.76    6.78
  -5  -1 -25  278.52   13.26
  -5   1  25  309.24   15.19
  -5   1  25  266.35   16.93
  -1   5 -25  272.49   13.82
   5   1 -25  280.62   13.21
  -5  -1 -25  293.50   14.04
   1  -5 -25  273.34   13.08
  -5  -1 -25  292.19   13.76
  -1  -5  25  288.14   13.28
  -5   1  25  272.43   13.67
  -5   1  24   25.67    4.00
  -5   1  24   28.52    5.23
  -5  -1 -24   28.74    3.59
  -1   5 -24   28.79    3.97
   5   1 -24   25.64    3.63
   1  -5 -24   24.12    3.44
  -5  -1 -24   30.76    4.11
  -5   1  24   27.38    3.76
  -1  -5  24   30.32    3.63
  -1   5 -23  218.38   11.89
  -5   1  23  244.65   13.05
  -5   1  23  222.23   14.85
   5   1 -23  250.11   11.65
   1  -5 -23  213.52   11.03
  -5  -1 -23  239.64   12.13
  -1  -5  23  234.22   11.32
  -5   1  23  238.99   12.02
  -5   1  22   19.36    3.59
  -5   1  22   14.98    3.83
  -1   5 -22   11.06    2.62
   5   1 -22   14.33    2.75
   1  -5 -22   13.67    2.43
  -5  -1 -22   10.71    2.58
  -1  -5  22   14.02    2.55
  -5   1  22   11.23    2.53
  -1  -5  22   13.44    2.41
  -5   1  21    6.65    2.18
  -5   1  21    4.33    2.61
   5   1 -21    4.08    2.04
  -1   5 -21    6.14    2.07
  -5  -1 -21    5.54    2.05
   1  -5 -21    4.68    1.67
  -1  -5  21    6.43    1.86
  -1  -5  21    5.99    1.68
  -5   1  21    6.65    1.94
  -5   1  20  140.15   10.70
  -1   5 -20  139.32    8.32
  -5   1  20  128.82    8.58
   5   1 -20  134.16    7.72
  -5  -1 -20  131.28    8.04
  -1  -5  20  132.89    7.56
  -5  -1 -20  128.08    7.70
  -1  -5  20  122.63    7.26
  -5   1  20  140.08    8.40
  -5   1  19   11.74    2.69
  -5   1  19    9.43    2.96
  -5  -1 -19    8.81    2.07
  -1   5 -19    7.40    2.15
   5   1 -19    9.13    2.35
  -5  -1 -19    7.95    2.08
  -5   1  19   10.91    2.29
  -1  -5  19    6.25    1.70
  -1  -5  19    4.56    1.57
  -5   1  18   10.71    2.46
  -5   1  18    9.11    3.13
  -5  -1 -18   12.74    2.19
  -1   5 -18   10.91    2.31
   5   1 -18   12.07    2.31
  -5  -1 -18    9.88    2.17
  -5   1  18   11.96    2.38
  -1  -5  18    8.80    1.83
  -5   1  17  529.60   21.44
  -5   1  17  563.23   24.35
   5   1 -17  564.75   20.26
  -5  -1 -17  560.82   21.09
  -5  -1 -17  518.39   20.33
  -5  -1 -17  563.66   20.43
  -5   1  17  562.00   20.94
  -5  -1 -17  527.75   19.89
  -1  -5  17  537.61   19.68
  -5   1  16  235.36   11.56
  -5   1  16  217.89   13.24
  -5  -1 -16  236.03   11.51
  -5   1  16  232.83   11.40
   5   1 -16  241.52   10.65
  -5  -1 -16  229.71   10.55
  -5  -1 -16  222.89   10.17
  -5   1  16  219.59   10.84
  -5   1  15  131.11    9.42
  -5  -1 -15  124.39    7.86
  -5   1  15  112.27    7.57
   5   1 -15  138.60    7.25
  -5   1  14   29.31    4.56
  -5   1  14   16.14    2.89
  -5  -1 -14   21.33    3.18
   5   1 -14   24.91    2.91
  -5   1  13   80.66    7.34
  -5   1  13   82.96    6.42
  -5  -1 -13   92.85    6.56
   5   1 -13   93.57    5.65
  -5   1  12  237.19   12.96
  -5   1  12  203.58   11.08
   5   1 -12  234.09   10.07
  -5  -1 -12  216.63   11.19
  -1  -5  11  416.51   15.64
  -5  -1 -11  438.63   17.84
   5   1 -11  412.50   15.93
  -5   1  11  451.55   18.24
  -1  -5  10  498.18   17.74
  -5  -1 -10  530.32   20.37
  -5   1  10  492.77   20.33
  -1  -5   9   41.54    3.11
  -5   1   9   36.70    4.21
  -5  -1  -9   37.15    4.15
  -1  -5   8  156.82    6.79
  -5  -1  -8  133.86    6.14
  -5  -1  -8  165.02    9.10
  -5   1   8  150.93    9.04
  -1  -5   7   50.53    3.34
  -5   1   7   53.34    5.06
  -5  -1  -7   51.66    4.92
  -1  -5   6   53.69    3.39
  -5   1   6   55.32    5.17
  -5   1   6   49.19    3.58
   5   1  -5  225.72    9.64
  -1  -5   5  249.31    9.26
  -5   1   5  235.27   12.03
  -5   1   5  227.02    9.56
  -5  -1  -5  246.22   11.99
  -5  -1  -4  801.03   27.92
  -5   1   4  775.41   24.87
  -5   1   4  812.17   28.35
   5   1  -3  515.52   19.17
   1  -5  -3  591.51   21.69
  -5   1   3  561.46   19.00
  -5   1   3  561.47   21.98
   5   1  -2   17.86    2.32
   1  -5  -2   19.40    3.02
  -5   1   2   23.41    2.44
  -5   1   2   26.27    3.68
   5   1  -1  248.10   11.28
   1  -5  -1  293.70   13.02
  -5  -1  -1  263.97   12.83
  -5   1   1  286.68   10.92
  -5   1   1  290.63   13.61
   1  -5   0   62.87    5.24
  -5  -1   0   57.08    4.58
  -5  -1   0   53.22    5.06
  -5   1   0   58.48    3.89
  -5   1   0   54.47    5.28
  -5  -1   1  293.24   12.63
   5  -1  -1  299.54   13.92
   1  -5   1  302.72   13.37
  -5  -1   1  264.38   13.22
   1  -5   2   19.93    3.04
   5  -1  -2   22.24    3.47
  -5  -1   2   23.31    3.39
   5  -1  -3  568.65   22.22
  -5  -1   3  567.90   21.50
   1  -5   3  580.65   22.09
  -5   1  -3  573.86   19.62
  -5  -1   3  578.46   22.32
  -5  -1   4  765.79   27.29
   5  -1  -4  758.75   27.75
   1  -5   4  808.09   28.11
  -5  -1   4  743.19   27.71
  -5   1  -4  748.41   28.00
  -5   1  -4  754.24   25.02
  -5  -1   5  229.00   11.51
   1  -5   5  261.84   12.32
   5  -1  -5  254.57   12.02
  -5  -1   5  234.79   11.92
  -5   1  -5  234.41   11.97
  -5   1  -5  235.73    9.69
   1  -5   6   54.58    5.13
  -5  -1   6   53.60    4.92
   5  -1  -6   53.29    4.85
  -5   1  -6   63.37    5.50
  -5  -1   6   48.01    4.82
  -5   1  -6   52.51    3.66
  -5  -1   7   51.84    4.97
   5  -1  -7   47.52    4.63
  -5  -1   7   60.98    5.31
  -5   1  -7   50.54    4.92
   5  -1  -8  136.69    8.37
  -5  -1   8  147.01    9.05
  -5   1  -8  151.88    8.91
  -5  -1   8  154.02    8.89
  -5  -1   9   37.84    4.60
  -5   1  -9   45.36    4.55
  -5  -1   9   47.64    4.62
  -5  -1  10  499.74   20.80
  -5   1 -10  530.80   20.13
  -5  -1  11  423.89   19.11
   5  -1 -11  415.30   16.15
  -5  -1  11  472.72   18.44
  -5   1 -11  438.76   18.12
  -5  -1  12  242.19   11.79
   5  -1 -12  234.07   10.29
  -5   1 -12  228.49   11.67
   5  -1 -13   94.22    5.68
  -5   1 -13   85.12    6.38
  -5  -1  13   85.26    6.35
   5  -1 -14   26.64    3.13
  -5  -1  14   24.74    3.34
  -5   1 -14   25.30    3.37
  -5  -1  15  124.90    7.82
  -5   1 -15  129.55    7.87
  -5  -1  16  228.52   11.65
  -5  -1  16  241.77   14.14
  -5   1 -16  244.02   10.93
   1  -5  16  228.21   10.36
  -5   1 -16  250.00   11.68
  -5  -1  16  228.83   11.45
  -5  -1  17  556.41   21.98
  -5  -1  17  594.61   25.39
  -5   1 -17  578.93   21.23
   1  -5  17  537.01   20.07
  -5   1 -17  554.87   20.67
  -1  -5 -17  529.08   20.79
  -5  -1  18   11.92    2.68
  -5  -1  18   16.53    3.77
   1   5 -18   12.52    2.49
  -1  -5 -18   11.88    2.37
   1  -5  18   12.27    2.18
  -5  -1  19    8.78    2.56
  -5   1 -19    6.22    1.69
  -5  -1  19    5.75    2.60
   1   5 -19    9.51    2.31
  -5   1 -19    5.17    1.59
  -1  -5 -19    6.69    2.11
   1  -5  19    7.39    1.85
  -5  -1  20  134.72    8.86
  -5  -1  20  145.42   11.08
   1   5 -20  130.63    8.19
  -1  -5 -20  121.00    7.94
   1  -5  20  131.85    7.41
  -5   1 -20  131.47    7.51
  -5   1 -20  132.36    7.60
  -5  -1  21    4.90    2.25
  -5  -1  21    4.66    2.45
  -5   1 -21    6.94    1.91
   1   5 -21    6.22    2.12
  -1  -5 -21    6.16    2.05
  -5   1 -21    3.08    1.58
   1  -5  21    6.72    1.79
  -5  -1  22   22.64    3.80
  -5  -1  22   12.83    3.70
  -5   1 -22   14.60    2.71
   1   5 -22   13.18    2.70
  -1  -5 -22   11.66    2.57
  -5   1 -22   16.53    2.59
   1  -5  22   13.52    2.45
   1   5 -23  213.33   11.81
  -5  -1  23  237.10   13.11
  -5  -1  23  239.68   15.65
  -5   1 -23  236.45   11.42
  -1  -5 -23  226.63   11.96
   1  -5  23  243.44   11.13
  -5   1 -23  240.57   11.55
  -5  -1  24   23.19    4.98
   1   5 -24   31.28    4.17
   1  -5  24   31.06    3.58
  -1  -5 -24   32.54    4.25
  -5   1 -24   29.88    3.69
  -5   1 -24   30.84    3.85
  -5   1 -25  252.03   12.57
  -5  -1  25  278.62   17.48
   1   5 -25  280.33   13.89
  -1  -5 -25  266.64   13.58
   1  -5  25  288.75   12.69
  -5   1 -25  288.36   13.20
  -5   1 -25  292.53   13.27
   1   5 -26   83.70    7.01
  -5   1 -26   84.91    6.29
  -5   1 -26   89.69    6.57
  -1  -5 -26   94.89    7.17
   1  -5  26   88.26    6.15
  -5   1 -26   90.21    6.66
  -5   1 -27    5.21    2.34
   1   5 -27    5.65    2.72
  -5   1 -27    4.21    1.71
  -5   1 -27    7.09    2.13
  -1  -5 -27    3.98    2.17
  -5   1 -28   72.03    5.75
   1   5 -28   61.44    6.22
  -1  -5 -28   74.34    6.38
  -5   1 -28   67.51    5.64
   1  -5  28   67.23    5.62
  -5   1 -28   60.99    5.60
   5  -1 -29  190.95   11.08
   1   5 -29  225.68   12.10
  -5   1 -29  206.55   10.88
  -5   1 -29  223.10   11.34
  -5   1 -29  231.33   11.59
   1  -5  29  238.12   11.55
   1   5 -30   67.44    6.28
   5  -1 -30   70.04    5.81
  -5   1 -30   70.84    5.60
  -1   5  30   62.63    5.61
  -5   1 -30   69.54    5.73
  -5   1 -30   71.18    5.88
  -5  -1  30   73.27    6.43
  -1   5  31    8.67    2.40
  -5   1 -31   10.29    2.54
   5  -1 -31    9.26    2.47
  -5   1 -31   10.65    2.46
   1   5 -31    6.90    2.73
  -5   1 -31   12.09    2.65
  -5  -1  31    9.30    2.91
   1   5 -32   58.03    5.66
  -5   1 -32   54.00    4.66
  -1   5  32   50.48    4.82
  -5   1 -32   52.35    4.97
  -5  -1  32   56.93    5.37
  -5   1 -32   60.98    5.27
   1   5 -33    0.83    2.11
  -5   1 -33    4.37    1.88
  -5  -1  33    4.68    2.08
   1   5 -34   28.68    3.98
  -5   1 -34   26.45    3.30
  -5  -1  34   29.39    3.83
   1   5 -35    2.18    2.00
  -5   1 -35    4.54    1.78
  -5  -1  35    5.96    1.93
   1   5 -36    6.62    2.16
  -5  -1  36   10.17    2.24
   1   5 -37   16.68    2.74
   1  -5  37   17.85    2.51
  -5  -1  37   17.45    2.61
   1   5 -38   32.60    3.37
  -1  -5 -38   28.24    3.08
  -5  -1  38   33.94    3.23
   1  -5  38   32.24    3.13
   1   5 -39   43.45    3.60
  -5  -1  39   38.22    3.67
  -1  -5 -39   34.74    3.07
   1  -5  39   42.13    3.32
  -5  -1  39   41.97    3.29
  -5  -1  40   89.34    5.13
   1   5 -40  100.02    5.17
   1   5 -40  105.80    4.79
  -5  -1  40   84.85    4.54
   1  -5  40  114.09    5.11
   1   5 -41   30.89    2.44
   1   5 -41   32.97    2.22
   1  -5  41   30.81    2.31
  -2   5 -40   27.57    2.33
  -5   2  40   21.05    2.31
  -5  -2 -40   27.11    2.43
  -5   2  39    8.97    1.88
  -2   5 -39    9.91    1.67
  -5  -2 -39    6.99    1.54
   5   2 -39    6.57    1.23
   5  -2  39    6.97    1.20
  -5   2  38    3.78    1.50
  -2   5 -38    1.06    1.29
  -5  -2 -38    3.66    1.41
   5  -2  38    0.88    0.86
  -2   5 -37   17.67    2.60
  -5   2  37   21.66    3.02
   5  -2  37   21.31    2.25
  -5   2  36   17.57    2.96
  -2   5 -36   16.78    2.72
  -2   5 -36   20.55    2.31
   5  -2  36   19.48    2.35
  -5   2  35   13.18    2.73
  -2   5 -35    8.96    2.20
  -2   5 -35   12.18    2.04
   5  -2  35   14.23    2.15
  -2   5 -34   -0.24    1.58
  -5   2  34   -0.84    1.81
   5   2 -33    1.14    1.74
  -2   5 -33    2.55    1.92
  -5   2  33    4.49    2.15
   5   2 -33    2.63    1.55
  -5   2  33    2.31    1.45
  -2   5 -32   10.78    2.77
   5   2 -32    9.06    2.44
   5   2 -32   11.29    2.37
  -5   2  32   11.35    2.95
  -5   2  32   13.85    2.52
  -2  -5  32   14.80    2.94
   5   2 -31   66.02    5.55
  -2   5 -31   66.56    5.90
  -2  -5  31   49.51    4.84
   5   2 -31   54.94    4.91
  -5   2  31   65.66    6.23
  -2  -5  31   68.43    5.94
  -5   2  31   66.99    5.53
   5   2 -30    0.95    1.49
  -2   5 -30    4.35    2.27
   5   2 -30    4.51    2.21
  -2  -5  30    2.56    1.60
  -5   2  30    7.10    2.59
  -5   2  30    6.54    2.07
  -2  -5  30    7.24    2.39
   5   2 -29   83.14    6.26
  -2   5 -29   78.36    6.67
  -5   2  29   91.74    7.37
  -2  -5  29   64.56    5.74
   5   2 -29   68.82    5.68
  -5   2  29   83.73    6.38
  -2  -5  29   84.76    6.50
  -5   2  28   70.38    6.57
  -2  -5  28   53.45    5.19
  -5   2  28   57.13    7.25
   5   2 -28   63.72    5.37
  -2   5 -28   57.57    5.67
   5   2 -28   61.56    5.43
  -5  -2 -28   72.73    6.58
  -5   2  28   68.55    5.84
  -2  -5  28   70.20    5.86
  -5   2  27   43.96    6.42
  -2   5 -27   52.01    5.34
  -5   2  27   55.20    5.88
  -2  -5  27   42.70    4.65
   5   2 -27   60.52    5.29
  -5  -2 -27   57.54    5.80
  -2  -5  27   54.32    5.15
  -5   2  27   55.65    5.27
  -2  -5  26  116.10    7.84
  -5   2  26  128.86    9.07
  -5   2  26  103.82    9.91
  -2   5 -26  129.36    8.53
   5   2 -26  127.33    8.01
  -5  -2 -26  123.38    8.70
  -5   2  26  121.43    8.10
  -2  -5  26  126.10    8.07
  -5   2  25  118.57    8.50
  -5   2  25  108.77    9.84
  -2  -5  25   94.72    7.22
  -2   5 -25  112.56    7.87
   5   2 -25  107.68    7.32
  -5  -2 -25  128.32    8.67
  -5   2  25  110.86    7.59
  -2   5 -25  103.90    6.23
  -2  -5  25  117.85    7.58
  -2  -5  24   42.24    4.59
  -2   5 -24   54.72    5.30
  -5   2  24   52.34    5.64
  -5   2  24   54.90    6.82
   5   2 -24   53.86    4.93
  -5  -2 -24   53.08    5.50
  -2   5 -24   48.33    4.01
  -2  -5  24   50.57    4.86
  -5   2  24   53.69    5.09
  -5   2  23  337.20   15.85
  -5   2  23  325.68   18.19
  -2   5 -23  313.20   14.80
   5   2 -23  322.93   14.15
  -5  -2 -23  338.01   15.63
  -2   5 -23  295.68   12.85
  -2  -5  23  320.43   14.37
  -5  -2 -23  317.02   14.57
  -5   2  23  351.04   15.18
  -2   5 -22  238.88   12.31
  -5   2  22  239.14   15.18
  -5   2  22  249.93   13.13
   5   2 -22  261.26   11.93
  -5  -2 -22  266.46   13.17
  -5  -2 -22  261.09   12.37
  -5   2  22  265.90   12.57
  -2  -5  22  244.13   11.86
  -2   5 -22  234.49   10.68
  -2   5 -21   81.25    6.21
  -5   2  21   86.72    6.87
  -5   2  21   82.31    8.13
   5   2 -21   73.67    5.59
   2  -5 -21   72.36    5.06
  -5  -2 -21   73.86    6.23
  -5  -2 -21   71.19    5.76
  -5   2  21   82.39    6.14
  -2  -5  21   70.72    5.53
  -2   5 -21   67.49    4.83
  -2   5 -20  443.73   18.58
  -5   2  20  476.13   22.48
  -5   2  20  453.10   19.64
   5   2 -20  493.05   18.25
   2  -5 -20  469.39   17.23
  -5  -2 -20  461.44   19.16
  -2   5 -20  435.66   16.92
  -5  -2 -20  445.63   18.16
  -2  -5  20  452.03   18.05
  -5   2  20  499.95   19.12
  -5   2  19    7.50    2.24
  -5   2  19    1.36    1.94
  -5  -2 -19    5.96    1.85
  -2   5 -19    5.68    1.50
   5   2 -19    5.87    1.94
   2  -5 -19    6.32    1.59
  -2   5 -19    7.87    2.18
  -5  -2 -19    5.39    2.04
  -2  -5  19    5.40    1.68
  -5   2  19    6.93    1.90
  -5   2  18   95.52    7.14
  -5   2  18  114.53    9.23
  -2   5 -18  100.65    6.74
   5   2 -18  107.65    6.57
   2  -5 -18  102.66    5.75
  -5  -2 -18  113.60    7.33
  -2   5 -18   96.36    5.74
  -2  -5  18  101.58    6.42
  -5   2  18  109.65    7.01
  -5  -2 -18  102.39    6.51
  -5   2  17  119.35    9.57
  -2   5 -17  129.11    7.62
  -5   2  17  111.70    7.75
   5   2 -17  128.35    7.16
  -5  -2 -17  128.83    8.10
  -2  -5  17  132.41    7.15
  -5  -2 -17  135.81    8.06
  -5   2  17  139.50    7.94
  -5  -2 -17  125.87    7.21
  -2  -5  17  122.01    6.97
  -2   5 -17  121.77    6.56
  -5   2  16   51.34    6.18
  -5   2  16   61.18    5.16
  -5   2  16   54.26    5.04
  -5  -2 -16   50.79    4.97
   5   2 -16   53.13    4.32
  -5  -2 -16   49.28    4.23
  -2  -5  16   51.17    4.03
  -5  -2 -16   54.71    4.72
  -5  -2 -16   48.75    4.16
  -5   2  16   54.40    4.64
  -2  -5  16   49.88    4.04
  -5   2  15   76.60    7.44
  -5   2  15   77.16    5.91
  -5  -2 -15   85.15    6.62
  -5   2  15   82.21    6.45
   5   2 -15   89.21    5.62
  -2  -5  15   86.08    5.32
  -5  -2 -15   83.68    5.41
  -5   2  14   41.59    4.61
  -5  -2 -14   38.23    4.37
   5   2 -14   46.55    3.91
   5   2 -13  772.04   26.08
  -5  -2 -13  796.45   28.63
  -5   2  13  728.97   28.32
  -5   2  12  207.90   11.47
  -5   2  12  211.61    9.05
   5   2 -12  227.95    9.77
  -5  -2 -12  209.86   11.36
  -5   2  11  557.01   19.24
  -5  -2 -11  539.40   21.90
  -5   2  11  554.33   22.44
   5   2 -11  557.64   19.75
  -5  -2 -10  203.18   10.94
   5   2 -10  194.10    8.99
  -5   2  10  194.87    8.49
  -5   2  10  193.21   10.96
  -5  -2  -9  212.05   11.43
  -5   2   9  222.03    9.28
  -5   2   9  223.68   11.87
  -5   2   8  924.23   33.24
  -5   2   8  895.09   29.62
  -5  -2  -8  956.97   33.01
  -5  -2  -7  276.15   13.21
  -5   2   7  247.92   10.49
  -5   2   7  282.84   13.59
  -5  -2  -6   53.01    5.14
  -5   2   6   41.96    3.40
  -5   2   6   53.27    5.30
  -5  -2  -5  481.78   19.07
  -5   2   5  450.53   15.99
  -5   2   5  479.66   19.45
   2  -5  -5  481.02   19.49
  -5  -2  -4  849.58   29.83
  -5   2   4  846.21   30.25
  -5   2   4  800.69   26.52
   2  -5  -4  861.87   30.43
  -5  -2  -4  758.28   25.97
  -5   2   3   21.30    3.67
  -5   2   3   20.12    2.52
  -5  -2  -3   18.23    2.25
   2  -5  -3   22.71    3.45
  -5   2   2 1186.39   37.78
  -5   2   2 1226.40   41.53
  -5  -2  -2 1144.71   37.97
   2  -5  -2 1282.73   41.68
  -5   2   1   38.72    3.26
  -5  -2  -1   35.34    4.45
  -5   2   1   38.11    4.54
  -5  -2  -1   38.53    3.44
   2  -5  -1   41.18    4.65
  -5  -2   0  152.12    9.08
  -5   2   0  129.76    6.55
  -5   2   0  149.85    9.14
  -5  -2   0  137.10    7.46
   5   2   0  126.00    6.38
   5  -2   0  139.87    9.29
   2  -5   0  131.96    8.76
  -5  -2   1   37.09    4.54
  -5   2  -1   40.19    3.31
   5  -2  -1   34.89    4.53
  -5  -2   1   37.50    3.70
   2  -5   1   39.06    4.56
  -5  -2   2 1171.95   41.44
  -5  -2   2 1186.72   40.04
   5  -2  -2 1233.80   42.52
   2  -5   2 1307.61   42.68
  -5  -2   3   25.20    3.78
  -5  -2   3   21.05    3.12
   2  -5   3   23.70    3.74
   5  -2  -3   26.13    3.80
  -5  -2   4  834.25   30.53
  -5   2  -4  872.52   31.17
  -5   2  -4  828.46   27.50
   2  -5   4  861.44   31.51
   5  -2  -4  822.40   31.00
  -5  -2   4  837.46   29.73
  -5  -2   5  479.10   19.81
  -5   2  -5  483.66   17.12
  -5   2  -5  484.95   20.15
  -5  -2   5  466.97   19.22
   2  -5   5  488.94   20.88
   5  -2  -5  476.02   20.14
  -5   2  -6   54.58    5.29
  -5  -2   6   53.26    5.15
  -5   2  -6   53.97    3.77
  -5  -2   6   48.08    4.88
   5  -2  -6   49.47    5.18
  -5   2  -7  277.43   10.90
  -5  -2   7  271.45   13.22
  -5   2  -7  267.74   13.40
  -5  -2   7  260.48   13.23
   5  -2  -7  266.17   13.57
  -5   2  -8  972.71   34.38
  -5  -2   8  954.86   34.01
  -5   2  -8  954.49   30.96
  -5  -2   8  977.99   34.52
   5  -2  -8  936.33   34.46
  -5   2  -9  231.90    9.58
  -5  -2   9  226.41   11.83
  -5   2  -9  221.83   11.83
  -5  -2   9  232.26   12.44
   5  -2 -10  196.36    9.15
  -5   2 -10  200.99    8.67
  -5  -2  10  184.91   10.64
  -5   2 -10  203.85   11.07
  -5  -2  10  213.22   11.92
   5  -2 -11  580.64   20.34
  -5   2 -11  560.19   22.59
  -5   2 -11  582.23   19.82
  -5  -2  11  529.10   22.14
  -5  -2  11  597.55   24.06
  -5  -2  12  212.38   11.26
  -5   2 -12  207.64    9.00
  -5   2 -12  212.94   11.35
   5  -2 -12  209.01    9.47
  -5  -2  12  220.45   12.73
  -5   2 -13  790.81   28.30
  -5  -2  13  709.60   27.67
   5  -2 -13  763.78   25.82
  -5  -2  13  764.15   30.28
  -5   2 -14   42.17    4.53
  -5  -2  14   40.20    4.40
   5  -2 -14   43.06    3.85
  -5  -2  15   88.83    6.44
  -5   2 -15   82.21    6.40
  -5  -2  15   84.15    6.49
   5  -2 -15   89.48    5.74
  -5   2 -15   95.08    5.96
   2  -5  15   90.67    5.64
  -5  -2  16   55.50    5.13
  -5  -2  16   54.15    5.00
  -5   2 -16   51.97    4.84
   5  -2 -16   53.10    4.36
  -5   2 -16   51.77    4.39
  -5   2 -16   54.08    4.26
   2  -5  16   56.91    4.38
  -5  -2  17  135.36    8.46
   2   5 -17  134.25    7.92
  -5   2 -17  130.96    8.03
   5  -2 -17  135.87    7.49
  -5   2 -17  130.58    7.55
   2  -5  17  128.98    7.22
  -5   2 -17  141.36    7.54
   2   5 -18  105.04    6.97
  -2   5  18  106.98    7.70
  -5  -2  18  104.84    7.59
  -5  -2  18  106.73    9.49
   5  -2 -18  112.42    6.72
   2  -5  18   99.65    6.29
  -5   2 -18   98.62    6.26
   2   5 -19    7.82    2.33
   5  -2 -19    7.09    2.05
  -5  -2  19    6.10    2.14
  -5  -2  19    4.58    2.76
  -5   2 -19    5.67    1.76
   2  -5  19    7.96    1.93
  -5  -2  20  483.15   20.07
   2   5 -20  462.49   18.96
  -5  -2  20  488.25   23.83
   5  -2 -20  456.66   18.14
   2  -5  20  462.25   17.92
  -5   2 -20  464.36   18.12
   2   5 -21   68.62    5.91
  -5  -2  21   75.67    8.36
  -5  -2  21   81.91    6.80
   5  -2 -21   77.99    5.83
   2  -5  21   75.78    5.39
  -5   2 -21   71.50    5.19
  -5   2 -21   76.73    5.63
   2   5 -22  242.17   12.37
  -5  -2  22  265.25   13.58
  -5  -2  22  277.36   16.87
   5  -2 -22  247.50   11.78
   2  -5  22  249.94   11.41
  -5   2 -22  227.31   11.04
  -5   2 -22  247.86   11.68
  -5  -2  23  325.08   15.88
   2   5 -23  324.74   14.94
   5  -2 -23  324.14   14.17
  -5   2 -23  297.48   13.43
   2  -5  23  304.84   13.48
  -5   2 -23  333.45   14.14
  -5  -2  24   49.44    5.68
   2   5 -24   54.44    5.43
  -5   2 -24   42.59    4.32
   5  -2 -24   50.65    4.79
   2  -5  24   45.62    4.32
  -5   2 -24   46.35    4.33
  -5   2 -24   52.91    4.88
   2   5 -25  116.11    8.19
  -5  -2  25  129.83    8.97
  -5   2 -25  121.46    7.54
   5  -2 -25  106.37    7.36
   2  -5  25  113.40    7.02
  -5   2 -25  113.60    7.16
  -5   2 -25  110.33    7.33
  -5  -2  26  135.42    9.27
   2   5 -26  119.08    8.36
  -5   2 -26  117.67    7.50
   5  -2 -26  127.87    8.03
  -5   2 -26  112.01    7.32
   2  -5  26  125.48    7.41
  -5   2 -26  122.98    7.77
   2   5 -27   49.70    5.28
  -5  -2  27   57.20    6.02
  -5   2 -27   48.15    4.67
   5  -2 -27   57.13    5.34
   2  -5  27   51.66    4.57
  -5   2 -27   51.40    4.67
  -5   2 -27   56.43    5.13
  -5   2 -28   70.91    5.62
  -5  -2  28   75.60    6.83
   2   5 -28   72.39    6.42
   5  -2 -28   70.92    5.92
  -5   2 -28   61.80    5.28
   2  -5  28   65.55    5.12
  -5   2 -28   70.68    5.77
   2   5 -29   74.38    6.67
  -5  -2  29   98.77    7.77
  -2   5  29   82.46    6.34
  -5   2 -29   82.03    6.02
   5  -2 -29   76.72    6.32
  -5   2 -29   81.96    6.00
  -5   2 -29   86.36    6.37
  -2   5  30    5.74    2.05
  -5   2 -30    3.85    1.87
  -5  -2  30    4.87    2.21
  -5   2 -30    6.18    1.97
   5  -2 -30    3.82    2.27
   2   5 -30    3.58    2.39
  -5   2 -30    4.35    1.97
   2   5 -31   58.35    5.66
  -5  -2  31   70.97    6.53
  -5   2 -31   58.92    4.95
  -2   5  31   51.64    5.09
   5  -2 -31   65.63    5.50
  -5   2 -31   63.47    5.05
  -5   2 -31   64.49    5.38
  -2   5  32   10.18    2.39
  -5   2 -32   10.55    2.45
  -5  -2  32   12.90    3.01
   5  -2 -32   14.51    2.87
   2   5 -32   10.56    2.88
  -5   2 -32   10.74    2.27
  -5  -2  32   14.01    3.02
  -5   2 -33    0.85    1.50
  -5  -2  33    1.53    1.87
   2   5 -33    2.63    1.94
   5  -2 -33    1.85    1.85
  -5   2 -33    4.94    1.73
  -5  -2  33    5.55    2.10
  -5  -2  34    0.29    1.58
   2   5 -34    2.71    1.95
  -5   2 -34   -0.91    1.37
  -5  -2  34    0.26    1.62
   2   5 -35   10.62    2.38
  -5  -2  35   12.33    2.77
  -5  -2  35   12.94    2.60
   2   5 -36   16.37    2.81
  -5  -2  36   18.48    2.95
   2  -5  36   19.77    2.62
  -5  -2  36   20.01    2.98
   2   5 -37   20.18    2.71
  -5  -2  37   19.72    2.84
  -2  -5 -37   16.80    2.72
   2  -5  37   21.76    2.61
  -5  -2  37   21.07    2.79
  -5  -2  38    1.62    1.26
   2   5 -38    1.58    1.29
  -2  -5 -38    1.88    1.21
   2  -5  38    0.28    1.16
  -5  -2  38    2.67    1.37
  -5  -2  39    6.53    1.58
   2   5 -39    7.25    1.63
  -2  -5 -39    5.97    1.51
  -5  -2  39    7.74    1.61
   2  -5  39   10.68    1.65
  -5  -2  40   17.73    2.21
   2   5 -40   27.19    2.37
  -2  -5 -40   20.11    2.13
  -5  -2  40   23.58    2.29
   2  -5  40   30.54    2.38
   2  -5  41    4.22    0.89
  -5  -3 -40   28.31    2.37
  -3   5 -39   13.12    1.58
  -5   3  39   10.39    1.62
  -5  -3 -39   15.40    2.05
   5  -3  39   14.50    1.57
  -5   3  38    3.38    1.41
  -3   5 -38    5.80    1.35
  -5  -3 -38    4.83    1.56
   5  -3  38    6.56    1.25
  -5   3  37   16.63    2.39
  -3   5 -37   14.86    2.16
  -5  -3 -37   14.14    2.41
   5  -3  37   13.90    1.89
  -5   3  36   13.97    2.45
  -3   5 -36   10.00    1.99
  -5  -3 -36   12.12    2.52
   5  -3  36   12.00    1.97
  -3   5 -35    5.77    1.78
  -5   3  35    5.18    1.99
   5  -3  35    8.02    1.77
  -3   5 -34   16.71    2.68
  -5   3  34   18.36    3.04
  -3  -5  34   20.26    3.02
  -3   5 -33   16.40    2.83
  -5   3  33   21.26    3.41
  -3  -5  33   17.43    2.95
  -5   3  32    9.48    2.46
   5   3 -32    8.87    2.07
  -3   5 -32    9.90    2.46
   5   3 -32    7.57    2.25
  -3   5 -32    9.37    1.85
  -3  -5  32    9.71    2.56
   5   3 -31   10.41    2.39
  -3   5 -31   10.99    2.68
   5   3 -31   10.35    2.17
  -3   5 -31    8.74    1.75
  -5   3  31   13.33    2.87
  -3  -5  31    7.20    2.01
  -3  -5  31    6.82    2.24
   5   3 -30   47.39    4.57
  -3   5 -30   53.03    5.08
  -5   3  30   55.80    5.54
  -3  -5  30   43.06    4.54
   5   3 -30   48.94    4.56
  -3  -5  30   61.91    5.52
  -3   5 -30   52.07    4.08
   5   3 -29   16.46    2.88
  -3   5 -29   21.21    3.43
   5   3 -29   19.23    3.16
  -3   5 -29   17.19    2.49
  -5   3  29   16.20    3.35
  -3  -5  29   21.27    3.29
  -3  -5  29   18.23    3.16
   5   3 -28  207.37   10.65
  -3   5 -28  213.34   11.38
  -3  -5  28  204.59   10.97
  -5   3  28  232.84   12.36
   5   3 -28  197.53   10.51
  -3  -5  28  233.69   11.79
  -3   5 -28  203.41    9.79
   5   3 -27  121.71    7.72
  -3  -5  27  115.98    7.86
   5   3 -27  123.34    7.73
  -5   3  27  107.32    9.89
  -5   3  27  144.43    9.28
  -3   5 -27  118.06    8.13
  -3  -5  27  137.95    8.61
  -3   5 -27  125.43    7.09
  -3   5 -26   11.98    2.95
   5   3 -26   14.73    2.88
  -3  -5  26   13.84    2.79
  -5   3  26    8.67    3.31
  -3   5 -26    9.50    1.91
  -5   3  26    9.00    2.77
  -3  -5  26   16.30    3.09
   5   3 -25  124.91    7.74
  -5   3  25  145.78    9.30
  -3  -5  25  114.18    7.90
  -3   5 -25  118.73    8.12
  -5   3  25  121.76   10.58
  -3  -5  25  134.60    8.42
  -3   5 -25  117.57    6.96
   3  -5 -24   93.48    6.23
   5   3 -24  104.39    6.79
  -5   3  24  105.08    7.78
  -3  -5  24   85.69    6.70
  -5   3  24   84.15    8.68
  -3   5 -24   92.25    6.90
  -3  -5  24   92.97    6.87
  -3   5 -24   88.96    5.87
   5   3 -23   52.28    4.64
   3  -5 -23   45.01    4.09
  -5   3  23   51.15    5.40
  -5   3  23   43.68    6.12
  -3  -5  23   38.07    4.44
  -3   5 -23   41.09    4.63
  -3   5 -23   47.11    4.09
  -5   3  23   43.60    4.44
  -3  -5  23   42.26    4.61
   5   3 -22  359.47   14.87
   3  -5 -22  340.57   14.13
  -3   5 -22  349.39   15.53
  -5   3  22  372.51   16.69
  -5   3  22  359.38   19.13
  -3  -5  22  329.54   15.23
  -3   5 -22  340.64   14.16
  -5   3  22  355.22   15.37
  -3  -5  22  345.35   15.35
   3  -5 -21  151.62    7.93
   5   3 -21  144.33    8.28
  -5   3  21  147.88    9.48
  -5   3  21  134.57   11.11
  -3   5 -21  172.43    9.39
  -3  -5  21  158.60    8.95
  -3   5 -21  158.03    8.10
  -5   3  21  149.61    8.78
   5   3 -20  123.45    7.09
   3  -5 -20  108.75    6.31
  -3   5 -20  104.91    7.14
  -5   3  20  105.97    7.67
  -5   3  20  103.63    9.40
  -3   5 -20  102.40    6.34
  -3  -5  20  104.19    6.98
   5  -3  20  111.78    6.18
  -5   3  20  104.86    7.03
   5   3 -19   53.83    4.51
   3  -5 -19   52.56    4.02
  -3   5 -19   53.42    4.77
  -5   3  19   40.63    4.58
  -5   3  19   48.67    6.16
  -3   5 -19   49.53    4.14
   5  -3  19   51.49    3.97
  -3  -5  19   50.14    4.58
  -5   3  19   46.50    4.47
   5   3 -18   94.54    6.07
   3  -5 -18   94.96    5.60
  -3   5 -18   91.22    6.44
  -5   3  18  101.48    8.95
  -5   3  18   99.99    7.11
  -5   3  18  105.34    6.68
   5  -3  18   97.20    5.85
  -5  -3 -18   94.39    6.50
  -3   5 -18   89.53    5.80
  -3  -5  18   98.81    6.46
   5   3 -17  123.19    7.03
   3  -5 -17  121.80    6.41
  -5  -3 -17  106.02    7.89
  -3   5 -17  130.51    7.60
  -5   3  17  126.74   10.20
  -5   3  17  119.54    7.89
  -3  -5  17  126.28    7.31
  -5   3  17  132.37    7.66
  -3   5 -17  121.35    6.84
   5  -3  17  118.14    6.57
  -5  -3 -17  133.01    7.58
  -5   3  16   16.78    3.27
  -5  -3 -16   24.42    3.68
  -3   5 -16   17.11    2.74
   5   3 -16   16.43    2.49
  -5   3  16   16.93    2.90
  -5   3  16   16.91    2.63
  -3  -5  16   15.56    2.56
  -5  -3 -16   21.55    2.99
  -3   5 -16   17.93    2.39
   5  -3  16   17.24    2.33
   5   3 -15   70.26    4.89
  -5  -3 -15   67.10    6.16
  -5   3  15   69.21    6.18
  -5   3  15   65.43    5.43
   5  -3  15   69.98    4.73
  -3   5 -15   67.53    4.72
  -5  -3 -15   57.43    4.71
  -3  -5  15   63.23    4.74
  -5  -3 -14  331.17   15.89
  -5   3  14  343.72   13.02
  -5   3  14  336.22   15.99
   5   3 -14  351.42   13.56
  -5   3  14  319.84   14.40
  -5  -3 -14  329.61   13.68
  -3   5 -14  322.17   13.37
   5   3 -13   13.91    2.33
  -5  -3 -13   17.91    3.36
  -5   3  13   14.18    3.04
  -5   3  13   11.70    1.91
  -5  -3 -12  518.01   21.34
  -5   3  12  492.21   17.80
  -5   3  12  508.45   21.39
   5   3 -12  493.56   18.05
  -5  -3 -11  539.12   21.99
  -5   3  11  512.09   18.35
  -5   3  11  508.98   21.83
   5   3 -11  520.27   18.60
  -5  -3 -10  238.88   12.64
  -5   3  10  215.92    9.55
  -5   3  10  215.76   12.20
   5   3 -10  226.35    9.77
  -5  -3  -9  589.31   23.81
   5   3  -9  572.54   20.41
  -5   3   9  599.87   20.49
  -5   3   9  574.13   23.83
  -3  -5   8  156.62    9.86
  -5  -3  -8  150.24    9.70
  -5   3   8  168.24   10.30
  -5   3   8  152.47    7.39
  -3  -5   7  120.67    8.37
  -5   3   7  109.98    6.03
  -5   3   7  111.55    8.26
  -5  -3  -7  115.62    8.34
  -3  -5   6  278.79   14.10
  -5   3   6  278.74   14.39
  -5   3   6  281.03   11.44
  -5  -3  -6  297.21   14.54
  -5  -3  -5  322.75   15.68
  -5   3   5  325.55   12.79
  -3  -5   5  325.03   15.58
   3  -5  -5  340.41   16.63
  -5   3   4   65.16    4.37
  -5  -3  -4   59.31    6.14
  -3  -5   4   60.56    5.88
   3  -5  -4   66.21    6.60
  -5   3   3  298.82   12.09
  -3  -5   3  292.82   14.78
   3  -5  -3  337.33   16.03
  -3  -5   2  176.57   10.58
  -5   3   2  172.10    8.09
   3  -5  -2  181.01   11.07
  -5  -3  -1   18.24    3.46
  -5   3   1   14.98    2.13
  -3  -5   1   15.13    3.38
   3  -5  -1   13.26    3.31
   5  -3   1   17.85    3.88
  -5  -3  -1   11.42    1.98
  -5  -3   0   57.98    5.92
  -5   3   0   57.44    4.12
  -3  -5   0   60.32    5.88
   5  -3   0   61.27    6.35
  -5  -3   0   55.67    4.51
   3  -5   0   51.75    5.91
  -3  -5  -1   12.36    2.95
  -5  -3   1   18.56    3.56
  -5   3  -1   15.40    2.23
  -5  -3   1   12.67    2.33
   5  -3  -1   14.32    3.28
   3  -5   1   11.76    2.99
  -5  -3   2  184.35   10.75
   3  -5   2  175.43   11.28
  -5  -3   2  156.17    8.87
   5  -3  -2  169.64   10.95
  -5  -3   3  316.46   15.09
  -5  -3   3  272.90   13.34
   3  -5   3  329.38   16.29
   5  -3  -3  309.46   15.69
  -5   3  -4   62.58    4.36
  -3  -5  -4   62.33    6.23
  -5  -3   4   58.32    5.86
   5  -3  -4   56.69    6.11
  -5  -3   4   63.28    5.51
   3  -5   4   60.16    6.38
  -3  -5  -5  353.01   16.51
  -5   3  -5  337.64   13.02
  -5   3  -5  328.79   15.97
  -5  -3   5  292.84   15.33
   3  -5   5  333.17   17.06
   5  -3  -5  339.49   16.50
  -5  -3   5  329.57   15.26
  -3  -5  -6  296.88   15.11
  -5   3  -6  290.73   11.85
  -5  -3   6  284.17   14.44
  -5   3  -6  299.40   14.85
  -5  -3   6  307.89   14.54
   5  -3  -6  289.01   15.14
  -3  -5  -7  103.65    8.33
  -5   3  -7  119.82    6.34
  -5   3  -7  124.33    8.58
  -5  -3   7  130.43    8.73
   5  -3  -7  111.31    8.60
  -5  -3   7  112.47    8.25
  -5   3  -8  149.27    7.41
  -5   3  -8  151.90    9.76
  -5  -3   8  149.29    9.65
   5  -3  -8  147.19   10.06
  -5  -3   8  165.12   10.20
  -5  -3   9  626.80   24.61
  -5   3  -9  619.01   24.61
  -5   3  -9  591.79   21.06
   5  -3  -9  614.11   21.38
   5  -3  -9  599.92   25.16
  -5  -3   9  625.39   25.14
  -5  -3  10  214.33   11.91
  -5   3 -10  227.90   12.24
  -5   3 -10  225.28    9.64
   5  -3 -10  210.61    9.62
  -5  -3  10  225.19   12.87
  -5  -3  11  547.54   22.24
  -5   3 -11  559.07   19.14
  -5   3 -11  534.42   22.24
   5  -3 -11  511.24   19.05
  -5  -3  11  537.93   23.56
  -5  -3  12  497.68   21.14
  -5   3 -12  514.70   18.20
  -5   3 -12  497.42   21.14
   5  -3 -12  515.19   18.48
  -5  -3  12  518.24   23.00
   3  -5  12  497.74   18.76
  -5  -3  13   12.11    2.84
   5  -3 -13   11.40    2.23
  -5   3 -13   15.67    3.01
  -5   3 -13   13.52    1.98
  -5  -3  13    9.93    3.08
  -5   3 -13   16.47    2.34
   3  -5  13   10.41    2.02
  -5  -3  14  335.48   14.90
  -5  -3  14  365.11   18.38
  -5  -3  14  325.60   15.74
  -5   3 -14  344.39   15.98
  -5   3 -14  353.30   13.26
   5  -3 -14  348.89   13.87
  -5   3 -14  356.90   14.06
   3  -5  14  339.22   13.94
  -5   3 -14  316.34   13.60
  -5  -3  15   63.92    5.54
  -5  -3  15   64.49    7.21
  -5   3 -15   61.34    5.75
  -5   3 -15   74.05    4.61
  -5  -3  15   65.50    5.91
   5  -3 -15   72.43    5.05
  -5   3 -15   68.06    5.00
   3  -5  15   67.05    4.96
  -5   3 -15   70.05    4.94
  -5  -3  16   22.57    4.40
  -5  -3  16   14.61    2.86
   3   5 -16   19.10    2.87
  -5  -3  16   15.66    2.95
   5  -3 -16   21.01    2.93
  -5   3 -16   18.58    3.12
  -5   3 -16   17.50    2.68
   3  -5  16   17.73    2.51
  -5   3 -16   19.52    2.59
   5  -3 -17  131.51    7.31
  -5   3 -17  122.06    8.01
   3   5 -17  124.18    7.63
  -5  -3  17  123.58    8.15
   3  -5  17  135.97    7.40
  -5   3 -17  118.50    7.10
   5  -3 -18   94.99    6.21
  -5  -3  18   92.25    7.11
   3   5 -18   96.33    6.66
  -5   3 -18   98.07    6.25
   3  -5  18   96.53    6.18
   5  -3 -19   51.83    4.54
  -3   5  19   44.55    5.38
   3   5 -19   53.55    4.93
  -5  -3  19   45.10    4.98
   3  -5  19   49.26    4.31
  -5   3 -19   59.29    4.66
   3   5 -20  106.13    7.35
  -3   5  20  105.16    8.40
  -5  -3  20  117.77    8.21
   5  -3 -20  119.49    7.16
   3  -5  20  107.21    6.69
  -5   3 -20  109.27    6.85
   3   5 -21  149.18    9.10
  -5  -3  21  171.00   10.14
   5  -3 -21  165.58    8.80
   3  -5  21  145.60    8.18
  -5   3 -21  158.32    8.69
  -5  -3  22  385.66   17.26
   3   5 -22  355.43   16.09
   5  -3 -22  359.60   15.33
   3  -5  22  376.44   15.17
  -5   3 -22  355.11   15.18
  -5  -3  23   47.96    5.28
   3   5 -23   42.02    4.76
  -5   3 -23   41.25    4.21
   5  -3 -23   45.80    4.56
   3  -5  23   46.01    4.22
  -5   3 -23   47.58    4.47
  -5   3 -24   85.08    6.18
  -5  -3  24   99.89    7.73
   3   5 -24   94.89    7.16
   3   5 -24   99.20    6.27
   5  -3 -24   87.15    6.47
   3  -5  24   94.07    6.23
  -5   3 -24   90.55    6.40
   3   5 -25  128.56    8.50
  -5   3 -25  114.41    7.45
  -5  -3  25  134.15    9.24
   5  -3 -25  121.01    7.77
   3   5 -25  130.19    7.46
   3  -5  25  115.32    7.06
  -5   3 -25  128.92    7.79
  -5   3 -26   11.66    2.61
  -5  -3  26   15.95    3.29
  -5   3 -26   10.35    2.46
   3   5 -26    9.20    2.73
   5  -3 -26   13.32    2.94
  -5   3 -26   12.27    2.26
   3  -5  26   13.04    2.39
  -5  -3  27  128.88    8.93
  -5   3 -27  107.32    7.22
   3   5 -27  113.63    8.12
   5  -3 -27  128.66    7.90
   3  -5  27  123.10    7.15
  -5   3 -27  111.48    6.90
  -5   3 -27  138.44    7.93
   3   5 -28  216.42   11.68
  -5  -3  28  233.55   12.66
  -3   5  28  217.34   11.36
  -5   3 -28  208.88   10.68
   5  -3 -28  232.75   11.27
   3  -5  28  215.82   10.21
  -5   3 -28  214.44   10.26
  -5   3 -28  220.65   10.87
  -3   5  29   16.71    3.03
  -5   3 -29   16.32    2.81
  -5  -3  29   18.91    3.52
   5  -3 -29   19.73    3.20
  -5   3 -29   20.09    2.92
   3   5 -29   24.06    3.72
  -5   3 -29   14.86    2.47
   3   5 -30   61.01    5.57
  -5  -3  30   56.21    5.65
  -5   3 -30   47.62    4.42
  -3   5  30   52.80    5.02
   5  -3 -30   52.05    4.86
  -5   3 -30   43.00    3.99
  -5   3 -30   57.34    4.88
   3   5 -31   11.21    2.76
   5  -3 -31    8.42    2.34
  -5   3 -31   12.45    2.35
  -5  -3  31   11.37    2.75
  -3   5  31    8.59    2.30
   5  -3 -32   12.08    2.55
   3   5 -32    7.61    2.44
  -5   3 -32    7.95    2.00
  -5  -3  32    6.38    2.33
  -5  -3  32    7.13    2.51
   3   5 -33   19.64    3.17
  -5   3 -33   15.27    2.53
  -5  -3  33   23.25    3.40
  -5  -3  33   21.01    3.36
   3   5 -34   19.98    2.91
  -5  -3  34   14.15    2.71
  -5   3 -34   15.64    2.39
  -5  -3  34   13.54    2.83
  -5  -3  35    8.94    2.12
   3   5 -35    6.49    1.91
  -3  -5 -35    7.84    2.29
   3  -5  35    9.41    1.97
  -5  -3  35    8.96    2.33
  -5  -3  36   11.40    2.25
   3   5 -36   16.74    2.51
  -3  -5 -36   12.44    2.47
   3  -5  36   14.81    2.15
  -5  -3  36   12.23    2.47
   3   5 -37   17.61    2.36
  -5  -3  37   15.37    2.27
  -3  -5 -37   11.98    2.35
   3  -5  37   18.87    2.30
  -5  -3  37   16.08    2.55
  -5  -3  38    4.85    1.40
   3   5 -38    8.68    1.60
  -3  -5 -38    7.03    1.71
   3  -5  38    5.79    1.36
  -5  -3  38    4.07    1.47
  -5  -3  39   12.19    1.62
   3   5 -39   16.20    1.77
  -3  -5 -39   17.39    2.14
  -5  -3  39   21.14    2.29
   3  -5  39   15.57    1.79
  -3  -5 -40   26.75    2.31
  -5  -3  40   30.59    2.47
   5  -4  39   41.39    2.52
   5  -4  38    8.03    1.26
  -5   4  37   24.89    2.46
   5  -4  37   46.02    3.05
  -5   4  36   21.73    2.54
  -4  -5  36   27.93    3.10
   5  -4  36   28.99    2.65
  -5   4  35   -0.34    1.19
   5  -4  35    0.15    0.89
  -4  -5  35    0.59    1.38
  -4   5 -34    3.95    1.54
  -5   4  34    4.16    1.60
  -4   5 -33   58.09    4.52
  -5   4  33   61.28    5.11
  -4   5 -33   67.66    4.22
  -4   5 -32   83.07    5.70
  -5   4  32   86.69    6.29
  -4   5 -32   80.15    5.06
   5   4 -31  140.95    7.76
  -4   5 -31  137.01    8.00
  -5   4  31  145.93    8.79
  -4   5 -31  142.81    7.32
   5   4 -30   19.31    2.85
  -4   5 -30   18.51    2.97
   5   4 -30   19.04    2.93
  -5   4  30   25.54    3.65
  -4   5 -30   21.98    2.71
   5   4 -29  116.78    7.17
   5   4 -29  112.37    7.18
  -4  -5  29  110.57    7.42
  -5   4  29  133.78    8.45
  -4   5 -29  113.72    7.38
  -4   5 -29  125.25    6.93
  -4  -5  29  112.60    8.00
   5   4 -28    9.70    2.48
   5   4 -28    6.38    2.21
  -4   5 -28   14.20    2.82
  -4   5 -28    8.75    2.09
  -5   4  28   14.70    2.91
  -4  -5  28   12.77    2.64
  -4  -5  28    9.90    2.68
   5   4 -27  148.61    8.21
  -4  -5  27  136.68    8.57
  -5   4  27  151.31    9.37
  -4   5 -27  136.82    8.45
   5   4 -27  128.62    8.02
  -4   5 -27  138.48    7.71
  -4  -5  27  140.88    8.93
  -4   5 -26   34.82    4.10
  -5   4  26   33.59    4.36
  -4  -5  26   35.45    4.17
   5   4 -26   29.93    3.76
   4  -5 -26   33.39    3.70
   5   4 -26   37.63    3.93
   5  -4  26   30.42    3.05
  -4  -5  26   34.47    4.48
  -4   5 -26   28.37    3.38
   5   4 -25    3.65    1.82
   5   4 -25    8.12    2.18
   4  -5 -25    0.42    1.78
  -4   5 -25    6.82    2.21
  -5   4  25    3.91    2.16
  -4   5 -25    4.28    1.73
  -5   4  25    7.19    2.42
  -4  -5  25    4.21    1.76
  -4  -5  25    3.86    1.85
   5  -4  25    4.59    1.51
  -4  -5  24   90.20    6.93
  -5   4  24  103.59    7.61
  -5   4  24   92.77    8.96
  -4   5 -24   98.05    6.97
   5   4 -24  106.74    6.73
   4  -5 -24   96.99    6.33
   5  -4  24   92.01    5.76
  -4   5 -24   92.33    6.23
  -4  -5  24  102.84    7.41
  -4  -5  23   64.86    5.77
  -5   4  23   72.41    6.27
  -5   4  23   74.49    7.81
  -4   5 -23   66.87    5.60
   5   4 -23   73.41    5.54
   4  -5 -23   59.50    4.91
   5  -4  23   67.85    4.84
  -4   5 -23   69.24    5.26
  -4  -5  23   64.93    5.84
  -5   4  22  582.92   23.04
  -4  -5  22  558.52   22.31
  -5   4  22  558.84   26.08
  -4   5 -22  579.68   22.23
   5   4 -22  585.01   21.39
   4  -5 -22  567.91   20.92
   5  -4  22  551.55   20.58
  -4   5 -22  558.34   21.19
  -4  -5  22  609.10   22.91
  -4   5 -21    1.76    1.65
   4  -5 -21    2.34    1.66
   5   4 -21    2.78    1.90
  -5   4  21    3.45    2.54
  -4   5 -21    2.57    1.43
  -5   4  21    0.60    1.49
  -4  -5  21    1.09    1.32
   5  -4  21    0.77    1.05
  -4  -5  21    0.56    1.64
   4  -5 -20  186.89    8.92
   5   4 -20  184.58    9.22
  -4   5 -20  183.27    9.77
  -5   4  20  181.84   10.37
  -5   4  20  180.31   12.61
  -4  -5  20  185.46   10.19
  -4   5 -20  170.62    9.07
   5  -4  20  176.29    8.87
   5   4 -19  174.21    8.61
   4  -5 -19  158.31    8.09
  -5   4  19  153.62    9.29
  -5   4  19  156.99   11.93
  -4   5 -19  158.78    8.90
   5  -4  19  155.14    8.17
  -4  -5  19  155.77    9.15
  -4   5 -19  153.83    8.34
   5   4 -18  516.74   19.03
   4  -5 -18  500.37   18.52
  -4   5 -18  487.76   19.58
  -5   4  18  520.47   24.43
  -5   4  18  526.90   20.73
  -4  -5  18  506.52   20.17
   5  -4  18  518.49   19.07
  -4   5 -18  505.77   19.20
   5   4 -17  115.13    6.56
   4  -5 -17  107.88    6.13
  -4   5 -17  104.37    7.70
  -4   5 -17  115.01    6.01
  -5   4  17  107.88    7.26
  -4   5 -17  104.09    6.72
  -4   5 -17   98.99    6.38
   5  -4  17  105.66    6.43
  -4  -5  17  109.38    7.11
   5   4 -16   71.12    4.92
   4  -5 -16   69.19    4.64
  -4   5 -16   75.95    4.74
  -5   4  16   62.97    6.30
  -5  -4 -16   65.73    6.50
  -5   4  16   65.88    5.59
  -4   5 -16   63.76    5.09
  -4   5 -16   65.49    4.92
   5  -4  16   67.22    4.97
  -4  -5  16   68.11    5.36
  -4   5 -15    6.25    1.76
  -5  -4 -15    8.65    2.56
  -5   4  15    9.08    2.55
  -4   5 -15    9.08    1.72
   4  -5 -15   11.50    1.91
   5   4 -15   11.63    2.11
   4  -5 -15   10.80    1.94
  -5   4  15    9.81    1.82
  -4   5 -15    6.86    1.88
  -5   4  15   10.37    2.25
   5  -4  15    8.40    1.92
  -4  -5  15    8.62    2.09
  -5   4  14  368.50   15.86
  -4   5 -14  374.41   15.21
   4  -5 -14  375.80   14.13
  -4   5 -14  405.68   14.82
  -5   4  14  366.99   14.51
  -5  -4 -14  366.67   18.09
   5   4 -14  397.33   14.88
  -5   4  14  374.71   18.08
  -5  -4 -14  412.02   17.43
   5  -4  14  369.54   15.17
  -4  -5  14  359.83   15.48
  -4   5 -14  393.83   15.34
  -5   4  13  140.65    8.42
  -5  -4 -13  155.10   10.53
  -5   4  13  164.54    7.91
   5   4 -13  154.37    7.76
  -5   4  13  154.61   10.39
  -5  -4 -13  166.56    9.64
   5  -4  13  165.77    8.34
  -4  -5  13  148.06    8.18
  -4   5 -13  165.00    8.39
  -4  -5  12  137.76    9.63
  -5   4  12  139.46    7.13
  -5  -4 -12  126.71    9.50
  -5   4  12  139.49    9.75
   5   4 -12  129.51    6.93
  -5  -4 -12  129.22    8.38
   5  -4  12  140.60    7.53
  -4   5 -12  143.61    7.63
   5   4 -11   27.11    2.84
  -4  -5  11   30.88    4.69
  -5   4  11   26.99    3.00
  -5  -4 -11   24.84    4.23
  -5   4  11   26.50    4.19
  -5  -4 -11   30.41    3.74
   5  -4  11   29.55    3.25
  -4   5 -11   23.15    2.89
  -5  -4 -10  166.15   10.89
  -5   4  10  168.03    8.21
   5   4 -10  160.25    7.78
  -4  -5  10  171.11   10.91
  -5  -4 -10  172.99    9.55
   5  -4  10  165.48    8.51
  -4   5 -10  171.29    8.71
  -5   4   9  272.38   11.69
  -4  -5   9  289.07   14.99
  -5  -4  -9  284.92   15.17
   5   4  -9  284.98   11.42
  -5  -4  -9  265.65   12.95
  -4   5  -9  297.71   12.40
  -5  -4  -8  186.98   11.72
   5   4  -8  178.60    8.31
  -5   4   8  195.83    8.91
  -4  -5   8  180.16   11.47
  -5   4   7    9.97    1.87
  -5  -4  -7   13.37    3.17
   5   4  -7   10.22    1.80
  -4  -5   7    9.97    2.87
  -5  -4  -6  184.24   11.76
  -4  -5   6  198.07   11.80
  -5   4   6  188.89    8.91
  -5  -4  -5  110.39    8.83
  -5   4   5  119.65    6.56
  -4  -5   5  111.81    8.73
  -5  -4  -4  521.88   22.87
  -5   4   4  542.46   19.29
  -4  -5   4  518.03   22.76
   5  -4   3  334.03   18.05
  -5   4   3  322.09   12.98
  -4  -5   3  303.81   15.93
   5  -4   2  481.20   22.41
  -5   4   2  436.87   16.80
  -4  -5   2  467.11   20.63
   5  -4   1  157.00   11.13
  -5  -4  -1  141.10   10.02
  -5   4   1  143.81    7.40
  -4  -5   1  132.13    9.72
   5  -4   0    0.91    2.21
  -5  -4   0    6.82    2.68
  -4  -5   0    0.75    2.27
  -5   4   0    1.76    1.37
   5  -4  -1  129.87   10.17
  -5  -4   1  145.73    9.99
  -5   4  -1  134.61    7.22
  -4  -5  -1  139.00    9.82
   4  -5   2  455.57   22.08
   5  -4  -2  483.20   22.15
  -5  -4   2  454.59   20.82
   4  -5   3  331.51   17.75
   5  -4  -3  330.93   17.23
  -5  -4   3  305.18   16.00
   5  -4  -4  531.22   23.96
   4  -5   4  553.89   25.04
  -5  -4   4  527.69   23.12
  -5   4  -4  558.92   19.69
  -4  -5  -4  516.80   23.16
   4  -5   5  130.55   10.58
   5  -4  -5  127.19    9.77
  -5  -4   5  123.03    9.24
  -5   4  -5  133.97    7.08
  -4  -5  -5  120.15    9.28
   5  -4  -6  174.61   11.89
  -5  -4   6  190.73   11.80
  -5   4  -6  196.19    9.01
  -4  -5  -6  178.99   11.62
   5  -4  -7   10.65    3.07
  -5  -4   7    6.75    2.44
   5  -4  -7   12.53    2.23
  -5   4  -7   11.86    2.13
  -4  -5  -7    9.40    2.82
   5  -4  -8  194.12   12.50
  -5  -4   8  189.09   11.62
  -4  -5  -8  168.75   11.46
  -5   4  -8  200.81    9.12
   5  -4  -8  184.50    8.56
  -4  -5  -8  188.99    9.95
  -5  -4   9  283.79   15.18
  -4  -5  -9  299.77   15.87
   5  -4  -9  306.38   12.01
  -5   4  -9  304.02   12.34
  -4  -5  -9  280.24   13.29
   4  -5   9  292.88   12.58
  -5   4 -10  183.07   11.33
  -5  -4  10  177.08   11.23
  -5   4 -10  179.37    8.64
  -4  -5 -10  164.25   11.31
   5  -4 -10  191.97    8.55
  -4  -5 -10  172.48    9.77
  -5   4 -10  180.62    8.90
   4  -5  10  180.69    9.00
  -4  -5 -11   29.50    4.69
  -5   4 -11   34.02    3.29
  -5   4 -11   33.75    4.53
  -5  -4  11   28.23    4.31
   5  -4 -11   30.89    3.10
  -4  -5 -11   34.80    4.06
  -5  -4  11   28.66    3.27
   4  -5  11   30.46    3.26
  -5   4 -11   28.82    3.18
  -5   4 -12  146.44    9.73
  -5  -4  12  144.51    9.76
  -5   4 -12  141.49    7.21
   5  -4 -12  130.57    7.02
  -4  -5 -12  130.20    8.37
  -5   4 -12  133.31    7.18
  -5   4 -12  135.11    7.51
   4  -5  12  137.96    7.59
  -5  -4  13  151.82    8.80
   5  -4 -13  162.11    8.09
  -5  -4  13  142.80   10.06
  -5   4 -13  168.85    8.06
  -5   4 -13  168.54   10.52
  -5   4 -13  168.13    8.27
  -4  -5 -13  150.93    9.43
   4  -5  13  165.96    8.54
  -5   4 -13  170.01    8.53
  -5  -4  14  367.41   16.35
   4   5 -14  359.37   15.46
   5  -4 -14  399.01   15.21
  -4   5  14  412.73   15.13
  -5  -4  14  399.78   18.42
  -5   4 -14  391.76   14.92
  -5   4 -14  380.95   18.00
  -4  -5 -14  415.15   17.64
  -5   4 -14  369.04   15.25
   4  -5  14  399.96   15.75
  -5   4 -14  403.26   15.73
  -5   4 -15   11.34    2.22
  -5  -4  15   11.37    2.35
  -5   4 -15    7.19    2.23
  -4   5  15    8.33    1.76
   5  -4 -15   10.83    2.20
  -5   4 -15   11.06    1.89
   4   5 -15    7.84    1.97
  -5  -4  15    8.80    2.61
  -4  -5 -15   10.95    2.78
   4  -5  15   11.01    2.19
   5  -4 -16   68.44    5.01
  -5   4 -16   72.42    4.64
  -5  -4  16   61.55    6.13
  -5   4 -16   74.56    6.39
  -5  -4  16   64.18    5.62
   4   5 -16   65.37    5.29
   4  -5  16   70.51    5.22
  -5   4 -16   65.41    4.99
   5  -4 -17  115.21    6.77
  -5   4 -17  110.71    6.06
  -5   4 -17  112.27    8.01
  -5  -4  17  113.85    7.76
   4   5 -17  110.52    7.11
  -5   4 -17  107.13    6.65
   4  -5  17  117.73    6.99
   5  -4 -18  539.55   19.59
   4   5 -18  495.58   20.03
  -5  -4  18  517.10   21.07
  -5   4 -18  505.03   19.49
   4  -5  18  528.43   19.64
   5  -4 -19  169.64    8.76
   4   5 -19  156.61    9.13
  -5  -4  19  161.43    9.76
  -4   5  19  160.82   11.57
  -5   4 -19  169.80    8.87
   4  -5  19  162.73    8.63
   5  -4 -20  171.57    9.04
  -4   5  20  165.26   11.64
  -5  -4  20  177.77   10.37
   4   5 -20  172.79    9.63
   4  -5  20  177.42    9.08
  -5   4 -20  176.65    9.21
  -5   4 -21    0.88    1.45
   4   5 -21    1.32    1.70
   5  -4 -21    2.68    1.84
  -5   4 -21    2.50    1.76
  -4   5  21    0.44    1.85
  -5  -4  21    0.32    1.67
   4  -5  21    1.72    1.43
  -5   4 -22  563.57   21.41
   4   5 -22  542.02   22.03
  -5  -4  22  601.89   23.45
  -4   5  22  541.09   24.82
   4   5 -22  552.74   20.70
   5  -4 -22  601.59   21.64
   4  -5  22  574.01   21.15
  -5   4 -22  573.97   21.48
  -5   4 -23   69.38    5.43
  -5  -4  23   74.37    6.46
   4   5 -23   68.11    5.92
   5  -4 -23   66.92    5.45
   4   5 -23   67.43    5.09
   4  -5  23   55.97    4.73
  -5   4 -23   67.70    5.41
  -5  -4  24   95.08    7.48
   4   5 -24   89.40    6.84
  -5   4 -24   82.83    6.13
   4   5 -24   84.55    5.94
   5  -4 -24   95.35    6.52
   4  -5  24   93.39    6.08
  -5   4 -24  104.65    6.66
  -5   4 -25    4.61    1.72
   4   5 -25    4.94    2.10
   5  -4 -25    2.36    1.85
   4   5 -25    5.63    1.91
  -5  -4  25    4.55    2.07
  -5   4 -25    4.61    1.98
   4  -5  25    2.64    1.44
   4   5 -26   34.45    4.19
  -5  -4  26   32.75    4.34
  -5   4 -26   31.09    3.66
   5  -4 -26   36.73    4.06
   4   5 -26   33.13    3.63
   4  -5  26   33.03    3.40
  -5   4 -26   36.68    3.90
   4   5 -27  134.12    8.62
  -5  -4  27  148.14    9.32
  -5   4 -27  139.31    8.06
  -4   5  27  127.67    8.33
   5  -4 -27  138.58    8.13
   4  -5  27  142.38    7.50
  -5   4 -27  149.61    8.23
   5  -4 -28    8.30    2.34
   4   5 -28   11.06    2.74
  -5   4 -28    9.50    2.15
  -5   4 -28   12.92    2.50
  -5  -4  28   14.64    2.96
  -4   5  28   10.39    2.51
   4  -5  28   11.58    2.03
  -5  -4  29  120.04    8.03
  -5   4 -29  102.51    6.64
  -4   5  29  106.46    7.29
   4   5 -29  109.13    7.39
   5  -4 -29  110.53    7.08
   4  -5  29  105.48    6.16
  -5   4 -29  120.99    7.08
   4   5 -30   22.12    3.32
   5  -4 -30   21.37    3.16
  -5  -4  30   21.96    3.45
  -4   5  30   21.23    3.13
  -5   4 -30   24.12    3.06
   4   5 -31  135.99    8.13
  -5  -4  31  142.58    8.63
  -4  -5 -31  150.63    9.65
  -5   4 -31  144.61    7.70
  -5  -4  32   76.49    6.14
   4   5 -32   91.26    6.13
  -4  -5 -32   88.01    7.10
  -5   4 -32   91.20    5.65
   4   5 -33   71.34    5.16
  -5  -4  33   56.38    4.94
  -4  -5 -33   70.64    6.06
   4  -5  33   75.10    5.09
  -5   4 -33   64.11    4.60
  -5  -4  34    3.63    1.48
   4   5 -34    4.48    1.58
  -4  -5 -34    3.00    1.82
   4  -5  34    3.93    1.54
  -5   4 -34    4.27    1.40
   4   5 -35    1.94    1.26
  -4  -5 -35    1.57    1.42
   4  -5  35    0.62    1.17
   4   5 -36   30.24    2.71
  -4  -5 -36   31.63    3.43
   4  -5  36   29.45    2.74
  -5  -4  36   31.44    3.32
  -4  -5 -37   40.97    3.65
  -5  -4  37   50.44    3.84
   4  -5  37   47.28    3.21
  -4  -5 -38    7.92    1.62
   4  -5  38    7.37    1.26
  -5  -4  38    9.02    1.67
  -4  -5 -39   37.32    2.85
  -5  -4  39   41.28    2.94
   4  -5  39   46.71    2.70
  -5  -5   0  947.73   36.84
  -5  -5  -1   14.63    3.95
  -5  -5   1   15.90    3.86
   5  -5  -1   19.42    4.96
   5  -5   1   19.90    2.79
  -5  -5   2    3.53    2.44
   5  -5  -2    1.00    2.51
   5  -5   2    1.56    1.42
  -5  -5   3   51.90    6.24
   5  -5  -3   51.22    6.74
   5  -5   3   49.70    4.44
  -5  -5  -4   57.77    6.74
  -5  -5   4   43.75    5.87
   5  -5  -4   52.73    6.65
   5  -5   4   55.14    4.56
  -5  -5  -5   -1.33    2.34
  -5  -5   5    1.75    1.99
   5  -5  -5    0.99    2.40
   5  -5   5   -0.22    1.15
  -5  -5   6   39.48    5.59
  -5  -5  -6   45.19    6.00
   5  -5  -6   51.54    6.42
   5  -5   6   44.26    4.14
  -5   5   7  241.47   10.92
  -5  -5   7  232.38   14.04
  -5  -5  -7  213.33   13.80
   5  -5  -7  246.72   15.31
   5  -5   7  254.96   11.47
  -5  -5  -8  141.21   10.73
  -5   5  -8  152.14    8.02
  -5  -5   8  162.80   11.29
  -5   5   8  147.07    7.96
  -5   5  -8  148.48    8.28
   5  -5   8  152.76    8.28
  -5  -5   9   45.31    5.81
  -5   5   9   50.08    4.24
  -5  -5  -9   38.69    5.65
  -5   5  -9   48.70    4.14
  -5   5  -9   43.32    4.13
  -5  -5   9   43.01    3.97
   5  -5   9   46.44    4.20
   5  -5 -10  107.06    5.93
  -5  -5  10  115.25    9.38
  -5   5 -10  129.73    7.04
  -5  -5 -10  108.97    9.34
  -5   5  10  108.63    6.56
  -5   5 -10  119.73    7.07
   5  -5  10  112.11    6.89
  -5  -5  10  110.83    6.79
   5  -5 -11   63.31    4.35
  -5   5 -11   69.28    4.98
  -5   5  11   69.47    4.96
  -5  -5  11   65.12    6.86
  -5  -5 -11   64.33    7.08
  -5   5 -11   64.07    5.05
  -5  -5  11   58.35    4.86
   5  -5  11   66.69    5.14
   5  -5 -12   72.26    4.83
  -5   5 -12   89.86    5.68
  -5   5  12   78.98    5.49
  -5  -5  12   93.77    8.13
  -5  -5 -12   75.74    7.72
  -5  -5  12   70.95    5.53
   5  -5  12   94.55    6.15
  -5   5 -12   94.04    6.16
  -5  -5  13   77.48    7.45
  -5  -5 -13   70.07    7.43
   5  -5 -13   74.00    4.84
  -5   5  13   71.51    7.19
  -5   5 -13   77.35    5.28
  -5   5  13   80.33    5.37
  -5   5 -13   78.94    7.33
  -5   5 -13   80.70    5.75
   5  -5  13   75.47    5.54
  -5  -5  13   80.82    5.92
  -5  -5  14  285.61   15.70
  -5   5 -14  311.63   15.90
   5  -5 -14  284.33   11.95
  -5   5  14  300.21   16.11
  -5   5 -14  303.70   12.50
  -5   5  14  288.30   12.34
  -5   5 -14  298.19   13.01
   5  -5  14  290.92   12.99
   5  -5 -15  179.20    8.88
  -5   5  15  194.64    9.25
  -5   5  15  197.15   12.39
  -5   5 -15  198.16   11.99
  -5   5 -15  200.50    9.31
  -5   5 -15  207.78   10.02
   5  -5  15  201.16    9.96
  -5   5  16   23.22    4.07
  -5   5 -16   17.03    3.45
   5  -5 -16   23.98    2.85
  -5   5 -16   28.89    2.98
   5  -5  16   29.20    3.38
  -5   5 -16   24.54    3.17
   5  -5 -17    6.81    1.85
  -5   5 -17    5.25    1.49
  -5   5 -17    8.55    2.13
   5  -5  17    7.31    2.07
   5  -5 -18   51.67    4.24
  -5  -5  18   49.43    4.87
  -5   5 -18   53.08    4.66
   5  -5  18   50.57    4.52
   5   5 -19  995.56   31.75
   5  -5 -19  931.85   31.56
  -5  -5  19  900.16   33.03
  -5   5  19  954.43   38.15
  -5   5 -19  905.54   32.02
  -5   5 -19  926.34   32.23
   5  -5  19  968.66   32.17
   5   5 -20  108.79    6.57
   5  -5 -20   98.34    6.36
  -5  -5  20   96.98    7.20
  -5   5 -20  100.71    6.70
  -5   5  20  108.29    9.70
  -5   5 -20  109.42    6.85
   5  -5  20  106.17    6.63
   5  -5 -21    3.63    1.75
   5   5 -21    1.59    1.54
  -5   5 -21    4.06    1.64
  -5   5  21    1.96    2.09
  -5   5 -21    3.66    1.83
  -5  -5  21    2.84    1.71
   5  -5  21    2.95    1.61
  -5   5  22   31.63    5.13
  -5   5 -22   24.40    3.27
  -5  -5  22   29.44    3.85
   5   5 -22   29.96    3.43
   5  -5 -22   23.64    3.21
   5  -5  22   25.84    3.07
  -5   5 -22   28.30    3.50
  -5   5 -23  186.15    9.78
   5   5 -23  170.51    9.68
  -5   5  23  163.22   12.42
  -5  -5  23  181.30   10.37
   5   5 -23  191.60    9.39
   5  -5 -23  187.15    9.40
   5  -5  23  195.16    9.33
  -5  -5 -23  197.64   12.25
  -5   5 -23  196.90    9.85
  -5   5 -24  159.96    8.98
   5   5 -24  163.95    9.30
  -5  -5  24  165.50    9.83
   5   5 -24  161.50    8.65
   5  -5 -24  163.40    8.71
   5  -5  24  187.86    8.83
  -5  -5 -24  200.56   12.08
  -5   5 -24  179.59    9.25
  -5   5 -25   90.99    6.17
   5   5 -25   84.06    6.21
  -5   5  25  100.14    6.98
  -5  -5  25   80.85    6.51
   5  -5 -25   83.66    5.88
  -5  -5 -25   96.65    8.31
   5  -5  25   91.37    5.68
  -5   5 -25   92.60    6.23
  -5  -5  26   18.70    3.10
  -5   5  26   23.34    3.38
  -5   5 -26   21.02    3.03
   5   5 -26   25.63    3.34
   5  -5 -26   23.05    3.00
  -5  -5 -26   24.68    4.41
   5  -5  26   18.01    2.47
  -5   5 -26   27.78    3.36
   5   5 -27  185.93    9.70
  -5   5 -27  178.45    9.34
  -5  -5  27  188.80   10.17
  -5   5  27  191.02   10.25
   5  -5 -27  170.65    9.06
   5  -5  27  189.79    8.73
  -5  -5 -27  212.22   12.20
  -5   5 -27  202.81    9.61
  -5   5 -28    2.18    1.60
  -5   5  28    0.96    1.56
  -5  -5  28   -0.97    1.63
   5   5 -28    1.06    1.50
  -5  -5 -28   -1.40    2.21
   5  -5  28    0.93    1.06
   5   5 -29   89.17    5.99
  -5  -5 -29   91.94    7.67
  -5   5 -29  100.97    6.08
  -5  -5  29   91.63    6.89
  -5   5 -30   17.41    2.47
   5   5 -30   16.34    2.44
  -5  -5 -30   14.37    3.33
  -5  -5  30   14.93    2.98
  -5  -5 -31  225.27   12.00
  -5   5 -31  218.03    9.72
  -5  -5  31  224.34   11.24
  -5  -5 -32  158.40    9.69
  -5  -5  32  189.40    9.67
  -5   5 -32  178.19    8.11
  -5   5 -33    2.33    1.17
  -5  -5 -33    6.51    2.17
  -5  -5  33    4.43    1.81
  -5  -5 -34   11.77    2.45
  -5  -5  34   12.53    2.33
   5  -5  34   12.83    1.90
  -5  -5 -35   53.90    4.44
  -5  -5  35   56.86    4.30
   5  -5  35   56.34    3.74
  -5  -5 -36   11.47    2.06
   5  -5  36   14.62    1.79
  -5  -5  36   16.25    2.12
  -5  -5 -37   11.13    1.82
  -5  -5  37   15.80    1.96
   5  -5  37   14.46    1.57
  -5  -5 -38    0.47    0.71
   5  -5  38    1.58    0.59
  -5  -5  38    1.12    0.76
  -6   0   0  445.64   19.24
   6   0   0  388.98   17.59
  -6   0   1   98.32    7.77
   6   0  -1   91.09    6.85
  -6   0   2  158.67   10.33
   6   0  -2  151.58    8.91
   0  -6   2  144.77    8.14
  -6   0   3  264.38   14.03
   6   0  -3  244.65   12.25
   0  -6   3  277.86   12.16
  -6   0  -4   30.86    4.50
  -6   0   4   26.39    4.13
   0  -6   4   31.01    3.48
   6   0  -4   27.81    3.45
  -6   0  -5   29.37    4.34
  -6   0   5   23.58    3.87
   0  -6   5   25.94    3.21
   6   0  -5   21.20    3.02
  -6   0   6 1078.15   37.67
  -6   0  -6 1035.42   37.25
   0  -6   6 1028.14   34.91
   6   0  -6 1009.33   35.16
  -6   0   7    4.76    2.67
  -6   0  -7    6.68    2.44
  -6   0   7   15.28    3.09
   0  -6   7   12.95    2.30
  -6   0   8  136.42    9.14
  -6   0  -8  121.20    8.62
  -6   0   8  124.25    9.07
   0  -6   8  127.09    7.61
  -6   0   9  736.10   29.04
  -6   0  -9  791.49   29.43
   0  -6   9  778.02   27.52
  -6   0   9  749.86   29.84
  -6   0  10  513.49   21.42
  -6   0 -10  490.74   21.07
  -6   0  10  493.19   21.93
   0  -6  10  500.38   19.71
  -6   0  11    8.25    2.55
   0  -6  11    8.86    2.08
  -6   0  11    9.26    2.28
  -6   0 -11    9.21    2.67
   6   0 -11    9.68    2.37
  -6   0  11    9.60    2.69
  -6   0 -11   10.75    2.04
  -6   0  11    8.38    1.98
   0  -6  12   22.37    3.21
  -6   0  12   20.69    3.15
   6   0 -12   23.11    3.11
  -6   0  12   29.58    4.03
  -6   0 -12   23.61    3.69
   0  -6  12   24.69    2.77
  -6   0 -12   19.72    2.83
  -6   0  12   22.38    3.08
  -6   0  13   60.06    5.42
   0  -6  13   58.13    5.20
  -6   0  13   53.22    5.39
  -6   0 -13   54.86    5.50
   6   0 -13   58.69    4.85
  -6   0 -13   53.12    4.62
   0  -6  13   54.13    4.25
  -6   0  13   59.29    4.95
  -6   0 -13   54.98    4.24
  -6   0  14   26.65    3.61
  -6   0 -14   24.83    3.75
   6   0 -14   32.52    3.63
  -6   0  14   33.56    4.17
   0  -6  14   25.44    2.93
  -6   0 -14   25.54    3.19
  -6   0 -14   26.03    2.95
  -6   0  14   28.19    3.54
  -6   0  15  242.51   12.49
  -6   0  15  240.55   12.74
  -6   0 -15  260.99   13.14
   6   0 -15  260.82   11.63
   0  -6  15  247.19   10.99
  -6   0  15  225.50   11.69
  -6   0 -15  240.79   10.90
   6   0 -16   59.79    5.02
  -6   0 -16   59.33    5.58
  -6   0  16   48.92    5.12
  -6   0  16   58.93    5.61
  -6   0  16   58.97    7.01
  -6   0 -16   56.04    4.50
  -6   0  16   58.36    5.16
  -6   0 -17    1.78    1.36
   6   0 -17   -0.46    1.89
  -6   0  17    4.40    2.64
  -6   0 -17    0.84    1.26
  -6   0  17    0.94    1.57
  -6   0  17    2.16    1.43
  -6   0  18  279.02   14.31
  -6   0  18  289.57   16.90
   6   0 -18  288.25   13.00
  -6   0 -18  274.46   12.58
  -6   0  18  294.86   13.77
  -6   0 -18  288.35   12.71
   0   6 -19   26.45    3.59
  -6   0  19   23.60    4.79
  -6   0  19   22.12    3.74
   6   0 -19   22.60    3.40
   0  -6  19   29.41    3.38
  -6   0 -19   17.91    2.82
  -6   0  19   21.78    3.37
   0  -6  19   19.93    2.77
  -6   0 -19   22.24    3.08
  -6   0  20   97.74    9.65
  -6   0  20  107.51    8.03
   0   6 -20   93.91    7.03
   6   0 -20   97.90    6.83
   0  -6  20  107.93    6.67
  -6   0 -20   93.26    6.50
  -6   0  20   89.77    6.97
  -6   0 -20  106.67    6.85
   0  -6  20   90.11    6.12
  -6   0 -21    3.91    1.87
  -6   0  21    7.79    3.28
  -6   0  21    5.66    2.51
   0   6 -21    4.35    2.06
   6   0 -21    1.76    2.02
  -6   0 -21    4.50    1.72
   0  -6  21    2.50    1.45
  -6   0  21    7.24    2.17
   0  -6  21    6.00    1.93
  -6   0  22    9.12    3.37
  -6   0  22   11.22    3.02
   0   6 -22    9.52    2.58
   6   0 -22    9.20    2.60
  -6   0 -22    3.35    1.68
  -6   0  22    6.45    2.24
   0  -6  22    6.60    1.94
   0  -6  22    6.59    1.93
   0   6 -23  140.16    9.19
  -6   0  23  164.42   10.46
  -6   0  23  147.00   12.25
   6   0 -23  153.92    9.00
  -6   0 -23  128.52    8.37
   0  -6  23  152.79    8.57
  -6   0  23  146.66    9.41
   0  -6  23  147.47    8.49
   0   6 -24   57.00    5.61
  -6   0  24   60.03    6.23
  -6   0  24   47.22    6.86
   6   0 -24   63.01    5.55
   0  -6  24   55.85    4.93
  -6   0 -24   48.96    4.86
  -6   0  24   55.46    5.56
   0  -6  24   52.66    4.81
  -6   0  25   51.06    5.81
  -6   0  25   38.64    6.30
   0   6 -25   48.80    5.32
   6   0 -25   50.36    5.11
  -6   0 -25   44.60    4.70
   0  -6  25   46.32    4.62
  -6   0  25   45.95    5.09
  -6   0  26  311.95   15.73
   0   6 -26  289.78   14.60
  -6   0  26  268.68   17.81
   6   0 -26  300.97   14.00
  -6   0 -26  281.22   13.77
  -6   0  26  320.47   15.05
   0  -6  26  306.89   13.79
   0   6 -27   18.03    3.49
   6   0 -27   13.65    3.29
  -6   0  27   16.01    4.44
  -6   0 -27   12.78    2.90
  -6   0  27   19.05    3.79
   0  -6  27   16.98    2.85
  -6   0  27   12.56    2.97
   6   0 -28  116.72    7.74
  -6   0  28  104.88    8.34
   0   6 -28  105.97    7.92
   0  -6  28  110.97    7.31
  -6   0 -28  117.49    7.89
  -6   0  28  112.44    8.09
   6   0 -29   -0.26    1.98
   0   6 -29    3.60    2.45
  -6   0 -29    2.13    1.93
  -6   0  29    2.52    2.28
   0  -6  29    3.29    1.69
  -6   0  29    1.50    1.94
   6   0 -30   61.78    5.52
  -6   0  30   72.03    6.78
   0   6 -30   67.78    6.11
  -6   0  30   70.20    6.11
   0  -6  30   68.37    5.54
  -6   0 -30   58.68    5.57
   6   0 -31  255.54   12.57
   0   6 -31  269.84   13.43
  -6   0  31  314.27   14.92
   0  -6  31  276.84   12.79
  -6   0  31  282.04   13.51
   0   6 -32   11.11    2.89
   6   0 -32    9.98    2.47
  -6   0  32   10.44    2.91
   0  -6  32   11.18    2.40
  -6   0  32   10.94    2.66
   0   6 -33   78.02    5.92
  -6   0  33   63.18    5.90
   6   0 -33   62.92    5.22
   0  -6 -33   53.51    4.73
  -6   0  33   75.71    5.76
   0  -6  33   72.43    5.29
  -6   0  34    5.21    2.29
   0   6 -34    5.51    2.17
   6   0 -34    6.58    2.04
   0  -6 -34    4.81    1.60
   6   0  34    6.57    1.43
   0  -6  34    6.02    1.79
  -6   0  34    5.05    1.86
  -6   0  35    2.75    1.77
   0   6 -35    1.89    1.69
   6   0 -35    2.85    1.65
   0  -6 -35    0.95    1.14
  -6   0  35    2.14    1.46
   0  -6  35    3.14    1.49
  -6   0  36    3.81    1.83
   0   6 -36    8.80    2.05
   0  -6 -36    4.01    1.18
  -6   0  36    3.02    1.35
   0  -6  36    4.15    1.51
   0   6 -37   23.30    2.79
  -6   0  37   23.31    2.97
  -6   0  37   17.01    2.22
   0  -6  37   20.78    2.44
  -6   0  38   10.80    1.95
   0   6 -38    8.37    1.77
   0   6 -38    7.89    1.30
   0  -6  38    6.41    1.45
  -6   0  38    5.65    1.24
   0   6 -39   -0.11    0.92
  -6   0  39   -0.80    1.11
   0  -6  39   -0.20    0.72
  -6   0  40    1.37    0.82
   0   6 -40    4.48    0.97
  -6   1  39    1.75    1.16
  -6   1  39    0.10    0.73
  -1   6 -39    1.89    1.00
  -6   1  38   12.42    2.07
  -1   6 -38    9.72    1.80
  -6   1  38    5.35    1.49
  -6  -1 -38    8.59    1.43
  -6   1  37   51.35    4.23
  -1   6 -37   51.43    3.97
  -6  -1 -37   47.15    3.60
   6  -1  37   44.80    2.85
  -1  -6  37   56.72    3.94
  -6   1  36    7.93    2.07
  -1   6 -36   11.80    2.25
  -6  -1 -36    8.78    1.85
   6  -1  36    9.42    1.49
  -6   1  36    9.69    1.73
  -1  -6  36   11.12    2.05
  -6   1  35   42.56    4.41
  -1   6 -35   43.83    4.13
  -6   1  35   38.77    3.55
   6  -1  35   37.77    3.07
  -1  -6  35   39.44    3.77
   6   1 -34   17.68    2.86
  -6   1  34   20.38    3.33
  -1  -6  34   14.50    2.53
  -6   1  34   18.61    2.69
   6   1 -33   79.94    5.80
  -6   1  33   79.90    6.50
  -1  -6  33   80.09    5.78
  -6   1  33   79.09    5.76
   6   1 -32    2.51    1.94
  -6   1  32    2.75    2.17
  -1  -6  32    1.40    1.51
  -6   1  32    5.08    1.87
   6   1 -31   40.33    4.30
  -6   1  31   49.80    5.33
  -6   1  31   40.67    4.33
  -1  -6  31   37.70    4.07
   6   1 -30   69.94    5.76
  -6   1  30   76.68    6.81
  -6   1  30   73.47    6.12
  -1  -6  30   74.26    5.83
   6   1 -29   13.52    3.06
  -6   1  29   15.37    3.53
  -1  -6  29   17.25    2.98
  -6   1  29   19.35    3.34
   6   1 -28  108.35    7.37
  -6   1  28  110.66    8.47
  -1  -6  28  100.61    7.02
  -6   1  28  104.46    7.70
   6   1 -27   30.16    4.01
  -6   1  27   32.74    4.57
  -6   1  27   20.10    4.76
  -1  -6  27   26.55    3.58
  -6   1  27   26.24    3.84
   6   1 -26   72.52    5.98
  -6   1  26   85.74    7.46
  -6   1  26   61.49    7.98
  -6   1  26   82.13    6.78
  -1  -6  26   76.04    5.96
   6   1 -25   43.05    4.71
  -6   1  25   50.36    7.00
  -1   6 -25   45.92    5.15
  -6   1  25   45.11    5.54
  -6   1  25   34.47    4.46
  -1  -6  25   43.83    4.52
   6   1 -24  111.19    7.41
  -6   1  24  115.21    8.65
  -1   6 -24   97.75    7.53
  -1  -6  24  103.42    7.05
  -6   1  24  117.94    8.09
  -6  -1 -24  108.77    7.53
   6   1 -23   76.39    6.02
  -1   6 -23   68.94    6.10
  -6   1  23   68.55    6.61
  -6   1  23   71.51    8.35
  -1  -6  23   73.36    5.68
  -6  -1 -23   72.75    5.94
  -6   1  23   70.99    6.25
  -1   6 -22   26.75    4.09
  -6  -1 -22   23.36    3.49
  -6   1  22   27.92    5.46
  -6   1  22   33.32    4.53
   6   1 -22   31.72    3.99
  -1  -6  22   33.42    3.72
  -6   1  22   33.70    4.17
  -1  -6  22   31.85    3.61
   6   1 -21  156.01    9.00
  -6   1  21  147.74    9.96
  -6   1  21  151.51   12.20
  -1   6 -21  155.21    9.39
  -6  -1 -21  168.72    9.23
  -1  -6  21  157.49    8.68
  -6   1  21  158.53    9.63
   6   1 -20   28.44    3.75
  -6   1  20   36.53    4.69
  -6   1  20   37.13    5.70
  -1   6 -20   34.70    4.20
  -6  -1 -20   28.15    3.56
  -6   1  20   30.94    4.03
  -1  -6  20   32.83    3.52
  -1   6 -19   12.56    2.88
   6   1 -19   12.93    2.68
  -6  -1 -19    9.40    2.22
  -6   1  19   10.85    3.46
  -6   1  19   11.84    2.79
  -6   1  19   13.67    2.73
  -1  -6  19   11.64    2.18
  -6   1  18   92.88    7.17
  -6   1  18   88.14    8.83
   6   1 -18   85.80    6.21
  -6  -1 -18   86.45    6.20
  -1  -6  18   88.17    5.84
  -6   1  18   83.92    6.58
  -6  -1 -18   91.77    6.12
  -6   1  17   49.14    5.12
  -6   1  17   47.93    6.30
  -6  -1 -17   49.40    5.08
   6   1 -17   49.19    4.60
  -1  -6  17   39.60    3.89
  -6  -1 -17   38.22    4.06
  -6  -1 -17   41.91    4.03
  -6   1  17   53.76    4.94
  -1  -6  17   52.16    4.19
  -6   1  16  152.48    9.37
  -6   1  16  148.95   11.21
  -6  -1 -16  144.96    9.35
  -6   1  16  130.26    8.90
   6   1 -16  151.44    8.38
  -6  -1 -16  144.93    8.19
  -1  -6  16  146.20    7.84
  -6   1  16  148.63    8.76
  -1  -6  16  139.87    7.52
  -6  -1 -16  147.30    7.91
  -6   1  15  117.38    8.19
  -6   1  15  135.31   10.48
  -6   1  15  130.84    8.79
  -6  -1 -15  135.93    8.99
   6   1 -15  132.14    7.65
  -1  -6  15  133.38    7.24
  -6  -1 -15  130.97    7.59
  -6   1  15  136.93    8.13
  -6  -1 -15  129.80    7.19
  -1  -6  15  121.51    6.81
  -6   1  14  416.65   17.62
  -6   1  14  406.99   20.24
  -6  -1 -14  427.74   18.56
  -6   1  14  399.15   18.25
   6   1 -14  438.25   16.60
  -1  -6  14  414.03   15.78
  -6  -1 -14  392.17   16.09
  -6  -1 -14  387.60   15.60
  -6   1  14  396.60   16.87
  -6   1  13   91.37    6.65
  -6   1  13   96.29    8.48
  -6  -1 -13  102.42    7.75
  -6   1  13   84.95    7.20
   6   1 -13  104.56    6.46
  -6  -1 -13   96.87    6.16
  -1  -6  13   88.51    5.59
  -6  -1 -13   89.54    5.56
  -6   1  13   91.47    6.48
  -6   1  12  298.52   13.97
  -6   1  12  269.99   14.53
  -6  -1 -12  301.78   14.97
   6   1 -12  341.03   13.43
  -6  -1 -12  319.92   13.02
  -1  -6  12  269.69   11.90
  -6   1  12  305.51   13.47
  -6   1  11  391.07   18.13
  -6  -1 -11  364.22   17.47
   6   1 -11  401.04   15.81
  -6   1  11  385.34   16.46
  -6   1  11  397.17   16.09
  -6   1  10  336.17   16.62
  -6  -1 -10  354.00   16.61
  -6   1   9   43.13    5.18
  -6  -1  -9   45.14    5.15
  -6   1   8  279.48   14.65
  -6  -1  -8  282.08   14.36
  -6  -1  -7   98.89    7.61
  -6   1   7   74.60    7.02
  -6  -1  -6  150.20    9.66
  -6   1   6  158.78   10.11
  -6  -1  -6  131.85    7.01
  -6  -1  -5   30.96    4.30
  -6   1   5   25.37    4.21
  -6  -1  -5   29.67    3.02
  -6  -1  -4  105.27    7.98
  -6   1   4  111.74    8.41
  -6  -1  -4   91.32    5.98
  -6  -1  -3  170.05    8.93
   6   1  -3  171.76    8.61
  -6   1   2  306.46   15.26
   6   1  -2  284.20   12.38
  -6  -1  -2  279.52   12.67
  -6   1   1   51.88    5.89
   6   1  -1   36.70    3.77
  -6  -1  -1   41.01    4.09
   6  -1   1   44.76    5.35
   1  -6  -1   43.73    4.64
  -6   1   0  266.88   13.82
  -6  -1   0  251.59   13.32
  -6  -1   0  231.20   11.59
   6  -1   0  242.27   13.35
   6   1   0  226.27   11.33
   1  -6   0  266.77   12.88
  -6  -1   1   42.41    5.21
  -6  -1   1   33.08    4.02
   1  -6   1   39.61    4.46
  -6  -1   2  349.17   16.25
  -6  -1   2  306.76   14.51
   6  -1  -2  335.49   15.86
   1  -6   2  319.86   15.06
  -6  -1   3  193.05   11.32
  -6  -1   3  175.49   10.22
   6  -1  -3  186.96   10.91
   1  -6   3  199.52   10.82
  -6   1  -4  106.96    8.24
  -6  -1   4  109.02    8.22
  -6  -1   4   99.43    7.32
   1  -6   4  105.71    7.54
   6  -1  -4   99.49    7.49
  -6   1  -5   35.00    4.80
  -6  -1   5   35.96    4.68
  -6  -1   5   28.09    3.85
   1  -6   5   35.57    4.25
   6  -1  -5   35.08    4.30
  -6   1  -6  148.64   10.09
  -6  -1   6  154.68   10.02
  -6  -1   6  162.81    9.96
   1  -6   6  170.60    9.95
   6  -1  -6  154.16    9.56
  -6   1  -7   83.56    7.25
  -6  -1   7   83.41    7.07
  -6  -1   7   84.86    7.22
   1  -6   7   91.36    7.03
   6  -1  -7   90.26    6.94
  -6   1  -8  286.51   14.58
  -6  -1   8  265.30   14.03
  -6  -1   8  259.29   14.01
   6  -1  -8  291.21   13.82
   1  -6   8  275.02   13.91
  -6   1  -9   42.16    5.15
  -6  -1   9   43.86    5.17
   1  -6   9   57.61    5.60
  -6  -1   9   38.44    5.09
  -6   1 -10  353.30   16.79
  -6  -1  10  348.41   16.61
  -6  -1  10  331.72   17.01
   1  -6  10  366.71   16.92
   1  -6  11  376.30   17.67
  -6  -1  11  380.72   16.25
  -6  -1  11  393.50   18.69
  -6   1 -11  407.02   18.10
  -6  -1  11  371.07   17.45
  -6   1 -11  382.67   15.33
  -6   1 -11  370.50   15.16
   1  -6  11  366.39   14.72
  -6  -1  12  311.34   14.21
  -6  -1  12  307.82   16.33
  -6   1 -12  323.47   15.42
  -6  -1  12  314.97   15.25
  -6   1 -12  307.26   13.08
  -6   1 -12  308.29   13.14
  -6   1 -12  278.54   12.28
   1  -6  12  304.91   12.67
  -6  -1  13   90.50    6.73
  -6  -1  13   77.06    7.71
  -6   1 -13   95.69    7.43
  -6  -1  13   83.58    7.04
  -6   1 -13   92.14    6.07
  -6   1 -13  101.37    6.32
  -6   1 -13   91.72    5.72
  -6  -1  14  410.20   17.48
  -6  -1  14  447.93   20.73
  -6   1 -14  413.79   18.10
  -6  -1  14  393.21   17.90
  -6   1 -14  391.42   16.06
  -6   1 -14  434.67   16.39
  -1  -6 -14  374.47   16.20
  -6  -1  14  362.98   16.26
  -6   1 -14  376.06   15.32
  -6  -1  15  132.25    8.69
  -6  -1  15  119.41    8.57
  -6   1 -15  141.63    9.12
  -6   1 -15  134.50    7.87
  -6   1 -15  134.66    7.78
  -6   1 -15  131.28    7.38
  -6  -1  15  127.82    8.03
  -6  -1  16  137.43    9.10
  -6   1 -16  154.94    9.42
  -6  -1  16  129.58    8.94
  -6   1 -16  146.90    8.33
   1  -6  16  152.60    8.07
  -6   1 -16  148.17    8.01
  -6  -1  16  152.06    8.87
  -6  -1  17   43.00    4.88
  -6   1 -17   44.47    4.78
   1  -6  17   48.05    4.21
  -6   1 -17   43.16    4.28
  -6   1 -17   43.02    3.99
  -6  -1  17   39.49    4.41
  -6  -1  18   90.51    7.26
  -6   1 -18   93.33    6.55
   1  -6  18   91.65    6.17
  -6  -1  18   91.35    6.86
  -6   1 -18   97.12    6.30
   1   6 -19   12.48    2.76
  -6  -1  19   16.80    4.06
  -6   1 -19   12.32    2.51
  -6  -1  19   14.92    3.12
   1  -6  19   10.92    2.26
  -6  -1  19   12.59    2.72
  -6  -1  20   38.00    4.83
  -6  -1  20   31.83    5.70
   1   6 -20   32.13    4.14
  -6   1 -20   28.76    3.33
   1  -6  20   31.37    3.62
  -6  -1  20   30.95    4.00
  -6  -1  21  162.32   10.47
  -6  -1  21  149.27   12.38
   1   6 -21  155.02    9.48
  -6   1 -21  147.64    8.38
   1  -6  21  166.21    8.87
  -6  -1  21  153.07    9.60
   1   6 -22   30.15    4.17
  -6  -1  22   27.00    5.20
   1  -6  22   34.55    3.78
  -6   1 -22   27.14    3.33
  -6  -1  22   25.10    3.86
   1   6 -23   65.18    6.04
  -6  -1  23   78.34    8.90
   1  -6  23   69.29    5.46
  -6   1 -23   72.32    5.50
  -6  -1  23   73.64    6.47
  -6  -1  24  103.13   10.37
   1   6 -24  104.83    7.75
   1  -6  24  106.30    6.96
  -6   1 -24   86.83    6.41
  -6  -1  24   97.92    7.60
  -6   1 -24  109.28    7.26
  -6  -1  25   47.12    6.96
   1   6 -25   50.46    5.34
   1  -6  25   39.42    4.20
  -6   1 -25   39.99    4.23
  -6  -1  25   44.69    5.17
   1  -6  25   46.14    4.54
  -6   1 -25   48.39    4.77
   1   6 -26   80.46    6.82
  -6   1 -26   69.11    5.68
   1  -6  26   82.68    6.02
  -6  -1  26   75.36    6.71
  -6   1 -26   77.94    6.14
   1  -6  26   78.21    5.96
   1   6 -27   24.84    4.09
  -6   1 -27   27.55    3.54
  -6   1 -27   26.64    3.88
   1  -6  27   28.97    3.63
  -6  -1  27   33.99    4.42
   1   6 -28   96.58    7.59
  -6   1 -28   98.24    6.79
  -6  -1  28  112.85    8.09
   1  -6  28  114.65    7.23
  -6   1 -28  106.96    7.37
   1   6 -29   16.43    3.46
  -6   1 -29   17.22    2.98
  -6  -1  29   12.63    3.05
   1  -6  29   16.95    3.00
   1   6 -30   72.90    6.31
  -6   1 -30   73.96    5.98
   1  -6  30   77.85    5.83
  -6  -1  30   67.02    6.13
   1   6 -31   36.79    4.47
  -6   1 -31   39.64    4.31
  -6  -1  31   30.74    4.23
   1  -6  31   43.94    4.24
   1   6 -32    0.79    2.14
  -1  -6 -32    0.51    1.38
  -6   1 -32    4.93    2.05
   1  -6  32    4.63    1.69
  -6  -1  32    3.22    1.98
   1   6 -33   78.09    6.13
   6  -1 -33   76.37    5.68
  -1  -6 -33   73.79    5.81
   1  -6  33   78.32    5.56
  -6  -1  33   79.61    6.06
   1   6 -34   16.02    2.87
   6  -1 -34   17.25    2.78
  -1  -6 -34   13.70    2.52
   1  -6  34   18.63    2.63
  -6  -1  34   17.24    2.87
   1   6 -35   46.90    4.28
  -1  -6 -35   34.74    3.57
  -6  -1  35   43.42    4.08
   1  -6  35   48.92    3.96
   1   6 -36   12.40    2.26
  -1  -6 -36    8.37    1.83
   1  -6  36    9.49    1.87
  -6  -1  36   11.07    2.15
   1   6 -37   53.94    4.03
  -1  -6 -37   40.30    3.24
  -6  -1  37   49.99    3.90
   1  -6  37   50.97    3.69
  -6  -1  38   13.62    2.14
   1   6 -38   11.70    1.92
  -1  -6 -38    6.65    1.22
   1  -6  38   13.72    1.72
  -6  -1  38    7.89    1.53
  -6  -1  39    2.63    1.13
   1   6 -39    2.59    1.07
   1   6 -39    2.33    0.81
  -6  -1  39    3.08    0.89
   1  -6  39    3.26    0.97
  -6   2  39    5.00    1.10
  -6   2  39    1.62    0.91
  -2  -6  39    4.68    1.09
  -6   2  38    5.28    1.41
  -2   6 -38    4.77    1.24
  -6  -2 -38    2.47    1.00
   6  -2  38    3.38    0.82
  -6   2  37   13.05    2.10
  -2   6 -37    8.17    1.81
  -6  -2 -37   10.24    1.78
   6  -2  37   11.41    1.46
  -6   2  36   25.61    3.15
  -2   6 -36   23.53    2.79
  -6  -2 -36   24.34    2.87
   6  -2  36   27.20    2.38
  -6   2  35    5.00    1.87
  -2   6 -35    6.31    1.84
  -6  -2 -35    6.53    1.85
   6  -2  35    6.36    1.46
  -2  -6  35    6.42    1.70
  -6   2  34    9.44    2.38
  -2   6 -34    6.86    1.94
   6   2 -34    6.66    1.99
  -6  -2 -34    6.50    1.99
  -2  -6  34    7.48    1.90
   6   2 -33   30.83    3.53
  -6   2  33   44.69    4.64
  -2   6 -33   41.80    4.20
  -2  -6  33   40.80    4.03
  -6   2  33   39.40    3.65
  -2   6 -32   18.87    3.16
   6   2 -32   19.05    2.93
  -6   2  32   22.49    3.50
  -6   2  32   16.80    2.68
  -2  -6  32   20.61    3.01
  -2   6 -31   -0.76    1.72
   6   2 -31    1.57    1.78
  -6   2  31    2.12    1.82
  -6   2  31    0.68    1.19
  -2  -6  31    0.98    1.58
  -2   6 -30   11.49    2.77
   6   2 -30    5.16    2.03
  -6   2  30    7.94    2.68
  -2  -6  30   10.13    2.46
  -6   2  30   10.07    2.33
   6   2 -29   72.48    5.85
  -2   6 -29   67.89    6.15
  -6   2  29   78.87    6.83
  -2  -6  29   82.88    6.19
  -6   2  29   81.65    6.20
   6   2 -28   98.83    6.84
  -6   2  28  104.28    7.99
  -2   6 -28   89.67    7.08
  -6   2  28  107.38    7.38
  -2  -6  28  100.73    7.11
   6   2 -27  119.55    7.78
  -6   2  27  122.31    8.88
  -2   6 -27  124.22    8.46
  -6   2  27  135.53    8.52
  -2  -6  27  123.42    7.96
   6   2 -26   35.03    4.11
  -6   2  26   29.80    4.29
  -6   2  26   33.10    5.59
  -2   6 -26   31.39    4.22
  -2  -6  26   16.11    3.04
  -6   2  26   31.21    4.09
   6   2 -25   31.42    3.99
  -6   2  25   20.31    4.59
  -2   6 -25   30.32    4.24
  -6   2  25   29.94    4.47
  -6   2  25   33.48    4.20
  -2  -6  25   27.18    3.60
   6   2 -24   55.12    5.15
  -2   6 -24   51.76    5.45
  -6   2  24   50.63    5.65
  -6   2  24   50.14    7.01
  -6   2  24   57.30    5.49
  -6  -2 -24   56.21    5.37
  -2  -6  24   52.56    4.97
  -2   6 -23   23.45    3.67
   6   2 -23   26.48    3.61
  -6  -2 -23   23.57    3.62
  -6   2  23   26.23    5.02
  -6   2  23   23.04    3.84
  -6   2  23   23.88    3.67
  -2  -6  23   22.92    3.29
   6   2 -22  236.58   11.50
  -2   6 -22  226.25   11.93
  -6   2  22  223.30   12.75
  -6   2  22  204.61   14.75
  -2  -6  22  241.11   11.63
  -6  -2 -22  233.03   11.75
  -6   2  22  238.61   12.21
   6   2 -21   33.61    3.97
  -6   2  21   32.39    4.51
  -2   6 -21   35.04    4.34
  -6   2  21   23.87    4.92
  -6   2  21   39.29    4.47
  -2  -6  21   35.70    3.92
  -2   6 -21   34.90    3.30
  -6  -2 -21   25.04    3.69
   6   2 -20  101.37    6.74
  -6   2  20   92.47    9.30
  -2   6 -20   93.13    6.87
  -6   2  20   88.42    7.41
  -6   2  20   92.68    6.99
  -6  -2 -20   94.86    6.65
  -2   6 -20   88.23    5.59
  -2  -6  20   92.73    6.41
   6   2 -19  354.35   14.85
  -6   2  19  350.37   16.46
  -6   2  19  342.07   19.21
  -2   6 -19  364.59   15.65
  -6   2  19  348.35   15.69
  -6  -2 -19  341.11   14.82
  -2   6 -19  324.88   13.50
  -2  -6  19  342.21   14.64
   6   2 -18  147.91    8.32
  -6   2  18  155.23    9.57
  -6   2  18  137.44   11.16
  -2   6 -18  153.19    8.84
  -6   2  18  146.45    8.92
  -6  -2 -18  143.35    8.24
  -2  -6  18  137.86    7.89
  -2   6 -18  131.20    7.20
  -6   2  17  146.68   11.33
  -6   2  17  130.08    8.68
   6   2 -17  153.65    8.31
  -6  -2 -17  124.78    9.01
  -6  -2 -17  147.11    8.16
  -2  -6  17  127.41    7.54
  -2  -6  17  138.32    7.66
  -6   2  17  151.41    8.79
  -6  -2 -17  136.13    7.84
  -2   6 -17  130.44    7.05
  -6   2  16   27.41    3.83
  -6   2  16   33.78    5.35
  -6   2  16   30.30    4.19
  -6  -2 -16   23.50    3.80
   6   2 -16   32.20    3.76
  -6  -2 -16   30.18    3.48
  -2  -6  16   22.48    2.89
  -6   2  16   29.80    3.69
  -2   6 -16   25.38    2.81
  -6  -2 -16   29.85    3.31
  -2  -6  16   26.71    3.04
  -6  -2 -15   17.62    2.55
  -6   2  15   26.11    4.70
  -6   2  15   20.57    3.31
   2  -6 -15   18.39    2.28
   6   2 -15   17.76    2.82
  -6  -2 -15   22.56    3.71
  -6   2  15   25.69    3.93
  -2  -6  15   16.36    2.53
  -6  -2 -15   21.09    2.83
  -2   6 -15   17.97    2.36
  -6   2  15   18.27    2.95
  -2  -6  15   17.98    2.47
  -6   2  14   99.63    7.13
  -6   2  14   97.61    8.94
  -6   2  14  102.58    8.12
   2  -6 -14   83.98    5.22
   6   2 -14  102.91    6.44
  -6  -2 -14   99.21    7.87
  -2  -6  14   87.24    5.59
  -6  -2 -14   90.86    6.04
  -6   2  14   91.84    6.57
  -6  -2 -14   82.12    5.61
  -2   6 -14   94.02    5.66
  -2  -6  14   88.57    5.57
  -6   2  13  198.94   10.49
  -6   2  13  202.01   11.90
   2  -6 -13  188.28    8.66
  -6  -2 -13  201.31   11.74
   6   2 -13  198.03    9.56
  -2  -6  13  175.01    8.72
  -6  -2 -13  191.00    9.38
  -6   2  13  191.19   10.01
  -2   6 -13  190.11    9.00
  -6  -2 -13  179.20    8.89
  -6   2  12  108.82    7.50
  -6   2  12  117.95    8.80
   6   2 -12  116.87    7.01
  -6  -2 -12  122.37    8.80
  -6  -2 -12  113.29    7.17
  -2  -6  12  114.58    6.37
  -6  -2 -12  118.11    7.42
  -6  -2 -12  117.50    6.84
  -6   2  12  123.06    7.49
  -2   6 -12  125.85    6.75
  -6   2  11   23.62    3.31
  -6   2  11   20.53    3.65
  -6  -2 -11   20.87    3.79
   6   2 -11   21.14    2.95
  -6  -2 -11   18.64    2.63
  -2  -6  11   18.72    2.33
  -6  -2 -11   15.67    2.60
  -6   2  11   23.96    3.17
  -6   2  10  156.48    8.99
  -6  -2 -10  161.25    8.63
   6   2 -10  162.23    8.43
  -6   2  10  163.72   10.73
  -6  -2 -10  158.15   10.35
  -6   2   9 1022.20   37.91
  -6  -2  -9 1038.43   37.72
  -6   2   8  204.43   12.45
  -6  -2  -8  209.29   12.31
  -6   2   8  214.29    9.65
  -6  -2  -7  134.05    9.51
  -6   2   7  132.93    7.10
  -6   2   7  143.05    9.94
  -6  -2  -6  475.77   21.06
  -6   2   6  487.24   17.91
  -6   2   6  482.48   21.57
  -6  -2  -5  190.26   11.35
  -6   2   5  169.25    8.52
  -6   2   5  190.39   11.74
  -6   2   4   26.57    4.55
  -6  -2  -4   34.69    4.83
  -6   2   4   32.75    3.31
  -6  -2  -4   25.97    2.78
  -6   2   3  365.07   14.05
  -6   2   3  373.67   17.67
   2  -6  -3  389.17   17.49
  -6   2   2    3.20    1.50
  -6   2   2    0.76    2.01
   2  -6  -2    2.88    2.24
  -6  -2  -2    3.84    1.39
  -6   2   1   97.79    5.97
  -6   2   1  102.35    8.35
  -6  -2  -1   93.96    6.27
   6  -2   1   97.42    8.46
   2  -6  -1  114.04    8.43
  -6  -2   0  585.17   23.74
  -6   2   0  578.42   24.07
  -6   2   0  553.81   20.06
  -6  -2   0  511.28   20.76
   6  -2   0  554.75   24.33
   2  -6   0  583.95   23.77
  -6   2  -1   96.66    5.96
  -6  -2   1  102.74    8.12
   2  -6   1   99.63    7.95
  -6  -2   1   98.67    6.83
   6  -2  -1  112.07    8.72
  -6  -2   2    2.51    2.03
   2  -6   2    0.73    1.78
  -6  -2   2    2.15    1.42
   6  -2  -2    7.42    2.61
  -6  -2   3  377.77   17.73
  -6  -2   3  344.80   16.10
   6  -2  -3  381.50   18.14
   2  -6   3  399.81   18.31
  -6  -2   4   30.47    4.50
  -6   2  -4   31.66    3.31
  -6   2  -4   41.09    5.38
  -6  -2   4   36.32    4.36
   2  -6   4   34.00    4.71
   6  -2  -4   37.60    5.03
  -6  -2   5  161.71   10.63
  -6   2  -5  177.26    8.66
  -6   2  -5  166.20   11.00
  -6  -2   5  183.66   10.64
   2  -6   5  185.41   11.45
   6  -2  -5  188.50   11.41
  -6  -2   6  500.22   21.84
  -6   2  -6  522.33   18.77
  -6   2  -6  482.18   21.98
  -6  -2   6  495.04   21.32
   6  -2  -6  502.86   21.99
   2  -6   6  526.84   22.65
  -6   2  -7  143.90   10.07
  -6  -2   7  141.67    9.74
  -6   2  -7  150.56    7.71
  -6  -2   7  136.76    9.43
   2  -6   7  138.76   10.01
   6  -2  -7  153.58   10.11
  -6   2  -8  213.16   12.50
  -6   2  -8  196.20    9.40
  -6  -2   8  200.71   11.97
  -6  -2   8  185.29   11.88
   2  -6   8  224.42   13.02
   6  -2  -8  213.98   12.38
  -6   2  -9 1035.67   38.18
  -6  -2   9 1042.21   38.01
  -6  -2   9 1059.34   38.61
   2  -6   9 1080.62   39.44
   2  -6   9 1028.39   34.44
  -6  -2  10  149.35    8.92
  -6  -2  10  167.27   11.06
   2  -6  10  196.91   12.05
  -6   2 -10  164.93   10.64
   6  -2 -10  170.65    8.82
  -6  -2  10  163.06   10.53
  -6   2 -10  163.91    8.50
  -6  -2  10  167.80    8.86
  -6   2 -10  156.12    8.05
  -6  -2  11   19.39    3.08
  -6  -2  11   20.87    3.92
   6  -2 -11   17.64    2.94
  -6  -2  11   18.44    3.42
  -6   2 -11   21.66    3.72
  -6   2 -11   20.23    2.79
  -6   2 -11   22.98    2.89
  -2  -6 -11   16.75    2.75
  -6  -2  11   20.31    2.94
  -6   2 -11   21.74    2.68
  -2  -6 -11   20.04    2.93
  -6  -2  12  106.80    7.49
  -6  -2  12  123.78    9.65
  -6  -2  12  106.39    8.31
  -6   2 -12  119.61    8.77
   6  -2 -12  122.24    7.12
  -6   2 -12  124.31    7.18
  -6   2 -12  125.24    7.14
  -2  -6 -12  111.37    7.46
  -6  -2  12  117.24    7.39
  -2  -6 -12  117.83    7.37
  -6   2 -12  118.59    6.74
  -6  -2  13  184.92   10.45
  -6  -2  13  193.73   12.87
   6  -2 -13  203.04    9.75
  -6   2 -13  206.37   11.84
  -6  -2  13  198.78   11.58
  -6   2 -13  198.72    9.77
  -2  -6 -13  186.05   10.12
  -6   2 -13  202.52    9.80
  -6  -2  13  182.63    9.99
  -6   2 -13  179.06    9.04
   2  -6  13  196.09    9.49
  -2  -6 -13  187.51    9.93
  -6  -2  14   82.77    6.79
  -6  -2  14   90.49    8.73
  -6   2 -14   97.01    7.63
   6  -2 -14   99.11    6.38
  -6  -2  14  110.45    8.07
  -2  -6 -14   83.37    5.10
  -2  -6 -14  104.90    7.14
  -6   2 -14   96.67    6.32
  -6   2 -14   92.74    6.21
  -6   2 -14   93.04    5.92
   2  -6  14   90.21    6.01
  -6  -2  14   95.89    6.70
  -2  -6 -14   94.57    6.58
  -6  -2  15   17.82    3.19
  -6  -2  15   15.75    3.89
  -6  -2  15   19.77    3.43
   6  -2 -15   20.81    2.94
  -6   2 -15   21.47    3.72
  -6   2 -15   15.94    2.69
  -2  -6 -15   19.39    3.20
   2  -6  15   18.79    2.70
  -6   2 -15   20.71    2.77
  -6  -2  15   22.28    3.28
  -6  -2  16   30.23    4.04
  -6  -2  16   31.75    5.36
  -6  -2  16   31.06    4.14
  -6   2 -16   24.22    3.77
   6  -2 -16   30.33    3.60
  -6   2 -16   28.08    3.44
  -6   2 -16   26.92    3.17
   2  -6  16   30.38    3.35
  -6  -2  17  136.97    9.08
  -6  -2  17  133.85   11.17
   6  -2 -17  142.73    8.11
  -6   2 -17  140.13    9.07
  -6   2 -17  132.21    8.03
   2  -6  17  147.53    8.04
   2   6 -18  142.99    8.76
  -6  -2  18  135.72    9.26
   2  -6  18  148.82    8.20
   6  -2 -18  150.21    8.45
  -6  -2  19  351.73   16.81
   2   6 -19  353.75   15.85
   2  -6  19  367.96   15.07
   6  -2 -19  347.41   15.12
   2   6 -20  105.89    7.42
  -6  -2  20  101.78    7.90
   6  -2 -20   95.38    6.74
   2  -6  20   96.84    6.55
  -6  -2  21   40.23    5.00
   2   6 -21   38.77    4.58
   6  -2 -21   35.29    4.15
   2  -6  21   35.64    3.78
  -6  -2  21   37.15    4.55
  -6   2 -21   29.89    3.77
   2   6 -22  222.35   12.17
  -6  -2  22  247.70   13.49
  -6  -2  22  231.99   16.38
   6  -2 -22  238.92   11.76
   2  -6  22  238.19   11.50
  -6  -2  22  248.91   12.97
  -6   2 -22  251.72   11.91
  -6  -2  23   22.74    3.95
   2   6 -23   16.60    3.31
   6  -2 -23   25.04    3.57
   2  -6  23   25.55    3.25
  -6  -2  23   31.40    4.33
  -6   2 -23   24.32    3.48
  -2  -6 -23   18.45    3.12
  -6  -2  24   61.13    6.19
   2   6 -24   49.36    5.30
   6  -2 -24   57.11    5.24
   2  -6  24   55.99    4.86
  -6  -2  24   54.39    5.54
  -6   2 -24   57.61    5.16
  -2  -6 -24   50.48    4.79
  -6  -2  25   27.59    4.34
   2   6 -25   23.28    3.87
   6  -2 -25   26.90    3.79
   2  -6  25   30.76    3.70
  -2  -6 -25   27.56    3.43
  -6  -2  25   33.39    4.51
  -6   2 -25   24.41    3.57
  -6   2 -26   23.32    3.36
  -6  -2  26   32.12    4.64
   6  -2 -26   32.61    4.07
   2   6 -26   24.73    3.98
   2  -6  26   22.88    3.24
  -6  -2  26   25.34    4.18
  -6  -2  27  129.08    9.07
   2   6 -27  117.53    8.30
   6  -2 -27  121.74    7.79
  -6   2 -27  107.55    6.76
   2  -6  27  113.54    7.16
  -6  -2  27  120.14    8.53
  -6   2 -27  121.99    7.72
   2   6 -28   93.41    7.28
  -6  -2  28   96.62    7.70
   6  -2 -28   95.44    6.79
  -6   2 -28   83.17    5.85
   2  -6  28  101.83    6.46
  -6  -2  28  102.19    7.66
  -6   2 -28  100.32    6.86
   2  -6  28   95.64    6.62
   6  -2 -29   62.00    5.56
  -6  -2  29   77.56    6.83
   2   6 -29   70.10    6.18
  -6  -2  29   76.99    6.55
   2  -6  29   74.33    5.65
  -6   2 -29   80.16    5.99
   2   6 -30    7.18    2.55
   6  -2 -30    5.44    2.14
  -6   2 -30    5.97    2.13
  -6  -2  30    8.48    2.78
  -6  -2  30    7.78    2.38
   2  -6  30    7.53    2.01
  -6   2 -31    1.54    1.62
  -6  -2  31    0.62    1.63
   2   6 -31   -1.05    2.06
   6  -2 -31    1.59    1.71
  -2  -6 -31    0.85    1.64
  -6  -2  31    0.29    1.81
   2  -6  31   -0.44    1.39
  -6  -2  32   20.95    3.43
   2   6 -32   22.51    3.35
   6  -2 -32   18.58    2.99
  -2  -6 -32   17.24    3.25
  -6  -2  32   23.69    3.49
  -6   2 -32   23.21    3.07
   2  -6  32   21.35    2.94
  -6  -2  33   44.52    4.65
   2   6 -33   40.80    4.37
   6  -2 -33   33.91    3.77
  -2  -6 -33   40.98    4.42
  -6  -2  33   49.10    4.69
   2  -6  33   42.32    3.91
  -6   2 -33   44.56    4.05
  -6  -2  34    6.40    2.14
   2   6 -34    7.12    2.15
   6  -2 -34    6.17    1.89
  -2  -6 -34    5.74    1.97
   2  -6  34    6.81    1.78
  -6  -2  34    5.98    2.06
  -6  -2  35    8.60    2.20
   2   6 -35    7.13    1.90
  -2  -6 -35    2.54    1.45
  -6  -2  35    6.83    1.93
   2  -6  35    5.69    1.60
  -6  -2  36   23.71    2.99
   2   6 -36   27.87    2.98
  -2  -6 -36   26.58    2.95
  -6  -2  36   26.42    3.03
   2  -6  36   26.61    2.71
  -6  -2  37   11.77    2.13
   2   6 -37   12.24    1.97
  -2  -6 -37   13.04    1.94
  -6  -2  37   14.45    2.19
   2  -6  37   16.13    1.99
  -6  -2  38    2.49    1.15
   2   6 -38    5.17    1.36
  -2  -6 -38    4.06    1.13
  -6  -2  38    5.41    1.35
   2  -6  38    4.34    1.14
   2   6 -39    5.37    1.11
  -6  -2  39    6.38    1.20
  -6  -3 -38    0.88    0.70
   6  -3  38    0.91    0.57
  -3  -6  38   -0.10    0.73
  -6   3  37   19.23    2.24
  -3   6 -37   21.54    2.06
  -6  -3 -37   18.47    2.27
  -3  -6  37   22.49    2.33
   6  -3  37   19.81    1.89
  -6   3  36  101.20    5.80
  -3   6 -36   93.64    5.23
  -6  -3 -36  105.78    5.97
   6  -3  36  107.83    5.22
  -3  -6  36   99.92    5.78
  -6   3  35    0.91    1.32
  -3   6 -35    1.60    1.25
  -6  -3 -35    2.47    1.45
   6  -3  35    0.66    1.01
  -3   6 -34   27.26    2.96
  -6   3  34   24.64    3.20
  -6  -3 -34   23.71    3.20
  -6   3  33    6.92    2.09
  -6  -3 -33    8.26    2.34
  -3   6 -33   10.17    2.12
  -6   3  32    2.02    1.79
  -3   6 -32   -0.41    1.55
   6   3 -32    2.45    1.48
  -6  -3 -32   -0.53    1.81
  -6   3  31  100.75    7.04
  -3   6 -31   88.70    6.24
   6   3 -31   83.07    5.85
  -6  -3 -31   96.64    7.19
  -3  -6  31   79.64    6.12
  -6   3  30    2.60    1.81
  -3   6 -30    1.19    1.71
   6   3 -30    2.97    1.82
  -6  -3 -30    1.24    2.06
  -3  -6  30    0.75    1.42
   6   3 -29    3.10    2.01
  -3   6 -29    5.79    2.10
  -6   3  29    2.73    1.86
  -3  -6  29    5.21    2.06
  -3   6 -28    8.66    2.50
   6   3 -28   12.81    2.69
  -3   6 -28   13.78    2.08
  -6   3  28   13.23    3.01
  -3  -6  28    8.82    2.38
   6   3 -27   75.95    5.84
  -3   6 -27   74.85    6.18
  -6   3  27   69.67    6.37
  -3  -6  27   78.73    6.26
  -3   6 -27   69.30    4.83
  -3   6 -26   19.93    3.34
   6   3 -26   21.28    3.22
  -6   3  26   16.18    3.30
  -3  -6  26   22.18    3.34
  -3   6 -26   17.81    2.46
  -6   3  26   16.13    2.82
   6   3 -25   96.63    6.80
  -6   3  25   90.45    9.32
  -3   6 -25   97.19    7.16
  -6   3  25   98.42    7.02
  -3  -6  25  100.68    7.24
  -3   6 -25   99.36    6.09
   6   3 -24  288.40   13.03
  -6   3  24  301.00   14.82
  -6   3  24  282.04   17.29
  -3   6 -24  290.27   13.73
  -6   3  24  284.64   13.47
  -3   6 -24  262.90   11.86
  -3  -6  24  277.17   13.33
   6   3 -23  281.40   12.82
  -6   3  23  288.28   14.32
  -6   3  23  262.69   16.71
  -3   6 -23  270.37   13.31
  -3   6 -23  268.53   11.82
  -6   3  23  269.57   13.14
  -3  -6  23  273.98   13.09
   6   3 -22  169.77    9.31
  -6   3  22  182.60   10.77
  -6   3  22  181.64   13.19
  -3   6 -22  162.35    9.69
  -3   6 -22  163.21    8.54
  -6   3  22  174.76    9.89
  -3  -6  22  185.77    9.90
   6   3 -21  129.25    7.90
  -3   6 -21  149.35    8.88
  -6   3  21  142.42    9.43
  -6   3  21  132.39   11.32
  -3  -6  21  136.70    8.34
  -3   6 -21  136.53    7.54
  -6   3  21  140.65    8.64
   6   3 -20   16.62    2.97
  -6   3  20   10.84    3.54
  -3   6 -20   26.13    3.62
  -6   3  20   25.72    3.91
  -3  -6  20   17.27    2.94
  -6   3  20   19.04    3.14
  -3   6 -20   19.99    2.71
   6   3 -19  127.69    7.66
  -6   3  19  139.91    9.02
  -6   3  19  124.57   10.93
  -3   6 -19  135.03    8.21
  -3   6 -19  116.05    6.97
  -6   3  19  130.11    8.16
  -3  -6  19  128.76    7.88
  -3   6 -18   23.92    3.36
   6   3 -18   22.36    3.24
  -6   3  18   21.11    4.57
  -6   3  18   19.07    3.28
  -3  -6  18   20.75    2.92
  -6   3  18   23.67    3.37
  -3   6 -18   18.62    2.67
  -6  -3 -17    2.92    2.02
  -3   6 -17    4.52    1.90
   6   3 -17    3.06    1.86
  -3   6 -17    3.75    1.50
  -6   3  17    4.74    2.78
  -6   3  17    3.00    1.77
  -3  -6  17    5.74    1.74
  -6  -3 -17    4.61    1.75
  -6   3  17    5.78    1.94
   6  -3  17    4.72    1.46
  -6   3  16  131.16   10.84
  -3   6 -16  126.84    7.63
  -6   3  16  119.15    8.08
   6   3 -16  117.92    7.07
  -6   3  16  120.58    8.87
   3  -6 -16  104.88    6.11
  -6  -3 -16  110.32    8.71
  -6  -3 -16  125.48    8.35
  -6   3  16  124.01    7.89
  -3   6 -16  118.57    6.82
  -6  -3 -16  113.45    7.18
  -3  -6  16  105.92    6.83
   6  -3  16  121.42    6.64
  -3   6 -15    2.19    1.39
  -6   3  15    2.55    1.74
  -6  -3 -15   -0.39    1.71
  -6   3  15    1.53    2.02
   6   3 -15    3.38    1.80
   3  -6 -15    2.35    1.28
  -6  -3 -15    4.48    1.80
  -6  -3 -15    2.09    1.79
  -3  -6  15    2.74    1.30
   6  -3  15    3.36    1.27
  -6   3  15    3.05    1.59
  -6  -3 -15    4.65    1.71
  -6   3  14  268.01   12.89
  -6   3  14  242.49   13.95
  -6  -3 -14  243.60   14.06
   3  -6 -14  238.02   10.71
   6   3 -14  266.35   11.70
  -6  -3 -14  255.43   12.77
  -6  -3 -14  254.43   11.49
  -3  -6  14  236.34   11.18
   6  -3  14  256.29   11.22
  -3   6 -14  263.26   11.46
  -6  -3 -14  266.57   11.72
  -6   3  14  261.98   12.31
  -6   3  13   37.90    4.22
  -6   3  13   43.08    5.23
  -6  -3 -13   25.88    4.38
   3  -6 -13   40.77    3.56
   6   3 -13   37.78    3.78
  -6  -3 -13   35.18    4.19
  -3  -6  13   35.21    3.35
  -6  -3 -13   33.75    3.49
  -3   6 -13   41.34    3.83
  -6  -3 -13   36.00    3.58
   6  -3  13   38.16    3.53
  -6   3  13   35.46    3.91
  -3  -6  13   34.07    3.37
  -6   3  12  216.43   11.43
  -6  -3 -12  220.27   13.26
   6   3 -12  256.60   11.00
   3  -6 -12  237.43   10.41
  -6   3  12  229.88   10.49
  -6   3  12  222.65   13.44
  -3  -6  12  235.88   10.30
  -6  -3 -12  243.35   12.07
  -6  -3 -12  226.62   10.55
  -6   3  12  248.90   11.59
   6  -3  12  224.09   10.46
  -6  -3 -12  232.45   10.49
  -3   6 -12  231.95   10.74
  -6   3  11   65.38    5.44
  -6  -3 -11   64.51    6.73
   3  -6 -11   58.68    4.54
  -6   3  11   62.38    4.67
   6   3 -11   71.99    5.09
  -6   3  11   57.83    6.42
  -6  -3 -11   59.10    4.59
  -3  -6  11   61.07    4.42
  -6  -3 -11   68.30    5.61
  -6   3  11   65.46    5.31
  -3   6 -11   68.76    5.04
   6  -3  11   72.57    4.98
  -6   3  10  352.28   15.42
  -6  -3 -10  375.48   18.28
   3  -6 -10  366.23   14.46
  -6   3  10  387.20   14.72
   6   3 -10  365.26   14.73
  -6   3  10  360.44   18.19
  -6  -3 -10  357.34   15.72
  -6  -3 -10  354.07   14.98
  -6  -3 -10  338.34   14.25
  -3  -6  10  354.34   14.08
  -6   3  10  391.93   15.67
   6  -3  10  374.22   14.64
  -6   3   9  928.62   32.56
  -6  -3  -9  999.97   36.31
   3  -6  -9  960.33   31.50
  -6   3   9  952.77   31.59
   6   3  -9  913.69   31.58
  -6   3   9  928.29   35.83
  -6  -3  -9  899.05   31.91
  -6  -3  -9  973.39   32.93
  -3  -6   9  903.87   30.94
  -6   3   9  997.19   32.69
   6  -3   9  957.93   31.72
  -6  -3  -8   63.91    4.97
  -6  -3  -8   65.06    5.22
  -3  -6   8   66.35    4.60
   3  -6  -8   64.99    4.68
  -6   3   8   65.80    4.79
  -6   3   8   64.88    6.70
  -6  -3  -8   66.95    6.83
  -3  -6   7   60.87    4.44
   3  -6  -7   61.59    4.59
  -6   3   7   58.09    4.47
  -6   3   7   61.65    6.58
  -6  -3  -7   65.50    6.67
  -6   3   6  234.49   10.56
  -6   3   6  229.05   13.55
  -6  -3  -6  235.49   13.76
  -6   3   5  100.16    6.13
  -6  -3  -5   99.12    8.38
  -6   3   5  104.09    8.70
   3  -6  -5   96.03    8.54
  -6  -3  -4  190.03   11.98
  -6   3   4  165.67   11.33
  -6   3   4  170.32    8.64
   3  -6  -4  179.81   11.85
  -6   3   3  198.34    9.64
  -6   3   3  188.57   12.48
   6  -3   3  202.96   13.61
   3  -6  -3  218.52   13.09
  -6   3   2    5.74    2.57
  -6   3   2    9.88    2.04
   6  -3   2   11.32    3.63
   3  -6  -2    8.10    2.86
  -6   3   1  140.01    7.60
  -6   3   1  150.80   10.61
  -6  -3  -1  123.14    7.53
   3  -6  -1  155.13   10.74
   6  -3   1  158.43   11.33
  -6   3   0   87.14    5.81
  -6  -3   0  105.90    8.54
  -6   3   0  105.46    8.59
  -6  -3   0   77.83    5.98
   3  -6   0   96.25    8.50
   6  -3   0   93.67    8.52
  -6   3  -1  140.42    7.67
  -6  -3   1  144.76   10.21
  -6  -3   1  131.48    8.20
   6  -3  -1  129.96   10.30
   3  -6   1  161.28   11.06
  -6  -3   2    9.61    3.07
  -6  -3   2    7.81    2.31
   6  -3  -2    4.51    2.45
   3  -6   2    6.19    2.66
  -6  -3   3  194.74   12.39
  -6  -3   3  186.70   10.77
   3  -6   3  215.07   13.30
   6  -3  -3  214.61   13.20
  -6   3  -4  186.94    9.10
  -6  -3   4  173.94   11.64
  -6   3  -4  180.65   11.82
  -6  -3   4  167.71   10.33
   3  -6   4  187.63   12.52
   6  -3  -4  190.79   12.30
  -6   3  -5  105.23    6.51
  -6  -3   5  102.67    8.71
  -6   3  -5  100.66    8.60
  -6  -3   5  108.29    8.29
   3  -6   5  108.01    9.30
   6  -3  -5  117.64    9.32
  -6  -3   6  206.28   12.47
   3  -6   6  239.59   14.45
   6  -3  -6  216.01   13.46
  -6   3  -6  238.56   10.56
  -6  -3   6  214.90   13.13
  -6   3  -6  252.09   14.00
  -3  -6  -6  220.90   10.89
   3  -6   6  232.53   10.59
  -6  -3   7   61.11    6.23
   3  -6   7   48.67    6.38
   6  -3  -7   64.89    6.83
  -6   3  -7   60.63    4.65
  -6  -3   7   62.40    6.45
  -6   3  -7   65.71    6.68
  -3  -6  -7   52.32    4.17
  -3  -6  -7   53.03    4.75
  -6   3  -7   57.37    4.39
  -6  -3   8   61.39    6.63
   3  -6   8   67.67    7.61
   6  -3  -8   66.53    6.89
   3  -6   8   67.68    4.81
  -6   3  -8   71.48    7.01
  -6  -3   8   71.72    7.02
  -6   3  -8   62.59    4.83
  -3  -6  -8   65.49    5.41
  -3  -6  -8   55.90    4.33
  -6   3  -8   69.51    4.98
  -6  -3   8   61.25    5.01
  -6   3  -8   68.96    4.86
  -6  -3   9  919.53   33.00
  -6  -3   9  889.21   35.68
   3  -6   9 1043.92   38.63
  -6   3  -9 1028.77   32.09
   6  -3  -9  957.39   32.01
   3  -6   9  942.12   31.48
  -6   3  -9  974.50   36.18
  -6  -3   9  975.07   36.13
  -3  -6  -9  882.54   30.98
  -6   3  -9  975.86   32.08
  -6   3  -9  951.27   31.86
  -3  -6  -9  930.37   32.93
  -6   3  -9  962.49   31.88
  -6  -3   9  908.41   32.36
  -6  -3  10  346.11   15.53
  -6  -3  10  364.34   18.35
   6  -3 -10  383.04   14.87
   3  -6  10  377.94   14.35
  -6  -3  10  403.03   18.43
  -6   3 -10  374.82   14.60
  -6   3 -10  352.83   17.73
  -3  -6 -10  348.34   15.59
  -3  -6 -10  326.47   13.63
  -6   3 -10  354.38   14.51
  -6   3 -10  362.70   14.62
  -6   3 -10  352.47   14.49
  -6  -3  10  353.92   15.18
  -3  -6 -10  337.19   14.84
  -6  -3  11   60.71    6.84
  -6  -3  11   57.70    5.25
  -6  -3  11   62.17    6.45
   3  -6  11   63.25    4.53
  -6   3 -11   66.77    4.90
   6  -3 -11   66.21    4.98
  -6   3 -11   68.33    6.76
  -6   3 -11   68.93    5.07
  -3  -6 -11   54.98    4.18
  -3  -6 -11   63.95    5.57
  -6   3 -11   61.42    4.77
   3  -6  11   53.63    4.63
  -6   3 -11   64.95    4.84
  -6  -3  11   60.75    5.13
  -3  -6 -11   60.32    4.99
  -6  -3  12  222.73   11.77
  -6  -3  12  263.87   15.39
  -6   3 -12  227.05   13.35
  -6  -3  12  246.21   13.70
   3  -6  12  243.01   10.44
  -6   3 -12  252.65   10.81
   6  -3 -12  248.03   10.99
  -3  -6 -12  237.85   12.07
  -6   3 -12  225.62   10.75
  -3  -6 -12  207.70    9.81
  -6  -3  12  228.63   11.32
  -6   3 -12  250.26   11.18
  -6  -3  12  245.85   11.73
  -3  -6 -12  202.24   10.74
  -6   3 -12  244.10   10.88
   3  -6  12  253.61   11.25
  -6  -3  13   37.82    4.35
  -6  -3  13   30.76    5.17
  -6   3 -13   42.54    5.20
  -6  -3  13   34.30    4.76
   6  -3 -13   41.04    3.98
   3  -6  13   39.39    3.43
  -6   3 -13   49.14    4.13
  -3  -6 -13   32.29    3.15
  -6  -3  13   31.10    3.70
  -6   3 -13   37.59    3.81
  -3  -6 -13   33.98    4.17
  -6  -3  13   39.20    4.20
   3  -6  13   40.37    3.95
  -3  -6 -13   37.27    3.89
  -6   3 -13   36.96    3.78
  -6  -3  14  260.64   15.75
  -6  -3  14  253.86   12.84
  -6   3 -14  261.58   13.97
  -6  -3  14  253.78   14.04
   6  -3 -14  252.61   11.45
  -6   3 -14  262.64   11.53
  -6   3 -14  245.04   11.48
  -6  -3  14  235.25   11.94
  -3  -6 -14  254.15   12.82
  -3  -6 -14  215.03   10.12
  -6  -3  14  254.80   12.34
  -3  -6 -14  233.25   11.49
   3  -6  14  271.21   11.76
  -6  -3  15    0.53    2.15
  -6  -3  15    3.05    1.57
  -6  -3  15    2.24    1.77
   6  -3 -15    2.62    1.91
  -6   3 -15    5.11    2.11
  -3  -6 -15    3.11    1.36
  -6   3 -15    2.72    1.49
  -3  -6 -15    3.68    1.95
  -6  -3  15    2.10    1.55
  -6  -3  15    1.67    1.51
   3  -6  15    2.67    1.62
  -3  -6 -15    4.64    1.60
  -6  -3  16  125.39   10.97
  -6  -3  16  121.45    8.34
   6  -3 -16  130.29    7.50
  -6   3 -16  119.38    8.69
  -6  -3  16   97.08    8.32
  -6  -3  16  108.77    7.54
  -6   3 -16  125.71    7.47
  -3  -6 -16  116.72    8.29
  -6  -3  16  123.12    8.06
   3  -6  16  126.19    7.35
  -3  -6 -16  109.61    7.15
  -6  -3  17    2.82    2.58
  -6  -3  17    1.61    1.52
   3   6 -17    3.41    1.75
   6  -3 -17    3.39    1.98
  -6   3 -17    3.36    1.78
  -3  -6 -17    6.51    2.34
  -6  -3  17    1.38    1.46
  -6  -3  17    3.55    1.94
  -3  -6 -17    3.76    1.57
   3  -6  17    2.49    1.46
  -6  -3  18   25.78    3.90
   6  -3 -18   16.41    2.90
   3   6 -18   19.06    3.23
  -3  -6 -18   21.43    3.75
  -6  -3  18   23.87    3.46
   3  -6  18   17.58    2.90
  -6   3 -18   21.07    2.94
  -6  -3  18   18.23    3.29
  -3  -6 -18   17.60    2.77
   3   6 -19  121.85    8.09
  -6  -3  19  128.82    9.00
   6  -3 -19  126.56    7.72
   3  -6  19  132.46    7.70
  -3  -6 -19  149.85    9.68
  -6   3 -19  126.21    7.64
  -6  -3  19  129.32    8.62
  -3  -6 -19  118.24    7.47
  -6  -3  20   16.87    3.40
   3   6 -20   18.26    3.26
   6  -3 -20   20.58    3.23
  -3  -6 -20   20.65    3.74
   3  -6  20   21.93    3.05
  -6   3 -20   20.42    3.12
  -6  -3  20   21.02    3.63
   3   6 -21  146.95    8.99
  -6  -3  21  137.38    9.43
   6  -3 -21  139.91    8.34
   3  -6  21  139.98    8.17
  -6   3 -21  143.25    8.33
  -6  -3  21  138.92    9.34
  -6  -3  22  181.52   11.18
   3   6 -22  183.22   10.37
   6  -3 -22  176.07    9.63
   3  -6  22  181.53    9.46
  -6   3 -22  174.08    9.56
  -6  -3  23  272.97   14.43
   3   6 -23  286.37   13.66
   6  -3 -23  272.44   12.71
   3  -6  23  257.50   12.14
  -6   3 -23  262.46   12.51
  -6  -3  24  277.97   14.67
   3   6 -24  287.11   13.93
   6  -3 -24  293.95   13.29
   3  -6  24  282.90   12.73
  -6   3 -24  282.28   13.16
  -6  -3  25  111.71    8.32
   3   6 -25   94.44    7.33
   6  -3 -25  108.82    7.21
   3  -6  25  108.72    6.76
  -3  -6 -25  101.85    8.24
  -6   3 -25  100.82    6.91
  -6   3 -26   17.69    2.99
  -6  -3  26   20.99    3.75
   3   6 -26   17.65    3.26
   6  -3 -26   20.71    3.17
  -3  -6 -26   13.41    3.18
   3  -6  26   20.98    2.93
  -6  -3  26   14.84    2.86
  -6  -3  27   76.56    6.81
   3   6 -27   79.49    6.43
   6  -3 -27   66.81    5.68
  -3  -6 -27   80.64    7.06
   3  -6  27   77.90    5.54
  -6   3 -27   77.27    5.86
  -6   3 -28   12.79    2.53
  -6  -3  28   12.65    2.98
   3   6 -28    9.34    2.61
   6  -3 -28   12.99    2.78
  -3  -6 -28    8.34    2.80
   3  -6  28   11.72    2.26
  -6   3 -29    4.42    1.81
  -6  -3  29    3.73    2.08
   3   6 -29    6.36    2.38
   6  -3 -29    4.56    2.07
  -3  -6 -29    4.15    2.29
  -6  -3  29    5.46    2.46
  -6   3 -30    2.32    1.65
  -6  -3  30   -0.29    1.59
   6  -3 -30    1.53    1.61
   3   6 -30    2.02    1.95
  -3  -6 -30    0.30    1.82
   3  -6  30    0.64    1.31
  -6  -3  30    2.91    2.00
   3   6 -31   85.72    6.34
  -6  -3  31   84.14    6.67
   6  -3 -31   84.69    5.98
  -3  -6 -31   85.27    6.82
  -6   3 -31  100.81    6.28
   3  -6  31   89.92    5.94
  -6  -3  31  106.64    7.37
  -6   3 -32    2.99    1.68
  -6  -3  32    1.53    1.59
   3   6 -32    1.54    1.74
   6  -3 -32    1.36    1.45
  -3  -6 -32    1.05    1.76
   3  -6  32    2.66    1.55
  -6  -3  32    0.26    1.90
  -6   3 -33    7.23    1.92
  -6  -3  33    7.40    2.18
   3   6 -33    9.63    2.22
  -3  -6 -33   11.80    2.55
   3  -6  33    7.93    1.94
  -6  -3  33    9.56    2.29
  -6  -3  34   29.47    3.33
   3   6 -34   19.88    2.76
  -3  -6 -34   26.11    3.38
  -6  -3  34   26.56    3.30
  -6   3 -34   24.75    2.78
   3  -6  34   28.67    2.94
  -6  -3  35    0.54    1.17
   3   6 -35    0.78    1.26
  -3  -6 -35    0.95    1.24
   3  -6  35    1.45    1.12
  -6  -3  35    1.56    1.36
  -6  -3  36   89.22    5.57
   3   6 -36  106.83    5.57
  -3  -6 -36   94.56    5.84
  -6  -3  36  116.98    6.33
   3  -6  36  105.32    5.40
  -6  -3  37   17.91    2.13
   3   6 -37   23.57    2.24
  -3  -6 -37   18.28    2.28
  -6  -3  37   24.84    2.63
  -3  -6 -38   -0.39    0.81
  -6  -3  38    0.79    0.89
  -6  -4 -37    7.72    1.42
  -6   4  37    4.41    1.32
   6  -4  37    9.18    1.21
  -4  -6  37    7.26    1.31
  -6  -4 -36   27.04    2.65
   6  -4  36   22.95    2.07
  -4  -6  36   20.10    2.27
  -6  -4 -35   17.31    2.45
  -4  -6  35   21.96    2.43
   6  -4  35   16.92    1.99
  -6   4  34   12.22    1.98
  -6  -4 -34   12.36    2.34
  -4  -6  34   12.28    2.14
  -6   4  33    4.08    1.53
  -6  -4 -33    6.03    2.03
  -4  -6  33    4.39    1.64
  -6   4  32   17.82    2.63
  -4   6 -32   16.00    2.37
  -6  -4 -32   13.72    2.89
  -4  -6  32   18.44    2.80
  -6   4  31   65.17    5.09
  -4   6 -31   52.70    4.26
   6   4 -31   50.58    4.08
  -6  -4 -31   61.09    5.49
  -4   6 -31   47.24    3.53
  -6   4  30   15.16    2.74
  -4   6 -30   19.16    2.75
   6   4 -30   20.06    2.68
  -6  -4 -30   25.17    3.83
  -4   6 -30   18.28    2.32
  -6   4  29  136.98    8.37
  -4   6 -29  133.27    7.67
   6   4 -29  120.88    7.12
  -6  -4 -29  146.78    9.32
  -4   6 -29  127.07    6.75
  -4   6 -28    2.56    1.29
  -6   4  28    0.83    1.63
  -6  -4 -28    3.33    2.29
  -4   6 -28    1.79    1.67
   6   4 -28    3.21    1.71
  -6   4  27   10.10    2.61
  -4   6 -27    8.16    1.89
  -4   6 -27    8.20    2.12
   6   4 -27    8.96    2.23
  -6  -4 -27   10.76    2.99
  -4   6 -26   31.14    3.78
  -6   4  26   33.13    4.14
   6   4 -26   37.35    3.81
  -6  -4 -26   32.98    4.64
  -4   6 -26   26.27    3.06
  -4   6 -25    7.73    1.89
  -6   4  25    4.28    2.04
   6   4 -25    4.16    1.90
  -4   6 -25    4.99    2.11
  -6  -4 -25    4.40    2.37
  -4   6 -24   74.20    5.92
  -6   4  24   61.50    7.68
  -6   4  24   76.38    6.52
   6   4 -24   74.55    5.61
  -6  -4 -24   83.77    7.43
  -4   6 -24   72.29    5.25
  -4  -6  24   73.12    6.13
  -6   4  23  106.38   10.05
  -4   6 -23  107.06    7.39
  -6   4  23  122.15    8.34
   6   4 -23  117.98    7.21
  -6  -4 -23  114.05    8.85
   6  -4  23  104.22    6.14
  -4   6 -23  119.64    6.97
  -4  -6  23  113.52    7.75
  -6   4  22  160.51    9.94
  -6   4  22  151.24   12.10
  -4   6 -22  163.16    9.26
   6   4 -22  162.18    8.72
   6  -4  22  162.46    8.04
  -6  -4 -22  171.44   10.98
  -4   6 -22  150.28    8.39
  -4  -6  22  152.53    9.39
  -6   4  21  669.62   25.37
  -6   4  21  608.86   28.94
  -4   6 -21  644.11   24.16
   6   4 -21  654.45   23.48
  -6  -4 -21  693.62   26.83
   6  -4  21  618.24   22.48
  -4   6 -21  615.67   23.09
  -4  -6  21  643.38   24.54
  -6   4  20  156.80    9.81
  -6   4  20  153.97   12.17
  -4   6 -20  152.11    8.95
   6   4 -20  153.79    8.46
  -6  -4 -20  175.24   10.92
  -4  -6  20  166.19    9.42
   6  -4  20  157.42    8.05
  -4   6 -20  146.26    8.28
  -4   6 -19  141.89    8.27
  -6   4  19  129.33    8.70
  -6   4  19  140.56   11.54
   6   4 -19  132.01    7.68
  -6  -4 -19  133.70    9.48
  -4  -6  19  130.65    8.27
   6  -4  19  129.93    7.25
  -4   6 -19  118.34    7.39
  -4   6 -18  805.66   28.96
  -6   4  18  820.83   30.02
  -6   4  18  785.75   34.52
   6   4 -18  854.16   28.46
  -6  -4 -18  861.10   31.44
  -4  -6  18  789.65   29.12
   6  -4  18  804.95   27.96
  -4   6 -18  778.65   28.14
  -6   4  17  905.51   31.97
  -6   4  17  861.94   36.71
  -4   6 -17  856.55   30.61
   6   4 -17  879.61   30.00
  -4   6 -17  869.80   29.12
  -6  -4 -17  958.40   33.47
  -4  -6  17  847.90   30.75
  -4   6 -17  869.25   30.13
   6  -4  17  850.72   29.76
  -6   4  16  173.23   10.10
  -4   6 -16  182.33    9.55
  -6   4  16  170.72   11.47
   6   4 -16  172.65    8.99
   4  -6 -16  175.03    8.60
  -4   6 -16  189.40    8.82
  -6  -4 -16  153.47   11.39
  -6  -4 -16  208.92   11.54
   6  -4  16  187.54    9.23
  -4   6 -16  192.68    9.50
  -4  -6  16  176.40    9.63
  -4   6 -15  241.91   11.55
  -6   4  15  258.05   12.54
  -6   4  15  235.26   14.07
   6   4 -15  242.90   11.11
   4  -6 -15  240.73   10.79
  -6   4  15  246.48   10.95
  -4   6 -15  266.83   11.07
  -6  -4 -15  214.84   13.86
  -6  -4 -15  259.56   13.31
   6  -4  15  235.12   11.13
  -4   6 -15  247.21   11.37
  -6   4  14  113.25    7.81
   6   4 -14  110.40    6.79
   4  -6 -14  116.53    6.75
  -6  -4 -14  115.01    9.46
  -6   4  14  129.92    7.09
  -6   4  14  115.91    9.37
  -6  -4 -14  117.68    8.41
   6  -4  14  121.18    7.13
  -4   6 -14  129.89    7.45
  -6   4  13   23.52    3.38
  -6  -4 -13   23.41    4.29
  -6   4  13   20.74    4.16
   4  -6 -13   22.80    2.81
  -6   4  13   16.93    2.77
   6   4 -13   24.51    3.12
  -6  -4 -13   30.67    3.22
  -6  -4 -13   24.79    3.68
  -4   6 -13   22.22    3.01
   6  -4  13   28.34    3.25
  -6   4  12  264.93   12.82
   4  -6 -12  274.55   11.89
  -6   4  12  290.08   12.11
  -6  -4 -12  245.43   14.96
  -6   4  12  263.02   15.18
   6   4 -12  271.86   11.81
  -6  -4 -12  267.20   11.64
  -6  -4 -12  261.18   13.44
  -6   4  12  276.73   12.55
  -4   6 -12  288.64   12.46
   6  -4  12  272.81   12.17
  -6   4  11   50.90    4.80
  -6  -4 -11   56.38    6.56
  -6   4  11   52.85    4.41
   4  -6 -11   56.72    4.51
  -6   4  11   55.83    6.41
   6   4 -11   53.62    4.37
  -6  -4 -11   60.88    5.51
  -6  -4 -11   50.90    4.16
  -6   4  11   53.07    4.62
   6  -4  11   53.33    4.58
  -4   6 -11   55.95    4.75
  -6   4  10   46.58    4.49
  -6   4  10   47.58    4.13
  -6   4  10   52.27    6.32
   6   4 -10   48.63    4.12
  -6  -4 -10   39.06    5.58
  -4  -6  10   50.50    4.18
  -6  -4 -10   55.61    5.21
   6  -4  10   51.47    4.45
  -4   6 -10   48.41    4.44
  -6   4   9   59.92    5.00
  -6  -4  -9   45.04    5.93
  -6   4   9   56.40    4.57
  -6   4   9   61.69    6.72
   6   4  -9   55.64    4.34
  -6  -4  -9   51.45    4.92
  -6  -4  -9   48.82    3.84
  -4  -6   9   54.47    4.42
   6  -4   9   60.71    4.80
  -6   4   8   48.05    4.42
  -6  -4  -8   44.71    6.03
  -6   4   8   43.91    4.01
  -6   4   8   43.98    5.84
   6   4  -8   46.05    4.01
  -6  -4  -8   43.02    3.65
  -6  -4  -8   47.55    4.76
  -4  -6   8   46.20    4.05
   6  -4   8   46.14    4.17
   4  -6  -8   49.35    4.43
  -6   4   7  299.55   13.35
  -6  -4  -7  305.30   16.90
  -6   4   7  335.47   13.43
  -6   4   7  311.33   16.87
   6   4  -7  297.91   12.73
  -6  -4  -7  285.40   12.15
  -6  -4  -7  280.56   12.86
  -6  -4  -7  331.88   14.44
  -4  -6   7  310.28   12.94
  -6   4   7  283.16   13.74
   6  -4   7  344.34   13.79
   4  -6  -7  347.97   14.09
   4  -6  -6   32.01    5.30
  -6  -4  -6   40.76    5.66
  -6   4   6   39.07    3.87
  -6   4   6   42.75    5.69
  -6  -4  -6   34.28    3.30
  -6  -4  -6   36.70    4.09
  -6   4   6   45.02    4.41
  -4  -6   6   36.24    3.76
  -6  -4  -6   34.98    3.61
   4  -6  -6   49.16    4.41
   6  -4   6   47.77    4.21
   6  -4   5   56.10    7.33
   4  -6  -5   52.40    6.73
  -6  -4  -5   47.14    6.21
  -6   4   5   55.36    4.53
  -6   4   5   53.03    6.21
  -4  -6   5   48.36    4.14
  -6   4   5   59.43    5.02
  -6  -4  -5   46.27    3.78
  -6  -4  -5   54.86    4.97
   4  -6  -5   58.77    4.83
   6  -4   5   57.96    4.70
   4  -6  -4    1.97    2.60
   6  -4   4    1.16    2.36
  -6  -4  -4    1.82    2.45
  -6   4   4    1.34    2.47
  -4  -6   4    0.45    2.25
  -6   4   4    1.85    1.52
  -4  -6   4    2.81    1.48
  -6  -4  -4    0.85    1.26
  -6   4   4    3.75    1.61
  -6  -4  -4    3.24    1.93
   6  -4   4    2.01    1.37
   4  -6  -4    1.36    1.44
   6  -4   3  800.98   33.51
   4  -6  -3  834.52   32.85
  -4  -6   3  774.77   31.29
  -6   4   3  770.64   26.39
  -6   4   3  753.10   31.00
  -6  -4  -3  719.73   26.94
  -4  -6   3  705.28   25.65
  -6  -4  -3  680.57   25.17
  -6   4   3  720.53   26.62
   4  -6  -3  821.90   27.14
   6  -4   3  825.09   27.12
   6  -4   2  200.37   14.05
   4  -6  -2  178.29   12.85
  -4  -6   2  188.32   12.65
  -6   4   2  173.50   12.08
  -6   4   2  181.95    9.23
  -6  -4  -2  180.87    9.59
  -4  -6   2  169.14    8.76
  -6  -4  -2  168.56    8.37
   4  -6  -2  180.47    9.32
   6  -4   2  186.72    9.40
   4  -6  -1  339.46   18.11
   6  -4   1  324.14   18.30
  -4  -6   1  320.93   17.27
  -6   4   1  326.22   13.42
  -6   4   1  331.49   17.28
  -6  -4  -1  296.39   13.56
  -4  -6   1  292.72   12.72
  -6  -4  -1  283.59   12.43
   4  -6  -1  335.20   13.86
   6  -4   0   42.34    6.42
   4  -6   0   39.78    5.91
  -4  -6   0   41.23    5.77
  -6   4   0   49.06    6.01
  -6   4   0   40.27    4.06
  -6  -4   0   35.91    5.70
  -6  -4   0   49.41    3.95
  -4  -6   0   36.11    3.76
   4  -6   0   43.64    4.07
   6  -4  -1  354.17   19.16
   4  -6   1  305.60   17.90
  -4  -6  -1  320.03   17.72
  -6  -4   1  343.36   18.00
  -6   4  -1  335.17   13.96
  -4  -6  -1  329.85   14.39
   4  -6   1  326.13   14.10
   4  -6   2  213.55   14.01
   6  -4  -2  204.81   13.75
  -6  -4   2  185.60   12.76
  -4  -6  -2  176.06    9.74
   4  -6   2  198.42    9.76
   4  -6   3  807.35   32.93
   6  -4  -3  781.71   32.28
  -6  -4   3  803.96   31.74
  -4  -6  -3  675.13   25.61
  -4  -6  -3  775.57   27.49
   4  -6   3  784.43   26.86
   4  -6   4    2.12    2.25
   6  -4  -4    1.49    2.55
  -6   4  -4    3.73    1.66
  -6  -4   4    2.26    2.56
  -6   4  -4    4.95    2.66
  -6   4  -4    2.10    1.59
  -4  -6  -4    5.80    2.15
  -4  -6  -4    2.23    1.82
   4  -6   5   53.90    7.06
   6  -4  -5   58.76    6.95
  -6  -4   5   60.90    6.89
  -6   4  -5   55.07    4.64
  -6   4  -5   55.33    6.54
  -4  -6  -5   50.86    4.27
  -4  -6  -5   53.38    4.95
  -6   4  -5   59.91    4.81
   4  -6   6   45.37    6.40
   6  -4  -6   43.45    6.03
  -6  -4   6   32.39    5.19
  -6   4  -6   34.00    3.66
  -6   4  -6   43.97    5.86
  -6   4  -6   35.96    3.47
  -4  -6  -6   36.24    3.62
  -6   4  -6   34.82    3.50
  -4  -6  -6   46.41    4.55
  -6   4  -6   39.54    3.98
  -6  -4   6   31.49    3.60
  -4  -6  -6   30.08    3.47
  -6  -4   7  290.44   13.60
   4  -6   7  328.75   18.68
   6  -4  -7  334.60   18.19
  -6  -4   7  327.01   17.48
  -6   4  -7  345.45   13.78
  -6   4  -7  354.76   17.76
   6  -4  -7  325.26   13.37
  -4  -6  -7  293.37   12.86
  -6   4  -7  304.69   13.08
  -4  -6  -7  319.60   14.56
  -6   4  -7  338.06   13.29
  -6  -4   7  289.73   13.36
  -6   4  -7  344.21   13.83
  -4  -6  -7  300.11   13.35
  -6  -4   8   42.50    4.32
   4  -6   8   49.66    6.78
   6  -4  -8   54.37    6.66
   6  -4  -8   44.90    4.21
  -6  -4   8   47.80    6.10
  -6   4  -8   50.68    4.32
  -6   4  -8   42.65    5.70
  -6   4  -8   44.45    4.00
  -6   4  -8   50.71    4.09
  -4  -6  -8   48.64    4.81
  -4  -6  -8   41.05    3.84
   4  -6   8   51.10    4.48
  -6  -4   8   45.15    4.23
  -4  -6  -8   38.21    4.07
  -6   4  -8   41.87    3.99
  -6  -4   9   52.63    4.91
   4  -6   9   70.86    8.26
  -6  -4   9   50.67    6.29
   6  -4  -9   60.10    4.69
  -6   4  -9   62.75    4.82
  -6   4  -9   61.80    6.75
  -4  -6  -9   54.90    4.36
  -4  -6  -9   62.66    5.52
  -6   4  -9   59.91    4.60
  -6   4  -9   52.80    4.29
   4  -6   9   60.52    4.88
  -6  -4   9   58.72    5.02
  -4  -6  -9   49.42    4.44
  -6   4  -9   59.64    4.82
  -6  -4  10   44.75    4.57
   4  -6  10   50.96    6.91
  -6  -4  10   47.21    6.03
   4  -6  10   52.47    4.24
  -6   4 -10   58.27    4.61
  -6   4 -10   53.72    6.42
   6  -4 -10   45.82    4.08
  -6   4 -10   45.55    4.00
  -4  -6 -10   49.27    4.99
  -4  -6 -10   46.41    4.02
  -6   4 -10   49.96    4.33
  -6  -4  10   46.98    4.53
  -4  -6 -10   44.52    4.18
   4  -6  10   50.51    4.43
  -6  -4  11   53.34    4.95
  -6   4 -11   54.64    6.25
  -6  -4  11   50.92    6.19
   4  -6  11   56.05    4.38
  -6   4 -11   53.32    4.40
   6  -4 -11   55.68    4.50
  -4  -6 -11   55.83    4.31
  -4  -6 -11   53.26    5.21
  -6   4 -11   52.75    4.44
  -6  -4  11   52.74    4.85
   4  -6  11   55.19    4.75
  -4  -6 -11   40.04    4.09
  -6  -4  12  251.54   12.79
  -6  -4  12  275.92   15.45
   4  -6  12  279.19   11.81
  -6   4 -12  278.91   11.95
  -6   4 -12  273.87   15.27
   6  -4 -12  277.16   11.97
  -6   4 -12  288.50   12.26
  -4  -6 -12  272.42   13.66
  -6  -4  12  250.70   12.59
  -4  -6 -12  237.48   11.63
   4  -6  12  295.10   12.64
  -6  -4  13   18.62    3.14
  -6   4 -13   25.34    4.35
   4  -6  13   22.86    2.80
  -6   4 -13   23.68    2.93
  -6  -4  13   24.25    4.51
   6  -4 -13   26.25    3.21
  -6   4 -13   23.86    3.04
  -4  -6 -13   20.94    3.59
  -6  -4  13   25.01    3.54
   4  -6  13   21.99    3.10
  -6  -4  14  112.14    8.00
   6  -4 -14  125.89    7.27
   4  -6  14  129.81    6.98
  -6  -4  14  114.25    9.40
  -6   4 -14  126.75    7.10
  -6   4 -14  127.82    9.54
  -6   4 -14  121.95    7.35
  -4  -6 -14  128.77    8.74
   4  -6  14  126.53    7.53
  -6  -4  14  123.19    8.08
   4   6 -15  235.89   11.64
  -6  -4  15  239.28   12.40
  -6   4 -15  249.50   13.90
   6  -4 -15  246.96   11.23
  -4   6  15  242.06   10.80
  -6   4 -15  235.79   10.74
  -6  -4  15  221.57   13.70
  -4  -6 -15  279.58   13.70
  -6   4 -15  236.97   11.32
  -6   4 -15  227.84   11.22
   4  -6  15  235.17   11.37
  -6  -4  15  247.99   12.36
  -6  -4  16  178.95   10.57
   4   6 -16  189.66    9.96
  -6   4 -16  174.32   11.24
   6  -4 -16  193.79    9.54
  -4  -6 -16  184.96   11.33
  -6  -4  16  173.75   10.27
  -6   4 -16  189.74    9.63
   4  -6  16  178.84    9.55
  -6  -4  17  870.98   32.41
   4   6 -17  889.42   31.41
   6  -4 -17  891.49   30.60
  -4  -6 -17  944.29   33.74
   4  -6  17  892.69   30.92
  -6   4 -17  883.97   30.86
  -6  -4  17  854.61   32.07
  -6  -4  18  848.44   31.10
   4   6 -18  813.23   29.77
   6  -4 -18  841.15   29.09
  -4  -6 -18  866.23   32.24
   4  -6  18  826.91   29.17
  -6   4 -18  807.95   29.14
  -6  -4  18  842.53   30.89
   4   6 -19  136.33    8.35
  -6  -4  19  132.07    9.01
  -4   6  19  122.62    9.96
   6  -4 -19  132.36    7.82
  -4  -6 -19  138.85    9.75
   4  -6  19  132.71    7.79
  -6  -4  19  137.75    8.96
  -6   4 -19  126.99    7.85
  -6  -4  20  159.26   10.09
   4   6 -20  161.36    9.46
   6  -4 -20  161.31    8.86
  -4  -6 -20  157.03   10.54
   4  -6  20  161.02    8.80
  -6   4 -20  169.77    9.14
  -6  -4  20  165.02   10.20
  -6  -4  21  655.61   25.65
   4   6 -21  622.81   24.35
   6  -4 -21  653.33   23.75
  -4  -6 -21  669.29   26.78
   4  -6  21  638.58   23.57
  -6   4 -21  629.15   23.76
  -6  -4  21  648.21   25.51
   4   6 -22  153.36    9.31
  -6  -4  22  176.21   10.54
   6  -4 -22  164.07    9.01
   4  -6  22  166.05    8.80
  -4  -6 -22  162.38   10.86
  -6  -4  22  169.34   10.32
  -6   4 -22  155.65    8.97
  -6  -4  23  119.19    8.52
   4   6 -23  109.22    7.65
   6  -4 -23  108.49    7.14
   4  -6  23  124.44    7.27
  -4  -6 -23  116.65    8.96
  -6  -4  23  121.83    8.52
  -6   4 -23  121.64    7.53
  -6  -4  24   83.89    6.93
   4   6 -24   67.48    5.93
   6  -4 -24   68.35    5.53
  -4  -6 -24   77.14    7.10
   4  -6  24   72.25    5.36
  -6  -4  24   71.91    6.52
  -6   4 -24   73.71    5.68
  -6   4 -25    5.77    2.18
  -6  -4  25    6.68    2.28
   6  -4 -25    4.34    2.02
   4   6 -25    5.85    2.25
  -4  -6 -25    5.83    2.72
   4  -6  25    3.29    1.58
  -6  -4  25    2.88    2.00
  -6  -4  26   31.10    4.13
   4   6 -26   29.62    3.87
   6  -4 -26   26.62    3.44
   4  -6  26   31.54    3.42
  -4  -6 -26   32.66    4.74
  -6   4 -26   24.99    3.39
  -6  -4  26   31.73    4.35
  -6  -4  27    8.28    2.48
  -6   4 -27    8.31    2.21
   4   6 -27    6.52    2.08
   6  -4 -27    7.82    2.29
  -4  -6 -27    6.17    2.66
  -6  -4  27    8.26    2.58
   4  -6  27    6.57    1.88
  -6   4 -28    3.57    1.86
  -6  -4  28    2.53    1.72
   4   6 -28    2.16    1.70
   6  -4 -28    1.88    1.52
  -4  -6 -28    3.95    2.39
  -6  -4  28    5.31    2.15
   4  -6  28    1.77    1.27
   4   6 -29  131.12    7.91
  -6  -4  29  137.06    8.48
   6  -4 -29  125.61    7.41
  -4  -6 -29  125.93    8.85
   4  -6  29  137.90    7.05
  -6   4 -29  146.62    7.82
  -6  -4  29  146.84    8.95
  -6  -4  30   19.03    3.08
   4   6 -30   20.33    3.01
   6  -4 -30   19.16    2.73
  -4  -6 -30   16.08    3.28
  -6   4 -30   21.75    2.87
  -6  -4  31   51.96    4.65
   4   6 -31   51.10    4.45
  -4  -6 -31   48.72    4.97
  -6   4 -31   56.80    4.35
   4  -6  31   55.35    4.35
  -6   4 -32   15.71    2.31
  -6  -4  32   10.29    2.14
   4   6 -32   16.91    2.44
  -4  -6 -32   14.57    2.78
   4  -6  32   16.02    2.38
  -6   4 -33    3.65    1.32
   4   6 -33    3.98    1.42
  -4  -6 -33    0.67    1.49
   4  -6  33    4.01    1.36
   4   6 -34   13.69    1.94
  -4  -6 -34   12.18    2.40
   4  -6  34   13.02    1.97
  -6   4 -34   14.32    1.95
   4   6 -35   18.50    1.94
   4  -6  35   21.51    2.25
  -4  -6 -36   26.38    2.70
  -4  -6 -37    9.47    1.54
  -6  -5 -36   16.87    1.91
   6  -5  36   15.52    1.50
  -5  -6  35   49.05    3.40
   6  -5  35   61.32    3.28
  -5  -6  34  178.82    8.23
   6  -5  34  199.23    7.96
  -5  -6  33    3.98    1.57
  -5  -6  32   95.63    5.87
  -5   6 -32   90.71    4.70
  -5   6 -31   38.55    3.07
  -5  -6  31   41.68    3.93
  -5  -6  30   22.46    3.13
  -5   6 -30   24.61    2.56
  -5   6 -29   17.14    2.30
  -5  -6  29   15.49    2.73
  -5  -6  28   52.94    4.90
  -5   6 -28   54.61    4.19
  -5   6 -27   35.76    3.46
  -5  -6  27   33.46    4.02
  -6   5  26  234.70   11.55
   6  -5  26  224.20    9.74
  -5  -6  26  231.06   11.78
  -5   6 -26  262.52   11.00
  -5   6 -25   36.32    3.74
  -6   5  25   38.93    4.30
   6  -5  25   46.12    3.62
  -5  -6  25   49.86    4.96
  -5   6 -25   46.11    4.11
  -5   6 -24   48.04    4.36
  -6   5  24   54.89    5.11
   6  -5  24   60.22    4.28
  -5   6 -24   51.66    4.45
  -5  -6  24   47.89    4.90
  -5   6 -23   91.83    6.13
  -6   5  23   89.28    6.70
   6  -5  23   88.00    5.64
  -5  -6  23   89.24    6.91
  -5   6 -23   99.53    6.28
  -5   6 -22  262.40   12.33
  -6   5  22  279.64   13.43
  -6   5  22  271.71   16.78
   6   5 -22  283.96   12.18
  -6  -5 -22  288.14   15.13
   6  -5  22  269.93   11.87
  -5  -6  22  287.99   13.79
  -5   6 -22  291.44   12.67
  -5   6 -21   39.19    4.06
  -6   5  21   37.63    6.10
   6   5 -21   45.47    4.12
  -6  -5 -21   51.74    6.02
   6  -5  21   49.96    4.21
  -5   6 -21   46.43    4.32
  -5  -6  21   44.78    4.88
  -6   5  20  422.77   21.95
  -5   6 -20  395.26   16.53
   6   5 -20  404.60   16.18
  -6  -5 -20  445.29   19.78
  -5   6 -20  420.21   16.76
   6  -5  20  408.96   16.28
  -5  -6  20  406.95   17.68
  -5   6 -19   15.75    2.82
  -6   5  19   14.90    4.08
  -5   6 -19   10.01    2.35
   6   5 -19   13.31    2.47
  -6  -5 -19   14.23    3.58
  -5  -6  19   11.07    2.60
   6  -5  19   13.57    2.43
  -6   5  18  161.59   12.74
  -5   6 -18  144.65    8.34
   6   5 -18  161.16    8.29
  -5   6 -18  142.15    7.47
  -6  -5 -18  163.49   10.64
   6  -5  18  154.76    8.34
  -5   6 -18  170.19    8.88
  -5  -6  18  151.91    9.18
  -5   6 -17  214.49   10.66
   6   5 -17  225.86   10.42
   5  -6 -17  213.12    9.98
  -5   6 -17  219.10   10.04
  -5   6 -17  230.39   11.07
   6  -5  17  229.43   10.85
  -5  -6  17  211.30   11.43
  -5   6 -16 1468.07   48.98
   6   5 -16 1521.83   48.58
  -5   6 -16 1489.55   52.91
   5  -6 -16 1556.92   48.64
  -5   6 -16 1577.68   48.68
  -6   5  16 1557.21   48.81
  -6  -5 -16 1585.08   52.52
  -5   6 -16 1542.51   49.58
  -5  -6  16 1477.06   50.03
   6  -5  16 1522.03   49.35
  -5   6 -15  127.39    7.50
   6   5 -15  125.23    7.21
   5  -6 -15  136.92    7.53
  -5   6 -15  133.42    7.46
  -6   5  15  145.48    7.78
  -5   6 -15  139.43   10.16
  -6   5  15  136.25   10.47
  -6  -5 -15  151.61    9.88
  -5   6 -15  147.11    8.25
  -5  -6  15  119.55    7.98
   6  -5  15  130.11    7.84
  -5   6 -14   17.47    2.82
  -5   6 -14   20.84    3.94
  -5   6 -14   17.27    2.60
  -6   5  14   16.20    3.78
   5  -6 -14   21.89    2.90
  -6  -5 -14   13.56    3.61
  -6   5  14   20.03    2.85
  -6  -5 -14   21.39    3.70
  -5  -6  14   19.01    2.95
   6  -5  14   19.36    2.99
  -5   6 -13    8.82    2.22
  -6   5  13    8.03    3.11
  -5   6 -13    7.40    2.01
  -6  -5 -13    5.90    2.54
  -6   5  13    6.82    1.91
   5  -6 -13    8.15    1.95
  -6  -5 -13    9.80    2.83
   6  -5  13    7.05    1.99
  -5  -6  13    8.43    2.18
  -5   6 -12  230.49   10.71
  -6   5  12  233.44   10.83
  -6  -5 -12  224.41   14.59
  -6   5  12  218.19   14.04
  -6  -5 -12  234.22   12.53
   6  -5  12  222.66   10.91
  -5  -6  12  199.80   10.56
  -5   6 -12  218.59   10.88
  -6   5  11   29.04    5.28
  -5   6 -11   33.84    3.67
  -6  -5 -11   28.97    5.01
  -6   5  11   31.60    3.62
  -6  -5 -11   33.35    4.44
   6  -5  11   32.88    3.74
  -5   6 -11   28.05    3.57
  -5   6 -10   63.44    5.02
  -6   5  10   57.56    4.81
  -6  -5 -10   51.05    6.74
  -6   5  10   60.49    7.15
  -6  -5 -10   59.22    5.68
   6  -5  10   64.71    5.19
  -5   6 -10   53.71    4.91
  -6  -5  -9   79.95    8.45
  -5   6  -9   94.63    6.23
  -6   5   9   88.24    6.11
  -6   5   9   86.27    8.44
  -6  -5  -9   97.83    7.28
  -6   5   9   81.27    6.43
  -5   6  -9   99.41    6.62
   6  -5   9   76.14    5.90
  -5  -6   8   62.55    7.32
  -6   5   8   58.19    4.89
  -6  -5  -8   57.64    7.07
  -6   5   8   52.62    6.61
  -6  -5  -8   55.33    5.36
  -6   5   8   49.85    5.04
  -6  -5  -8   42.57    3.73
   6  -5   8   58.86    4.96
  -5   6  -8   59.99    5.10
   6  -5   7   22.70    5.36
  -5  -6   7   21.12    4.34
  -6  -5  -7   16.24    4.13
  -6   5   7   13.82    3.89
  -6   5   7   17.85    2.87
  -6  -5  -7   14.61    3.04
  -6   5   7   14.98    2.80
  -6  -5  -7   15.05    2.22
   6  -5   7   18.35    2.86
   5  -6  -7   19.63    3.21
   6  -5   6  274.16   17.82
  -5  -6   6  218.78   14.80
  -6  -5  -6  229.31   14.96
  -6   5   6  236.96   11.34
  -6   5   6  226.84   14.74
  -6  -5  -6  260.01   12.73
  -6   5   6  227.84   11.56
  -6  -5  -6  231.40   10.36
   6  -5   6  250.82   11.80
   5  -6  -6  263.77   12.27
   6  -5   5   27.03    5.79
  -5  -6   5   36.63    5.84
  -6   5   5   28.70    5.02
  -6   5   5   30.77    3.71
  -6  -5  -5   30.27    5.47
  -6  -5  -5   31.84    4.03
  -6  -5  -5   24.50    2.84
  -6   5   5   27.28    3.57
   6  -5   5   33.14    3.75
   5  -6  -5   23.54    3.48
   6  -5   4   93.61    9.89
  -6   5   4   82.28    6.02
  -6  -5  -4   82.71    8.77
  -5  -6   4   77.65    8.34
  -6   5   4   85.28    6.12
  -6  -5  -4   86.39    6.75
  -6  -5  -4   82.45    5.39
   6  -5   4   85.94    6.16
   5  -6  -4   96.85    6.70
   6  -5   3  148.76   12.24
  -6   5   3  124.88    7.61
  -5  -6   3  111.05   10.51
  -6   5   3  126.59    7.55
  -6  -5  -3  132.44    8.33
  -6  -5  -3  116.64    6.76
   5  -6  -3  131.40    8.00
   6  -5   3  128.41    7.84
   6  -5   2   40.36    6.49
  -6   5   2   40.28    4.12
  -5  -6   2   41.28    6.08
  -6  -5  -2   33.76    4.09
  -6  -5  -2   31.83    3.32
   5  -6  -2   34.03    3.89
   6  -5   2   40.63    4.23
   6  -5   1   12.64    3.96
  -5  -6   1   11.39    3.46
  -6   5   1   11.76    2.40
  -6  -5  -1    8.37    1.87
   5  -6  -1    7.05    2.10
   6  -5   1   11.11    2.40
  -5  -6   0    0.52    2.12
  -6  -5   0    0.51    1.92
  -6   5   0    1.16    1.47
   6  -5   0   -2.37    2.88
   5  -6   0    0.25    1.50
   6  -5   0    0.25    1.30
  -6  -5   1   13.88    3.94
  -5  -6  -1    9.36    3.48
  -6   5  -1    9.50    2.19
   5  -6   1    8.17    3.45
   6  -5  -1    9.30    3.44
   6  -5  -1   10.46    2.39
   5  -6   2   39.68    6.43
   6  -5  -2   38.95    6.33
  -6  -5   2   47.05    6.46
  -5  -6  -2   40.23    4.40
   6  -5  -2   38.98    4.23
   5  -6   3  134.55   11.64
   6  -5  -3  127.99   11.03
  -5  -6  -3  125.92    8.07
  -5  -6  -3  106.75    6.13
  -6  -5   3  129.58   10.76
   5  -6   4   87.80    9.46
   6  -5  -4   82.45    8.99
  -6  -5   4   96.64    9.16
  -6   5  -4   91.01    6.24
   6  -5  -4   80.78    5.49
  -5  -6  -4   69.74    8.18
  -5  -6  -4   84.38    6.64
   5  -6   5   33.14    5.89
   6  -5  -5   25.78    5.78
  -6   5  -5   33.64    5.31
  -5  -6  -5   22.33    4.92
  -6   5  -5   27.52    3.54
  -6  -5   5   25.44    5.01
   6  -5  -5   24.12    2.98
  -5  -6  -5   28.60    3.84
  -6   5  -5   33.57    3.74
   5  -6   5   25.13    3.47
   5  -6   6  281.07   17.62
   6  -5  -6  263.61   16.57
  -5  -6  -6  252.45   16.24
  -6  -5   6  258.45   15.92
  -6   5  -6  240.55   15.25
  -6   5  -6  248.15   11.82
   6  -5  -6  260.30   11.03
  -5  -6  -6  261.06   13.06
   5  -6   6  236.06   11.89
  -6   5  -6  261.28   12.14
   5  -6   7   18.33    4.81
   6  -5  -7   20.85    4.52
  -6  -5   7   16.60    4.19
  -6   5  -7   18.15    4.40
  -5  -6  -7   17.67    4.74
  -6   5  -7   22.92    3.26
   6  -5  -7   22.82    2.71
  -5  -6  -7   19.58    3.32
   5  -6   7   17.53    2.84
  -6  -5   7   18.44    2.71
   5  -6   8   64.68    8.35
  -6  -5   8   39.35    5.87
  -6   5  -8   54.24    4.68
  -6   5  -8   61.28    7.08
   6  -5  -8   54.62    4.25
  -5  -6  -8   57.26    5.53
  -6  -5   8   45.44    4.44
   5  -6   8   62.41    5.08
   5  -6   9  102.89   10.37
   6  -5  -9   86.22    5.49
  -5   6   9   86.23    6.04
  -6  -5   9   80.00    8.27
  -6   5  -9   91.01    6.11
  -6   5  -9   84.81    8.21
  -5  -6  -9   88.40    7.04
  -6  -5   9   70.43    5.67
   5  -6   9   91.59    6.34
   5  -6  10   56.32    7.86
  -5   6  10   54.42    4.71
  -6   5 -10   60.46    4.94
  -6  -5  10   61.06    7.05
  -6   5 -10   63.32    7.04
   6  -5 -10   52.79    4.25
  -5  -6 -10   54.68    5.56
  -6   5 -10   58.01    4.57
  -6  -5  10   53.59    4.84
   5  -6  10   55.47    4.93
   5  -6  11   41.09    6.99
   6  -5 -11   28.11    3.22
  -6   5 -11   30.93    4.91
  -5   6  11   30.65    3.54
  -6   5 -11   33.93    3.61
  -6  -5  11   30.91    5.21
  -5  -6 -11   27.61    4.01
  -6   5 -11   35.60    3.57
  -6  -5  11   28.99    3.64
   5  -6  11   38.79    4.03
  -6   5 -11   38.47    3.94
   5  -6  12  219.15   16.13
   6  -5 -12  219.49    9.95
   5  -6  12  214.47   10.20
  -5   6  12  223.75   10.56
  -6   5 -12  222.10   10.48
  -6  -5  12  207.71   13.84
  -6   5 -12  197.77   13.17
  -6   5 -12  208.55   10.14
  -5  -6 -12  235.27   12.55
  -6  -5  12  196.49   10.82
  -6   5 -12  220.07   10.84
   5  -6  12  220.06   10.95
  -6   5 -13    5.22    2.01
  -6   5 -13    8.07    2.85
  -6  -5  13    9.91    3.05
   6  -5 -13    7.44    1.91
  -5   6  13   10.54    2.26
  -6   5 -13    5.94    1.78
   5  -6  13    7.88    1.84
  -5  -6 -13    6.19    2.60
  -6  -5  13    4.05    1.76
   5  -6  13    7.04    2.11
  -6   5 -14   18.28    2.93
  -6  -5  14   21.73    3.28
  -5   6  14   11.66    3.48
  -6   5 -14   16.95    2.53
  -6   5 -14   16.14    3.64
   6  -5 -14   18.33    2.66
   5  -6  14   18.52    2.70
  -5   6  14   23.30    3.02
  -6  -5  14   12.91    3.48
  -5  -6 -14   26.66    4.17
  -6  -5  14   16.68    2.98
   5  -6  14   23.72    3.32
  -6  -5  15  117.40    8.00
  -6  -5  15  110.44    9.71
   6  -5 -15  126.83    7.20
   5  -6  15  131.01    7.14
  -5   6  15  124.54    7.30
  -6   5 -15  140.70    7.55
  -5   6  15  134.03   10.43
  -6   5 -15  128.43    9.81
  -5  -6 -15  132.98    9.40
  -6   5 -15  143.67    8.17
   5  -6  15  151.99    8.35
  -6  -5  15  126.12    8.32
  -6  -5  16 1441.36   50.61
   6  -5 -16 1526.62   49.16
  -5   6  16 1562.12   49.30
  -6   5 -16 1604.34   49.40
  -6   5 -16 1421.19   53.22
  -5  -6 -16 1717.02   53.77
  -6  -5  16 1555.74   51.45
   5  -6  16 1561.79   50.33
  -6   5 -16 1583.63   50.39
  -6  -5  17  201.28   11.37
   6  -5 -17  227.11   10.48
  -5  -6 -17  248.50   13.55
   5  -6  17  222.20   10.95
  -6   5 -17  230.47   11.16
  -6  -5  17  219.45   11.92
  -6  -5  18  150.76    9.27
   6  -5 -18  143.53    8.02
  -5  -6 -18  179.08   11.10
  -6  -5  18  164.60    9.85
   5  -6  18  148.78    8.47
  -6   5 -18  161.25    8.89
  -6   5 -19   12.12    2.57
  -5   6  19    9.66    3.14
  -6  -5  19   17.11    3.07
   6  -5 -19   12.70    2.47
  -5  -6 -19   10.96    3.30
   5  -6  19   14.38    2.60
  -6  -5  19   17.50    3.28
   5   6 -20  395.14   16.74
  -6  -5  20  385.44   17.48
  -5   6  20  385.28   20.46
   6  -5 -20  390.48   16.03
  -5  -6 -20  459.21   19.92
  -6   5 -20  414.66   16.90
   5  -6  20  420.85   16.70
  -6  -5  20  446.75   18.53
  -6  -5  21   46.43    4.91
   5   6 -21   43.97    4.50
   6  -5 -21   49.92    4.34
   5  -6  21   45.86    4.26
  -5  -6 -21   50.15    5.88
  -6   5 -21   52.59    4.76
  -6  -5  21   49.73    5.28
  -6  -5  22  241.72   12.94
   5   6 -22  267.69   12.60
   6  -5 -22  264.35   11.94
  -5  -6 -22  298.69   15.29
   5  -6  22  287.28   12.30
  -6   5 -22  270.19   12.49
  -6  -5  22  299.24   14.22
  -6  -5  23   83.17    6.59
   5   6 -23   81.41    6.15
   6  -5 -23   89.30    5.96
   5  -6  23   95.00    6.05
  -5  -6 -23   85.36    7.69
  -6   5 -23  106.55    6.68
  -6  -5  23   85.44    7.07
   5   6 -24   43.91    4.44
  -6  -5  24   46.61    4.86
   6  -5 -24   42.97    4.08
   5  -6  24   56.58    4.43
  -5  -6 -24   61.21    6.38
  -6  -5  24   50.98    5.24
  -6   5 -24   57.14    4.85
   5   6 -25   37.32    4.02
  -6  -5  25   32.11    3.98
   6  -5 -25   37.24    3.63
   5  -6  25   45.96    3.89
  -5  -6 -25   45.62    5.49
  -6  -5  25   40.37    4.73
  -6   5 -25   46.30    4.26
   5   6 -26  231.68   10.97
   6  -5 -26  207.36   10.26
  -5  -6 -26  246.40   13.31
   5  -6  26  237.11   10.33
  -6   5 -26  254.70   11.22
  -6  -5  26  252.82   12.49
   5   6 -27   35.91    3.70
  -5  -6 -27   30.47    4.57
   5  -6  27   36.71    3.29
  -6  -5  27   36.76    4.42
  -6   5 -27   42.90    3.93
   5   6 -28   42.88    4.02
  -5  -6 -28   54.17    5.66
   5  -6  28   53.67    3.88
  -6   5 -28   62.74    4.67
  -6  -5  28   56.75    5.22
  -5  -6 -29   15.74    3.27
  -6  -5  29   15.06    2.95
  -6   5 -29   19.32    2.59
  -5  -6 -30   25.09    3.73
  -6  -5  30   23.99    3.22
  -6   5 -30   22.19    2.71
  -5  -6 -31   40.51    4.45
  -6  -5  31   50.62    4.39
  -6   5 -31   42.68    3.50
  -5  -6 -32   95.53    6.31
  -6  -5  32   91.69    5.92
  -6   5 -32   90.24    5.06
   5  -6  32   90.43    5.18
  -6   5 -33    5.47    1.34
  -5  -6 -33    3.06    1.66
  -6  -5  33    4.59    1.23
   5  -6  33    3.96    1.31
  -6  -5  33    6.89    1.82
  -5  -6 -34  184.86    8.92
  -6  -5  34  204.28    8.89
   5  -6  34  194.60    8.01
  -5  -6 -35   45.97    3.64
  -6  -5  35   49.89    3.52
  -5  -6 -36   16.84    1.90
  -6  -5  36   16.45    1.87
  -6   6   0   10.72    2.50
  -6  -6   0    5.84    3.59
  -6  -6   0    9.04    2.01
  -6   6  -1   71.22    5.68
  -6   6   1   67.52    5.55
  -6  -6   1   67.06    8.26
  -6  -6  -1   58.89    4.73
   6  -6  -2   36.10    6.46
  -6   6   2   38.91    4.35
  -6  -6   2   28.49    5.57
  -6  -6  -2   33.62    3.46
   6  -6   2   33.46    4.02
   6  -6  -3   15.09    4.45
  -6  -6   3    8.69    3.42
  -6   6   3    9.39    2.42
  -6  -6  -3    6.61    1.80
   6  -6   3    6.97    2.27
   6  -6  -3    7.09    2.25
   6  -6  -4   13.07    4.17
  -6  -6   4    9.22    3.49
  -6  -6  -4   10.46    4.01
  -6   6   4   15.37    2.83
  -6  -6  -4   12.48    2.12
   6  -6   4   15.17    2.87
   6  -6  -4   15.10    2.97
   6  -6  -5   91.55    9.77
  -6   6  -5   83.57    6.47
  -6   6   5   90.65    6.51
  -6  -6   5   89.95    9.50
  -6  -6  -5   86.16    9.56
  -6  -6  -5   85.56    5.55
   6  -6   5   99.36    6.85
   6  -6  -5   96.65    7.12
  -6   6  -6  289.07   13.40
  -6   6   6  295.85   13.53
  -6  -6   6  287.52   17.89
  -6  -6  -6  256.20   17.31
   6  -6   6  302.96   13.77
   6  -6  -6  313.43   14.45
  -6   6  -7  373.90   20.30
  -6   6   7  380.48   16.28
  -6   6  -7  389.27   16.37
  -6  -6   7  374.97   20.95
  -6  -6  -7  350.35   20.93
   6  -6   7  397.93   23.10
   6  -6  -7  418.69   17.46
   6  -6   7  389.25   16.56
  -6  -6   8  138.66   11.74
  -6  -6  -8  127.55   11.81
  -6   6  -8  144.71    8.44
  -6   6   8  134.97    8.37
  -6   6   8  148.21   11.82
  -6   6  -8  152.85   11.68
   6  -6   8  143.27   13.07
   6  -6   8  147.40    8.62
   6  -6  -8  154.31    9.39
  -6   6  -8  142.82    8.55
  -6   6  -9   19.56    3.22
   6  -6   9   20.08    5.44
  -6  -6  -9   18.60    4.59
  -6   6   9   17.14    4.03
  -6   6  -9   19.78    4.24
  -6   6  -9   19.67    3.02
  -6   6   9   15.58    2.81
  -6  -6   9   17.03    4.38
  -6   6   9   15.71    2.85
   6  -6   9   17.82    3.09
   6  -6  10  308.93   19.80
  -6  -6  10  259.51   16.84
  -6   6 -10  286.35   12.99
  -6   6  10  282.85   12.97
  -6   6  10  279.90   17.05
  -6   6 -10  290.93   16.87
  -6   6  10  276.15   13.56
  -6   6 -10  299.12   13.47
   6  -6  10  276.62   13.19
   6  -6  11  283.95   19.20
  -6   6 -11  268.48   12.30
  -6   6  11  267.65   12.43
  -6   6  11  259.80   16.27
  -6   6 -11  253.03   15.64
  -6   6  11  279.28   13.36
  -6  -6  11  236.83   11.97
   6  -6  11  265.50   12.59
  -6   6 -11  283.52   12.83
  -6   6 -12   19.49    3.06
   6  -6  12   24.45    5.69
  -6   6  12   24.22    4.59
  -6   6 -12   21.50    4.28
  -6   6 -12   27.23    3.30
  -6   6  12   17.41    2.89
  -6   6  12   17.99    3.28
   6  -6  12   22.88    3.53
  -6  -6  12   19.93    3.00
  -6   6 -13  133.89    7.57
  -6   6  13  125.36    7.41
  -6   6  13  125.37   10.42
  -6   6 -13  117.94    9.89
   6  -6  13  122.66   12.39
  -6  -6  13  102.38    7.35
  -6   6 -13  112.86    7.49
   6  -6  13  127.96    7.78
  -6   6  14  543.06   20.18
   6  -6 -14  519.91   19.87
   6  -6  14  526.76   19.59
  -6   6 -14  576.94   20.28
  -6   6  14  455.76   23.89
  -6   6 -14  498.67   23.77
   6  -6  14  557.40   29.20
  -6   6 -14  552.16   20.70
  -6  -6  14  482.70   20.46
   6  -6  14  533.37   20.52
   6  -6  15  519.26   19.43
  -6   6 -15  514.80   19.77
  -6   6  15  547.06   20.15
  -6   6 -15  530.15   24.13
   6  -6 -15  549.42   20.05
   6  -6  15  566.73   29.46
  -6  -6  15  507.73   20.93
   6  -6  15  525.09   20.54
  -6   6 -15  551.07   20.77
   6  -6 -16   16.41    2.59
  -6   6 -16   16.56    2.56
  -6   6  16   13.82    2.42
  -6   6 -16   16.83    2.94
   6  -6  16   15.83    4.97
  -6  -6  16   20.44    3.21
   6  -6  16   16.06    2.77
   6  -6 -17   46.69    3.94
  -6   6 -17   41.58    3.75
   6  -6  17   48.75    7.75
  -6  -6  17   31.92    4.20
   6  -6  17   41.43    4.16
  -6   6 -17   38.73    4.09
   6  -6 -18  344.83   14.08
  -6   6  18  371.85   20.70
  -6  -6  18  377.52   16.43
   6  -6  18  363.67   15.19
  -6   6 -18  388.91   15.68
  -6   6  19   10.65    3.63
  -6   6 -19   13.84    2.70
  -6  -6  19   13.06    2.85
   6  -6  19   18.61    2.77
  -6   6 -20   21.30    3.06
  -6  -6  20   13.33    2.82
   6  -6  20   16.92    2.69
   6  -6  21  289.87   12.52
  -6   6 -21  298.05   12.99
  -6  -6  21  284.41   13.75
  -6   6 -22    2.37    1.69
  -6  -6  22    2.49    1.82
   6  -6  22    3.45    1.57
  -6   6 -23    1.66    1.41
  -6  -6  23    0.27    1.43
   6  -6  23    2.17    1.33
  -6   6 -24    1.39    1.48
  -6  -6  24   -0.79    1.45
   6  -6  24    1.18    1.21
   6  -6 -24    0.20    1.25
  -6   6 -25    4.35    1.79
  -6  -6  25    3.03    1.76
   6  -6  25    4.51    1.40
   6  -6  26   38.51    3.16
  -6  -6  26   33.46    3.95
  -6   6 -26   43.42    3.77
   6  -6  27   30.47    2.66
  -6   6 -27   32.44    3.21
  -6  -6  27   29.73    3.69
  -6   6 -28    5.53    1.63
   6  -6  28    4.65    1.19
  -6  -6  28    7.63    2.04
  -6   6 -29   17.72    2.23
  -6  -6  29   17.20    2.67
  -6  -6  30   53.51    4.30
  -6   6 -30   55.12    3.66
  -6   6  31   11.10    2.27
  -6   6 -31   17.04    1.92
  -6  -6  31   14.51    2.15
  -6   6 -32    2.19    0.89
  -6   6  32    1.51    1.33
   6  -6  32    2.34    1.02
  -6  -6  32    1.91    1.17
  -6  -6  33   32.72    2.32
  -6  -6  33   29.39    2.66
   6  -6  33   37.93    2.56
  -7   0   0    2.74    1.61
   7   0   0    5.22    2.36
  -7   0   0    0.85    2.76
  -7   0   0    4.19    1.61
   0  -7   0    2.81    1.94
  -7   0  -1  850.33   29.92
  -7   0   1  841.69   29.96
   7   0   1  785.89   31.82
   7   0  -1  823.42   31.47
  -7   0   1  854.88   33.75
  -7   0  -1  839.03   28.82
  -7   0   1  872.59   28.90
   0  -7  -1  867.40   30.04
   0  -7   1  870.56   29.82
  -7   0  -2   13.48    2.46
  -7   0   2   11.91    2.44
   7   0   2   11.90    3.15
   7   0  -2   14.62    2.90
  -7   0   2   11.52    3.61
  -7   0   2    9.76    2.07
  -7   0  -2   12.77    2.30
   0  -7   2   13.28    2.50
   0  -7  -2   12.00    2.88
  -7   0  -3   54.61    4.82
  -7   0   3   50.68    4.91
  -7   0   3   60.92    6.34
   7   0  -3   48.81    5.05
  -7   0   3   46.45    6.05
  -7   0   3   56.38    4.43
  -7   0  -3   47.67    4.09
   0  -7  -3   54.47    4.88
   0  -7   3   53.01    4.62
  -7   0   4   35.67    4.01
  -7   0   4   51.01    5.72
   7   0  -4   34.53    4.21
  -7   0  -4   33.01    3.88
  -7   0   4   45.89    5.84
  -7   0  -4   37.89    5.42
  -7   0   4   38.02    3.66
  -7   0   4   42.10    4.44
   0  -7  -4   41.24    4.19
   0  -7   4   40.58    3.98
  -7   0   5  187.50   10.27
  -7   0   5  189.44   11.92
   7   0  -5  178.41   10.32
  -7   0  -5  191.19   10.04
  -7   0  -5  198.29   12.49
  -7   0   5  195.82   12.61
  -7   0  -5  192.13    9.94
  -7   0   5  203.18   10.73
  -7   0   5  202.06    9.47
   0  -7   5  207.60   10.05
   0  -7  -5  200.72   10.52
  -7   0   6   37.90    4.25
  -7   0   6   42.75    5.48
  -7   0  -6   49.37    4.55
  -7   0   6   49.44    6.02
  -7   0  -6   37.56    5.26
  -7   0   6   40.56    3.74
  -7   0  -6   39.75    4.08
  -7   0   6   42.01    4.55
   0  -7   6   46.55    4.27
   0  -7  -6   42.13    4.42
  -7   0   7   56.68    5.15
  -7   0   7   54.70    6.19
  -7   0  -7   51.12    4.80
  -7   0   7   55.56    6.38
  -7   0  -7   51.99    6.11
  -7   0  -7   54.84    4.79
  -7   0   7   54.96    5.40
  -7   0   7   54.83    4.44
   0  -7   7   54.07    4.08
  -7   0   7   56.89    4.93
  -7   0   8    1.41    1.33
  -7   0   8   -1.71    1.96
  -7   0  -8    1.02    1.31
  -7   0   8    3.36    2.16
  -7   0  -8    0.41    2.18
  -7   0   8    0.20    1.23
  -7   0  -8    2.11    1.41
  -7   0   8    0.87    1.49
  -7   0   8    1.26    1.30
   0  -7   8    1.42    1.09
  -7   0   9  178.98   10.35
  -7   0   9  204.60   12.99
  -7   0  -9  170.62    9.98
  -7   0   9  178.50   11.96
  -7   0  -9  189.74   12.10
  -7   0   9  186.60    9.19
  -7   0  -9  193.16    9.91
  -7   0   9  193.27   10.76
  -7   0   9  193.56   10.26
   0  -7   9  197.32    9.11
  -7   0  -9  185.49    8.72
  -7   0  10    7.26    2.84
  -7   0  10    8.02    2.31
  -7   0 -10    9.75    1.85
  -7   0  10    7.89    2.87
  -7   0 -10    9.83    2.91
  -7   0  10   12.18    2.33
  -7   0 -10    7.21    2.02
  -7   0  10    8.84    2.37
   0  -7  10    8.08    1.83
  -7   0  10    7.63    2.14
  -7   0  11  102.60    7.39
  -7   0  11  102.48    8.99
  -7   0  11   89.06    8.10
  -7   0 -11  100.27    8.38
   7   0 -11   98.06    6.90
  -7   0  11   94.32    5.98
  -7   0 -11   89.08    6.43
   0  -7  11   89.79    5.62
   0  -7  11   89.05    5.78
  -7   0  11   95.39    7.35
  -7   0  11  100.31    6.96
  -7   0 -11   91.05    5.71
  -7   0  12    0.94    1.73
  -7   0 -12    4.34    1.39
  -7   0  12    0.97    1.90
   7   0 -12   -0.25    2.15
  -7   0  12    0.81    1.85
  -7   0 -12    0.81    1.91
   0  -7 -12    2.25    1.21
  -7   0 -12    1.49    1.46
  -7   0  12    4.87    1.67
   0  -7  12    2.22    1.29
   0  -7  12    3.00    1.38
  -7   0  12    1.66    1.38
  -7   0  13   -2.00    1.96
  -7   0  13    0.96    1.46
  -7   0 -13   -0.20    1.16
  -7   0  13    0.40    1.64
  -7   0 -13   -0.40    1.70
   7   0 -13   -0.25    2.05
  -7   0  13    0.82    1.30
   0  -7 -13    1.19    1.06
  -7   0 -13    0.25    1.29
   0  -7  13   -0.34    1.33
  -7   0  13    1.13    1.29
   0  -7  13   -0.21    1.16
  -7   0  14   46.64    5.16
  -7   0  14   41.58    5.95
  -7   0  14   41.66    5.32
  -7   0 -14   37.63    5.09
   7   0 -14   37.30    4.27
  -7   0 -14   41.06    4.32
   0  -7 -14   36.73    3.34
   0  -7  14   36.12    3.29
   0  -7  14   45.41    4.07
  -7   0  14   39.19    3.89
  -7   0  14   37.65    4.37
  -7   0 -14   40.19    3.74
  -7   0 -15    1.27    1.25
  -7   0  15    1.35    1.82
  -7   0  15    0.77    1.50
  -7   0 -15    1.15    1.62
   7   0 -15    0.50    1.78
   0  -7 -15    1.45    1.04
  -7   0  15    0.42    1.49
  -7   0  15    0.30    1.52
   0  -7  15    0.18    0.99
   0  -7  15    1.08    1.35
  -7   0  16    3.10    1.91
  -7   0 -16    1.10    1.44
  -7   0  16    1.11    1.31
   7   0 -16    0.77    1.71
  -7   0 -16    1.11    1.52
   0  -7 -16    0.93    1.10
  -7   0  16    1.88    1.35
   0  -7  16    1.34    1.11
   0  -7  16    2.67    1.41
  -7   0  16    2.73    1.79
  -7   0 -17   12.04    2.42
  -7   0  17   13.76    3.22
  -7   0 -17   12.13    3.00
   7   0 -17   11.74    2.88
  -7   0  17   12.71    2.35
  -7   0  17   11.72    2.75
   0  -7  17   14.60    2.28
   0  -7  17   13.61    2.56
  -7   0 -18    1.41    1.49
  -7   0  18    0.72    2.21
   7   0 -18    2.88    2.10
  -7   0  18    2.49    1.49
   0  -7  18    1.66    1.28
  -7   0  18    1.57    1.74
   0   7 -19  145.44    9.15
  -7   0  19  133.35   11.64
  -7   0  19  137.52    9.81
   7   0 -19  150.86    8.79
  -7   0  19  130.62    7.52
  -7   0  19  134.20    9.03
  -7   0 -19  132.57    8.01
   0  -7  19  128.65    7.52
  -7   0  20   53.27    5.93
  -7   0  20   39.29    6.44
   0   7 -20   38.22    4.83
   7   0 -20   43.92    4.79
   0  -7 -20   35.61    4.22
   0  -7  20   44.93    4.14
  -7   0 -20   48.16    4.63
  -7   0  20   57.17    5.60
  -7   0 -21   -0.51    1.50
  -7   0  21    1.21    2.02
  -7   0  21    3.39    2.18
   0   7 -21    0.92    1.73
   7   0 -21    0.27    2.43
   0  -7 -21    0.27    1.45
   0  -7  21    0.23    1.17
  -7   0  21    0.33    1.76
  -7   0 -22   10.85    2.58
  -7   0  22    9.78    3.96
  -7   0  22    9.11    3.02
   0   7 -22   13.91    3.22
   7   0 -22   12.36    3.01
   0  -7 -22   14.28    2.83
   0  -7  22   15.65    2.60
  -7   0  22   13.75    3.11
   0  -7  22   14.67    2.91
   0   7 -23  557.43   22.95
  -7   0  23  539.89   27.68
  -7   0  23  581.63   24.46
   7   0 -23  604.41   22.58
   0  -7 -23  500.87   21.74
   0  -7  23  580.25   21.93
  -7   0  23  601.76   23.68
  -7   0 -23  590.09   22.36
   0  -7  23  580.20   21.71
   0   7 -24  365.16   16.85
  -7   0  24  319.07   20.37
  -7   0  24  390.61   18.25
   7   0 -24  375.93   16.22
   0  -7 -24  348.01   15.84
   0  -7  24  367.66   15.66
  -7   0 -24  381.99   16.35
  -7   0  24  383.86   17.28
   0  -7  24  357.37   15.39
  -7   0  25  299.61   19.39
  -7   0  25  363.96   17.26
   0   7 -25  338.69   15.96
   7   0 -25  366.22   15.52
   0  -7 -25  305.03   14.73
  -7   0  25  353.30   16.43
  -7   0 -25  342.82   15.33
   0  -7  25  351.40   14.87
  -7   0  26   27.15    4.37
   0   7 -26   28.67    4.18
   7   0 -26   26.04    3.82
   0  -7 -26   21.51    3.38
   0  -7  26   26.21    3.44
  -7   0  26   25.68    3.98
  -7   0  27  298.95   15.04
   0   7 -27  293.01   13.93
   7   0 -27  286.47   13.31
   0  -7 -27  238.82   12.36
  -7   0  27  270.07   13.79
   0  -7  27  293.65   12.90
   0   7 -28   82.14    6.61
  -7   0  28   75.61    6.83
   7   0 -28   69.57    5.78
   0  -7 -28   59.49    5.24
  -7   0  28   73.79    6.34
   0  -7  28   77.68    5.74
   0   7 -29  272.29   13.05
  -7   0  29  283.04   14.08
   7   0 -29  270.47   12.37
   0  -7 -29  224.55   11.31
  -7   0 -29  229.01   11.45
  -7   0  29  281.12   13.19
   0  -7  29  270.67   12.04
   7   0 -30   24.43    3.44
   0   7 -30   25.13    3.73
  -7   0  30   25.97    4.00
   0  -7 -30   22.80    3.15
   0  -7  30   24.40    3.10
  -7   0  30   23.59    3.50
   7   0 -31    2.35    1.73
   0   7 -31    1.94    1.90
  -7   0  31   -0.29    2.24
  -7   0  31    0.97    1.52
   0  -7  31    0.20    1.29
   0  -7 -31    0.58    1.18
   7   0 -32   56.85    4.72
   0   7 -32   57.02    5.02
  -7   0  32   62.03    5.56
  -7   0  32   60.96    5.02
   0  -7  32   54.63    4.40
  -7   0  33   16.42    2.89
   0   7 -33   11.74    2.61
   7   0 -33    7.79    2.26
  -7   0  33    9.04    2.31
  -7   0  33   15.78    2.54
   0  -7  33   13.62    2.28
  -7   0  34   67.90    5.27
   0   7 -34   59.67    4.64
   7   0 -34   58.96    4.50
  -7   0  34   67.35    4.72
   0  -7  34   61.51    4.29
  -7   0  35  128.56    6.98
   0   7 -35  116.69    6.28
  -7   0  35  104.77    5.89
   0  -7  35  116.63    5.82
  -7   0  36   14.88    2.30
   0   7 -36   16.39    2.22
  -7   0  36    7.81    1.57
   0  -7  36   13.05    1.83
  -7   0  36   10.52    1.70
  -7   0  37   10.82    1.91
   0   7 -37   11.89    1.74
  -7   0  38    3.78    1.06
   0   7 -38    3.72    0.96
  -7   1  38    0.38    0.70
  -7   1  37   34.25    2.92
  -1   7 -37   35.76    2.72
  -7   1  36   12.29    2.05
  -1   7 -36   12.25    1.87
  -7   1  35   47.36    3.98
  -1   7 -35   40.14    3.46
  -7   1  35   31.15    3.33
  -7   1  35   37.52    2.99
   7  -1  35   32.28    2.41
  -1  -7  35   44.16    3.32
  -7   1  34    0.64    1.47
   7   1 -34    1.79    1.33
  -1   7 -34    0.89    1.36
  -7   1  34   -0.41    1.32
  -7   1  34   -0.15    1.16
  -1  -7  34   -0.15    0.98
  -1   7 -33   19.04    2.96
   7   1 -33   24.65    2.99
  -7   1  33   25.81    3.56
  -1  -7  33   29.36    3.07
   1  -7 -33   21.23    2.62
  -7   1  33   25.39    2.92
  -7   1  32    5.76    2.14
   7   1 -32    2.14    1.64
  -7  -1 -32    5.75    1.64
  -1  -7  32    4.51    1.71
  -7   1  32    5.67    1.82
  -7   1  31   73.63    6.17
   7   1 -31   66.90    5.18
  -7  -1 -31   63.16    5.02
  -1  -7  31   63.84    4.98
  -7   1  31   77.35    5.64
  -7   1  30   93.10    7.22
   7   1 -30   85.90    6.23
  -7  -1 -30   91.56    6.36
  -7   1  30   99.22    6.80
  -1  -7  30   98.86    6.34
  -7   1  29   26.18    4.10
   7   1 -29   21.41    3.27
  -7  -1 -29   27.55    3.51
  -7   1  29   21.80    3.35
  -1  -7  29   24.26    3.18
  -7   1  28   25.06    4.11
   7   1 -28   22.12    3.42
  -7  -1 -28   19.39    3.22
  -7   1  28   25.31    3.71
  -1  -7  28   22.55    3.16
  -7   1  27  129.95    9.30
   7   1 -27  140.62    8.45
  -7  -1 -27  134.17    8.48
  -7   1  27  153.48    9.23
  -1  -7  27  130.83    7.91
  -7  -1 -27  132.66    8.48
   7   1 -26  150.22    9.01
  -7   1  26  165.09   10.62
  -7   1  26  171.12   10.03
  -7  -1 -26  152.48    9.24
  -1  -7  26  154.43    8.80
   7   1 -25   99.14    7.02
  -7   1  25  108.55    8.34
  -7   1  25   88.87    9.63
  -7   1  25   95.98    7.45
  -7  -1 -25   95.13    7.03
  -1  -7  25   89.44    6.48
   7   1 -24   72.98    5.99
  -7   1  24   62.89    6.44
  -7   1  24   52.93    7.46
  -1  -7  24   61.94    5.23
  -7   1  24   60.53    6.00
  -7  -1 -24   66.18    5.78
   7   1 -23   18.59    3.38
  -7  -1 -23   17.52    3.09
  -7   1  23   14.46    3.93
  -7   1  23   15.93    3.51
  -1  -7  23   19.13    2.93
  -7   1  23   23.27    3.76
   7   1 -22   86.93    6.48
  -1   7 -22   66.52    6.19
  -7   1  22   77.36    8.77
  -7   1  22   79.14    7.15
  -7   1  22   79.12    6.65
  -7  -1 -22   65.95    5.70
  -1  -7  22   66.16    5.35
   7   1 -21   64.83    5.61
  -7   1  21   56.01    7.65
  -1   7 -21   60.40    5.71
  -7   1  21   59.54    6.20
  -7   1  21   52.83    5.55
  -7  -1 -21   52.29    5.01
  -1  -7  21   56.22    4.84
  -1   7 -20    5.38    2.40
   7   1 -20    7.14    2.54
  -7  -1 -20    8.25    2.28
  -7   1  20    6.45    3.39
  -7   1  20    8.36    2.82
  -1  -7  20    8.41    2.09
  -7   1  20    6.99    2.47
  -1  -7  20    7.55    1.92
  -7  -1 -19    5.34    1.92
  -7   1  19    4.04    2.55
  -7   1  19    3.95    2.43
  -1   7 -19    4.44    2.07
   7   1 -19    1.83    1.93
  -7  -1 -19    3.88    1.85
  -1  -7  19    3.77    1.60
  -7   1  19    3.77    2.03
  -1  -7  19    4.00    1.65
  -7   1  18  321.25   15.86
  -7   1  18  309.75   18.59
   7   1 -18  312.01   14.21
  -1  -7  18  315.04   13.65
  -7  -1 -18  300.44   14.15
  -7  -1 -18  325.23   14.37
  -7   1  18  319.57   15.17
  -7  -1 -18  306.38   13.68
  -1  -7  18  288.23   13.11
  -7   1  17  114.06    8.55
  -7   1  17   98.10    9.91
   7   1 -17  121.46    7.75
  -7  -1 -17  110.57    7.45
  -1  -7  17  113.87    6.97
  -7  -1 -17  106.63    7.32
  -7   1  17  112.92    7.99
  -7  -1 -17  108.60    7.01
  -1  -7  17  107.46    6.61
  -7   1  16   26.39    4.07
  -7  -1 -16   27.71    4.26
  -7   1  16   29.14    4.40
   7   1 -16   30.49    3.96
  -7  -1 -16   26.77    3.44
  -1  -7  16   28.22    3.30
  -7  -1 -16   29.57    3.65
   1  -7 -16   23.16    2.78
  -7   1  16   29.07    4.03
  -7  -1 -16   33.55    3.53
  -1  -7  16   29.00    3.17
  -7   1  15   31.72    4.28
  -7  -1 -15   33.13    4.92
  -7   1  15   35.22    4.84
   7   1 -15   33.32    4.10
  -7  -1 -15   33.35    3.84
  -7  -1 -15   37.71    4.11
  -1  -7  15   35.55    3.65
  -7   1  15   39.96    4.51
  -7  -1 -15   40.00    3.84
  -7   1  14  386.45   18.10
  -7  -1 -14  409.61   19.80
  -7   1  14  402.99   19.60
   7   1 -14  469.30   17.77
  -1  -7  14  410.77   16.35
  -1  -7  14  413.44   15.72
  -7  -1 -14  420.47   17.20
  -7  -1 -14  421.82   17.22
  -7   1  14  398.72   16.09
  -7   1  14  445.30   18.32
  -7  -1 -14  421.00   16.45
  -7   1  13  170.01    9.96
  -7   1  13  161.21   10.94
  -7  -1 -13  149.12   10.67
   7   1 -13  174.51    9.33
  -7  -1 -13  150.55    8.53
  -1  -7  13  149.18    8.02
  -1  -7  13  144.04    7.58
  -7   1  13  151.36    8.00
  -7  -1 -13  167.72    9.00
  -7   1  13  179.89    9.82
  -7  -1 -13  154.55    8.12
  -7   1  12  146.01    9.15
  -7   1  12  131.91   10.78
  -7   1  12  136.31   10.09
  -7  -1 -12  139.74   10.13
   7   1 -12  140.14    8.38
  -7  -1 -12  138.38    7.87
  -7   1  12  133.42    7.34
  -1  -7  12  126.27    6.95
  -7  -1 -12  141.25    8.10
  -1  -7  12  129.96    7.25
  -7   1  12  133.91    8.42
  -7  -1 -12  135.26    7.26
  -7   1  11    1.95    2.23
  -7   1  11    2.10    1.50
  -7  -1 -11    4.21    1.39
  -7  -1 -11    3.71    2.23
   7   1 -11    5.95    2.32
  -7   1  11    2.12    2.06
  -7  -1 -11    2.79    1.56
  -7   1  11    2.88    1.49
  -1  -7  11    2.08    1.31
  -7   1  11    6.76    2.17
  -1  -7  11    1.48    1.14
  -7   1  10  111.58    7.68
  -7   1  10  106.77    9.53
  -7   1  10  109.67    9.06
  -7  -1 -10  114.96    9.10
   7   1 -10  118.39    7.40
  -7   1  10  112.60    6.50
  -1  -7  10  100.96    6.01
  -1  -7  10   94.92    5.88
  -7  -1 -10  113.64    6.98
  -7   1  10  106.32    7.21
  -7  -1 -10   97.67    5.90
  -7   1   9  123.00    7.96
  -7   1   9  110.65    9.70
  -7  -1  -9   98.87    7.07
  -7   1   9  121.71    9.68
  -7  -1  -9  126.52    9.68
   1  -7  -9  105.02    6.39
  -7   1   9  128.12    6.92
  -7  -1  -9  112.01    7.03
  -1  -7   9  113.12    6.45
  -1  -7   9  116.35    6.37
  -7   1   9  115.12    7.49
  -7  -1  -9  108.24    6.10
  -7   1   8  150.40    9.01
  -7  -1  -8  132.94    8.38
  -7   1   8  112.31    9.89
  -7  -1  -8  133.73   10.24
   1  -7  -8  143.98    7.57
  -7  -1  -8  131.88    8.02
  -1  -7   8  147.63    7.26
  -7   1   8  152.27    7.80
  -1  -7   8  140.27    7.35
  -7   1   8  154.27    9.46
  -7   1   8  138.10    8.41
  -7   1   7  237.20   11.92
  -7  -1  -7  242.02   11.83
  -7   1   7  247.52   14.60
  -7  -1  -7  253.97   14.47
   1  -7  -7  240.63   10.78
  -1  -7   7  232.76   10.45
  -1  -7   7  227.81   10.04
  -7  -1  -7  227.76   11.33
  -7   1   7  237.49   12.22
  -7   1   7  253.87   10.92
  -7   1   7  252.08   11.82
  -7   1   6   64.59    5.46
  -7  -1  -6   58.25    5.20
  -7   1   6   80.19    7.69
   1  -7  -6   64.03    4.79
  -7  -1  -6   64.65    6.92
  -7  -1  -6   66.45    5.29
  -7   1   6   78.03    6.15
  -1  -7   6   66.62    4.77
  -7   1   6   75.04    5.06
  -7   1   6   65.57    5.35
  -7   1   5   69.35    5.61
  -7  -1  -5   60.13    5.33
  -7   1   5   80.34    7.95
  -7  -1  -5   84.13    7.66
   1  -7  -5   83.69    5.37
  -7  -1  -5   62.17    5.20
  -7   1   5   84.95    6.38
  -1  -7   5   63.46    4.66
  -7  -1  -5   70.51    4.94
  -7   1   5   75.51    5.19
  -7   1   5   78.25    5.74
  -7  -1  -4    8.92    1.98
  -7  -1  -4   11.87    2.38
  -7   1   4   14.84    2.62
   1  -7  -4   16.22    2.46
  -7   1   4   20.49    4.35
  -7  -1  -4   17.66    3.76
  -7  -1  -4   11.66    2.02
  -7  -1  -4   13.73    2.44
  -1  -7   4   15.44    2.35
  -7   1   4   14.63    2.35
  -7   1   4   14.25    2.75
  -7   1   4   11.63    2.29
  -1  -7   4   15.08    2.56
   1  -7  -4   13.73    2.57
  -7  -1  -3    7.65    2.13
  -7  -1  -3   14.38    2.48
  -7   1   3    9.82    2.27
   7  -1   3    9.69    2.85
   1  -7  -3   14.88    2.32
  -7   1   3   11.58    3.61
  -7   1   3   10.21    2.10
  -7  -1  -3   12.15    2.33
  -1  -7   3   11.22    2.18
  -7   1   3   12.12    2.47
  -7   1   3   11.89    2.29
  -1  -7   3   13.21    2.48
   1  -7  -3   10.80    2.32
  -7  -1  -2   41.55    4.30
  -7   1   2   45.56    4.47
  -7  -1  -2   35.01    4.03
   7  -1   2   41.56    5.79
  -7   1   2   50.41    6.22
  -1  -7   2   40.94    3.72
  -7   1   2   43.18    4.41
  -7  -1  -2   44.84    4.35
  -7   1   2   47.88    3.98
  -1  -7   2   51.54    4.62
   1  -7  -2   48.74    4.52
  -7   1   2   42.68    4.07
  -7  -1  -1  143.21    8.55
  -7   1   1  153.28    8.65
  -7  -1  -1  137.75    8.76
   7  -1   1  149.44   10.68
  -7   1   1  159.00   11.26
  -1  -7   1  138.86    7.58
  -7   1   1  151.46    8.79
  -7  -1  -1  149.00    8.49
  -7   1   1  162.39    8.03
  -1  -7   1  149.49    8.45
   1  -7  -1  140.37    8.29
  -7  -1   0   37.76    4.01
  -7   1   0   31.63    3.62
  -7  -1   0   30.03    4.00
   7  -1   0   36.69    5.12
   1  -7   0   26.18    3.11
  -7   1   0   29.04    4.74
  -7  -1   0   26.65    4.74
  -7  -1   0   31.24    3.27
  -1  -7   0   32.22    3.29
  -7   1   0   36.36    4.00
  -7  -1   0   34.36    3.77
  -7  -1   0   32.92    3.53
  -1  -7   0   28.54    3.46
   1  -7   0   35.26    3.72
  -7   1  -1  150.13    8.47
  -7  -1   1  146.28    8.59
  -7  -1   1  135.10    8.98
   7  -1  -1  148.47   10.29
   1  -7   1  146.78    7.73
  -7  -1   1  148.60   10.88
  -7  -1   1  133.09    8.11
  -7   1  -1  160.78    8.76
  -7  -1   1  141.73    7.60
  -7  -1   1  147.16    8.14
   1  -7   1  138.68    8.11
  -1  -7  -1  152.26    8.52
  -7   1  -2   41.91    4.32
  -7  -1   2   46.97    4.60
  -7  -1   2   41.29    4.84
   7  -1  -2   52.37    5.81
   1  -7   2   50.96    5.35
  -7  -1   2   45.73    5.93
   1  -7   2   40.78    3.81
  -7  -1   2   48.86    4.66
  -7   1  -2   50.19    4.69
  -7  -1   2   46.54    4.01
  -7  -1   2   48.52    4.39
   1  -7   2   40.82    4.17
  -7   1  -3   17.71    2.77
  -7  -1   3   12.44    2.85
  -7  -1   3   14.04    2.55
   7   1   3    9.96    2.47
   7  -1  -3    9.82    2.80
   1  -7   3   14.64    3.06
   1  -7   3   12.52    2.20
  -7  -1   3   14.00    3.56
  -7  -1   3   12.49    2.17
  -1  -7  -3   10.85    2.00
  -7   1  -3   13.29    2.50
  -7  -1   3    8.66    2.25
  -7  -1   3   11.56    2.29
   1  -7   3   14.50    2.43
  -7  -1   4   12.24    2.91
  -7   1  -4   17.05    2.67
  -7  -1   4   17.98    2.96
   7  -1  -4   12.86    2.94
   1  -7   4   18.03    3.28
   1  -7   4   13.36    2.26
  -7   1  -4   10.20    3.38
  -7  -1   4   20.34    3.96
  -7   1  -4   16.45    2.70
  -7  -1   4   16.63    2.47
  -1  -7  -4   18.06    2.54
  -7  -1   4   17.89    2.92
  -7  -1   4   13.18    2.48
   1  -7   4   22.12    2.86
  -7  -1   5   67.92    5.70
  -7  -1   5   60.78    6.24
   1  -7   5   70.85    6.33
   7  -1  -5   61.06    6.17
  -7   1  -5   69.70    5.52
   1  -7   5   70.36    4.95
  -7   1  -5   72.08    7.38
  -7  -1   5   65.58    7.00
  -7   1  -5   59.42    5.05
  -7  -1   5   67.73    5.62
  -1  -7  -5   68.37    4.83
  -7  -1   5   73.40    5.08
  -7  -1   5   65.56    5.24
   1  -7   5   71.97    5.28
   1  -7   5   75.65    5.00
  -1  -7  -5   76.72    5.81
  -7  -1   6   68.55    5.79
  -7  -1   6   75.29    7.03
   1  -7   6   73.85    6.49
   7  -1  -6   69.42    6.49
  -7   1  -6   71.24    5.60
  -7  -1   6   60.56    6.78
  -7   1  -6   74.69    7.51
   1  -7   6   72.51    4.97
  -7  -1   6   73.85    5.17
  -7   1  -6   75.65    5.66
  -7  -1   6   69.80    5.81
  -1  -7  -6   67.59    4.85
  -7  -1   6   71.36    5.54
   1  -7   6   68.58    4.83
   1  -7   6   68.47    5.13
  -1  -7  -6   66.12    5.57
  -7  -1   7  257.73   12.46
  -7  -1   7  250.50   14.13
   1  -7   7  259.24   13.24
   7  -1  -7  241.98   13.11
  -7   1  -7  235.14   11.51
  -7   1  -7  257.99   14.82
  -7  -1   7  257.74   14.48
   1  -7   7  235.71   10.59
  -7   1  -7  255.45   11.71
  -1  -7  -7  230.08   10.47
  -7  -1   7  250.70   12.33
  -7  -1   7  229.71   10.74
  -7  -1   7  248.06   11.73
   1  -7   7  232.21   10.67
   1  -7   7  235.35   11.14
  -7   1  -7  222.99   10.13
  -1  -7  -7  219.64   11.64
  -7  -1   8  149.87    9.05
  -7  -1   8  141.54   10.42
   1  -7   8  150.53    9.61
  -7   1  -8  139.72    8.44
  -7   1  -8  145.10   10.63
   1  -7   8  135.80    7.48
  -7  -1   8  151.64   10.71
  -7  -1   8  159.53    8.03
  -7   1  -8  139.06    8.12
  -7  -1   8  156.99    9.18
  -1  -7  -8  130.27    7.26
  -1  -7  -8  129.22    7.72
  -7  -1   8  136.38    8.37
   1  -7   8  142.41    7.64
  -1  -7  -8  146.55    8.88
  -7   1  -8  131.99    7.13
  -7  -1   9  103.72    7.68
  -7  -1   9  120.16    9.65
   1  -7   9  129.16    8.80
  -7   1  -9  122.71    7.73
  -7   1  -9  134.04    9.88
   1  -7   9  108.94    6.49
  -7  -1   9  127.34    9.69
  -1  -7  -9  112.23    6.51
  -7  -1   9  122.79    7.01
  -7   1  -9  124.94    7.50
  -7   1  -9  123.51    7.44
  -7  -1   9  112.49    7.89
  -1  -7  -9  102.44    6.87
  -1  -7  -9  126.84    8.11
  -7   1  -9  118.26    6.60
   1  -7   9  117.31    6.79
  -7  -1  10  116.62    7.89
  -7  -1  10  106.39    9.15
   1  -7  10  105.86    8.14
  -7   1 -10  111.79    9.09
  -7  -1  10  106.41    8.89
  -7   1 -10  107.36    6.96
  -1  -7 -10   97.79    6.61
  -1  -7 -10   90.56    5.85
  -7  -1  10  107.11    6.57
  -7   1 -10  115.76    7.16
  -7  -1  10  104.34    7.57
   1  -7  10  119.00    6.71
  -7   1 -10  101.12    6.15
  -1  -7 -10  101.83    7.33
  -7   1 -11    1.34    1.26
  -7  -1  11    2.34    2.27
  -7  -1  11    2.78    1.79
   1  -7  11    4.29    2.07
  -7  -1  11    4.11    2.22
  -7   1 -11    4.16    2.30
  -1  -7 -11    1.62    1.28
  -7  -1  11    1.88    1.26
  -7   1 -11    1.92    1.58
  -7   1 -11    4.35    1.69
  -1  -7 -11    3.30    1.40
  -7  -1  11    0.31    1.61
   1  -7  11    2.26    1.38
  -1  -7 -11    2.55    1.80
  -7  -1  12  134.92    8.98
  -7  -1  12  124.89   10.39
   1  -7  12  148.64    9.63
  -7   1 -12  130.52    9.77
  -7  -1  12  141.15   10.04
  -7   1 -12  137.70    8.13
  -7  -1  12  134.48    7.55
  -1  -7 -12  120.80    6.81
  -1  -7 -12  117.27    7.63
  -7  -1  12  130.46    8.81
  -7   1 -12  127.49    7.83
  -7   1 -12  125.47    7.25
   1  -7  12  135.35    7.51
  -1  -7 -12  137.43    8.68
  -7  -1  13  174.11   10.26
  -7  -1  13  141.04   11.58
  -7  -1  13  156.59   10.77
  -7   1 -13  162.24   10.98
  -7  -1  13  150.39    8.31
  -1  -7 -13  143.27    7.51
  -1  -7 -13  148.00    8.72
  -7   1 -13  161.55    8.99
  -7  -1  13  159.36    9.98
  -7   1 -13  163.52    8.97
  -7   1 -13  147.04    8.09
   1  -7  13  162.60    8.49
  -1  -7 -13  157.54    9.47
  -7  -1  14  409.78   18.46
  -7  -1  14  400.77   21.16
  -7   1 -14  416.28   19.58
  -7  -1  14  381.26   19.21
  -1  -7 -14  395.71   17.03
  -7  -1  14  418.93   16.57
  -1  -7 -14  354.38   15.08
  -7   1 -14  423.49   17.30
   1  -7  14  442.14   16.74
  -7   1 -14  469.67   17.67
  -7   1 -14  421.04   16.44
  -7  -1  14  418.32   17.88
  -7  -1  15   38.47    4.80
  -7  -1  15   36.49    5.74
  -7   1 -15   37.16    4.94
  -7  -1  15   31.86    4.66
  -7   1 -15   32.48    3.90
  -7  -1  15   33.57    3.63
   1  -7  15   39.29    3.92
  -1  -7 -15   29.47    3.00
  -7   1 -15   39.65    4.22
  -1  -7 -15   30.78    3.80
  -7   1 -15   33.43    3.69
  -7  -1  15   32.84    4.24
  -7  -1  16   25.43    5.02
  -7  -1  16   30.34    4.44
  -7   1 -16   26.73    4.29
  -7  -1  16   21.20    3.76
  -1  -7 -16   23.45    2.65
  -7  -1  16   24.15    3.20
  -7   1 -16   26.86    3.67
  -1  -7 -16   26.89    3.65
  -7  -1  16   35.72    4.33
  -7   1 -16   34.64    3.71
  -7  -1  17  129.67   11.19
  -7  -1  17  116.53    8.62
  -1  -7 -17   94.82    7.29
  -7  -1  17  110.85    6.92
  -7   1 -17  122.44    7.87
  -7  -1  17  112.88    8.10
  -7   1 -17  117.28    7.22
  -7   1 -18  323.73   14.49
  -7  -1  18  315.76   13.61
  -1  -7 -18  309.04   14.57
  -7  -1  18  306.21   15.01
  -7   1 -18  288.43   13.48
  -7   1 -19    4.85    1.94
   1   7 -19    3.60    2.04
  -7  -1  19    2.45    1.58
  -1  -7 -19    4.40    1.96
   1  -7  19    4.06    1.97
  -7  -1  19    4.88    2.10
  -7   1 -20   10.64    2.47
   1   7 -20    6.08    2.38
  -1  -7 -20    5.97    2.34
  -7  -1  20    4.86    1.85
   1  -7  20    6.97    2.13
   1  -7  20    6.17    1.70
  -7  -1  20    7.58    2.43
   1   7 -21   57.68    5.59
   1  -7  21   47.77    4.63
  -7  -1  21   61.29    4.89
  -1  -7 -21   47.75    5.17
  -7  -1  21   52.18    5.62
  -7   1 -21   53.39    4.93
   1  -7  21   55.74    4.71
   1   7 -22   80.35    6.70
  -7  -1  22   69.15    8.72
  -1  -7 -22   68.72    6.20
   1  -7  22   75.83    5.78
  -7  -1  22   68.10    5.25
  -7  -1  22   74.19    6.65
  -7   1 -22   75.02    5.97
   1  -7  22   66.65    5.32
  -7  -1  23   17.53    4.52
   1   7 -23   18.89    3.50
  -1  -7 -23   14.88    3.08
  -7  -1  23   16.99    2.63
   1  -7  23   19.55    2.93
  -7  -1  23   14.68    3.30
   1  -7  23   18.08    2.97
   1   7 -24   61.40    5.90
  -7  -1  24   56.91    7.68
   1  -7  24   65.29    5.32
  -1  -7 -24   52.28    5.40
  -7  -1  24   63.25    6.06
   1  -7  24   58.06    4.90
   1   7 -25   93.08    7.26
  -7  -1  25   78.88    9.47
  -1  -7 -25   88.72    7.01
   1  -7  25  103.69    6.69
  -7  -1  25   99.62    7.72
  -1  -7 -25   82.61    6.66
   1  -7  25   94.36    6.42
   1   7 -26  157.66    9.71
   1  -7  26  157.36    8.69
  -1  -7 -26  143.77    9.26
  -7  -1  26  151.14    9.83
   1  -7  26  157.55    8.62
  -1  -7 -26  148.50    9.01
   1   7 -27  132.87    8.73
  -1  -7 -27  123.66    8.29
  -7  -1  27  144.03    9.23
   1  -7  27  136.76    7.82
  -1  -7 -27  114.44    7.63
   1   7 -28   21.44    3.67
  -1  -7 -28   23.30    3.50
  -7  -1  28   32.99    4.20
  -7   1 -28   26.29    3.62
   1  -7  28   23.08    3.16
  -1  -7 -28   24.31    3.17
  -7   1 -29   21.36    3.25
   1   7 -29   18.91    3.40
  -1  -7 -29   19.15    3.06
  -7  -1  29   26.34    3.81
   1  -7  29   27.13    3.22
   1   7 -30   89.76    6.60
  -1  -7 -30   71.44    5.80
  -7  -1  30   81.92    6.30
  -7  -1  30   86.04    6.69
  -7   1 -30   86.96    6.17
   1  -7  30   90.03    5.91
   1   7 -31   79.75    5.98
   7  -1 -31   76.46    5.51
  -1  -7 -31   60.74    4.97
  -7  -1  31   54.96    5.09
  -7  -1  31   68.08    5.62
  -7   1 -31   70.68    5.41
   1  -7  31   75.03    5.19
   1   7 -32    4.21    1.96
   7  -1 -32    3.89    1.77
  -7  -1  32    2.88    1.58
  -1  -7 -32    5.13    1.61
   1  -7  32    3.02    1.47
  -7  -1  32    4.17    1.86
   1   7 -33   25.65    3.28
   7  -1 -33   20.51    2.88
  -1  -7 -33   21.78    2.65
  -7  -1  33   27.06    3.38
   1  -7  33   24.89    2.79
   1   7 -34    0.36    1.43
   7  -1 -34    0.82    1.22
  -1  -7 -34   -0.26    0.95
   1  -7  34    0.29    0.98
  -7  -1  34    0.37    1.16
   1   7 -35   41.60    3.61
  -7  -1  35   46.58    3.76
   1  -7  35   44.22    3.31
   1   7 -36    6.47    1.63
  -7  -1  36    7.58    1.81
  -7  -1  36   10.11    1.71
   1  -7  36    6.66    1.37
  -7  -1  37   31.60    2.88
   1   7 -37   34.20    2.73
  -7  -1  37   30.41    2.58
   1  -7  37   29.09    2.34
  -7  -1  38    1.42    0.81
   1   7 -38    0.74    0.70
  -7   2  37   83.04    4.28
  -2   7 -37   84.35    3.88
  -7   2  36   32.82    2.81
  -2   7 -36   29.21    2.51
  -7   2  36   19.49    2.51
   7  -2  36   23.90    1.91
  -2  -7  36   23.15    2.28
  -7   2  35   66.61    4.48
  -2   7 -35   62.80    4.07
  -7   2  35   49.49    4.20
  -7  -2 -35   47.30    3.52
   7  -2  35   60.25    3.39
  -2   7 -34   52.58    4.02
  -7  -2 -34   41.23    3.50
   2  -7 -34   44.77    3.63
  -7   2  33    2.15    1.59
  -2   7 -33    2.47    1.52
   7   2 -33    0.98    1.36
  -7  -2 -33    2.40    1.33
  -2   7 -32   45.38    4.16
  -7   2  32   48.71    4.64
   7   2 -32   44.99    3.97
  -7  -2 -32   41.25    3.98
  -7   2  32   40.32    3.68
  -2  -7  32   45.39    4.00
  -2   7 -31   39.96    4.30
  -7   2  31   57.54    5.14
   7   2 -31   47.95    4.24
  -7  -2 -31   48.12    4.54
  -7   2  31   52.17    4.25
  -2  -7  31   49.04    4.24
  -2   7 -30   51.60    4.78
  -7   2  30   52.32    5.18
   7   2 -30   49.19    4.46
  -7  -2 -30   48.84    4.70
  -7   2  30   56.40    4.72
  -2  -7  30   45.17    4.29
  -7   2  29   15.15    3.27
  -2   7 -29   12.82    2.77
   7   2 -29   14.15    2.57
  -7  -2 -29   11.65    2.64
  -2  -7  29   16.97    2.76
  -7   2  29   11.46    2.47
  -7   2  28  168.65   10.21
  -2   7 -28  153.79    9.16
   7   2 -28  156.30    8.80
  -7  -2 -28  155.79    9.44
  -7   2  28  170.95    9.37
  -2  -7  28  154.60    8.71
  -7   2  27   10.41    2.98
  -2   7 -27    7.31    2.57
   7   2 -27    6.89    2.34
  -7  -2 -27    8.65    2.69
  -2  -7  27    8.15    2.19
  -7   2  27    8.82    2.41
  -7   2  26    1.34    2.13
  -2   7 -26    3.91    2.06
   7   2 -26    1.96    1.83
  -7  -2 -26    4.18    1.96
  -2  -7  26    2.21    1.53
  -7   2  26    5.88    2.17
  -2   7 -25   32.04    4.20
  -7   2  25   25.80    4.28
   7   2 -25   25.39    3.71
  -7  -2 -25   30.99    4.14
  -7   2  25   34.85    4.23
  -2  -7  25   25.55    3.47
  -7   2  24  167.91   10.81
  -7   2  24  171.08   13.38
  -2   7 -24  169.28   10.11
   7   2 -24  182.46    9.83
  -7  -2 -24  181.99   10.59
  -7   2  24  178.69   10.36
  -2  -7  24  179.04    9.64
  -7   2  23   63.65    6.35
  -2   7 -23   60.32    5.80
  -7   2  23   66.26    8.17
   7   2 -23   70.43    5.80
  -7  -2 -23   75.02    6.45
  -7   2  23   83.51    6.56
  -2  -7  23   68.81    5.53
  -7   2  22   20.11    4.81
  -7   2  22   17.01    3.51
  -2   7 -22   20.27    3.47
   7   2 -22   19.23    3.26
  -7  -2 -22   16.38    3.22
  -2  -7  22   17.75    2.91
  -7  -2 -22   20.56    3.36
  -7   2  22   16.60    3.22
  -7   2  21  219.82   12.49
  -2   7 -21  206.01   11.35
  -7   2  21  184.86   14.50
   7   2 -21  225.25   11.22
  -7  -2 -21  211.34   11.73
  -7   2  21  241.01   12.33
  -7  -2 -21  206.56   10.96
  -2  -7  21  202.62   10.64
  -7   2  20  728.89   28.01
  -7   2  20  640.42   31.14
  -2   7 -20  671.72   26.30
   7   2 -20  705.98   25.89
  -7  -2 -20  718.03   27.01
  -7   2  20  724.86   27.16
  -2  -7  20  673.76   25.26
  -7  -2 -20  718.74   25.98
  -7   2  19  101.74    8.02
  -7   2  19   80.85    9.27
  -2   7 -19   95.44    7.19
   7   2 -19  107.73    7.20
  -7  -2 -19   98.98    7.46
  -7   2  19  105.04    7.62
  -2  -7  19   97.04    6.56
  -7  -2 -19  106.19    6.97
  -7   2  18  169.38   10.48
  -2   7 -18  163.81    9.64
  -7   2  18  167.25   13.05
   7   2 -18  165.75    9.31
  -7  -2 -18  170.81    9.93
  -7   2  18  164.65    9.95
  -7  -2 -18  157.76    8.95
  -2   7 -18  150.75    7.88
  -2  -7  18  159.45    8.69
  -7   2  17  136.04    9.21
  -7   2  17  120.88   10.93
   7   2 -17  133.02    8.08
  -7  -2 -17  127.04    8.30
  -7  -2 -17  127.47    7.85
  -7   2  17  134.49    8.67
  -7  -2 -17  125.18    7.63
  -2  -7  17  109.45    7.05
  -2   7 -17  115.21    6.68
  -7  -2 -16   16.43    2.66
  -7   2  16   24.39    4.79
  -7   2  16   18.81    3.48
  -7  -2 -16   12.60    3.19
  -7   2  16   23.66    3.90
   7   2 -16   18.48    3.13
  -7  -2 -16   16.55    2.98
  -7  -2 -16   22.01    3.17
  -2  -7  16   20.27    2.89
  -2   7 -16   18.24    2.47
  -7   2  16   18.14    3.29
  -2  -7  16   16.38    2.48
  -7   2  15  238.39   12.92
  -7   2  15  253.99   16.01
  -7  -2 -15  208.07   13.46
  -7   2  15  251.41   14.19
   7   2 -15  260.46   11.99
  -7  -2 -15  232.56   11.50
  -2  -7  15  239.67   11.05
  -7  -2 -15  230.11   12.05
  -7   2  15  249.23   12.54
  -7  -2 -15  248.35   11.30
  -2   7 -15  235.73   10.65
  -7   2  14   55.39    5.66
  -7   2  14   74.85    8.14
  -7  -2 -14   56.87    6.41
  -7   2  14   59.80    6.53
   2  -7 -14   59.68    4.48
   7   2 -14   56.41    5.05
  -2  -7  14   63.46    4.56
  -7  -2 -14   59.96    5.39
  -7  -2 -14   54.74    4.93
  -2  -7  14   56.45    4.58
  -7   2  14   59.03    5.52
  -7  -2 -14   54.95    4.59
  -2   7 -14   56.55    4.53
  -7   2  13  169.49    9.98
  -7   2  13  138.39   10.73
   2  -7 -13  144.69    7.72
   7   2 -13  163.66    8.90
  -7  -2 -13  154.79   11.07
  -2  -7  13  147.39    7.91
  -2  -7  13  144.88    7.67
  -7  -2 -13  135.80    8.55
  -7  -2 -13  144.97    8.43
  -7   2  13  168.31    9.52
  -7  -2 -13  153.43    8.05
  -2   7 -13  151.12    7.92
  -7   2  12  631.31   24.12
  -7   2  12  595.37   26.16
   2  -7 -12  574.68   21.38
  -7  -2 -12  567.66   25.67
   7   2 -12  628.18   22.79
  -7  -2 -12  615.90   23.12
  -2  -7  12  588.90   21.42
  -2  -7  12  582.02   21.42
  -7  -2 -12  592.27   22.83
  -7  -2 -12  607.32   22.39
  -7   2  12  676.27   23.95
  -7  -2 -12  571.49   21.36
  -2   7 -12  609.64   21.85
  -7   2  11  193.50   10.68
  -7   2  11  183.52   12.35
   2  -7 -11  178.30    9.03
  -7  -2 -11  192.53   12.61
   7   2 -11  196.86   10.11
  -7  -2 -11  200.15   10.30
  -2  -7  11  191.94    9.08
  -2  -7  11  176.42    8.76
  -7  -2 -11  177.24    9.86
  -7  -2 -11  187.61    9.70
  -7   2  11  201.15   10.62
  -7  -2 -11  188.75    9.03
  -2   7 -11  197.18    9.52
  -7   2  10   38.17    4.37
  -7   2  10   41.08    5.65
   2  -7 -10   53.80    4.26
  -7  -2 -10   43.63    5.82
   7   2 -10   45.62    4.49
  -7  -2 -10   43.89    4.12
  -7  -2 -10   32.21    3.74
  -2  -7  10   41.57    3.76
  -2  -7  10   39.45    3.44
  -7  -2 -10   38.97    4.08
  -7   2  10   38.17    4.32
  -7  -2 -10   34.68    3.31
  -7   2   9   40.34    4.40
  -7   2   9   46.36    5.89
   2  -7  -9   39.33    3.77
  -7  -2  -9   35.87    5.19
  -7  -2  -9   39.89    4.16
  -7  -2  -9   48.73    4.36
  -7  -2  -9   41.14    4.09
  -2  -7   9   37.83    3.36
  -2  -7   9   42.10    3.71
  -7   2   9   41.51    4.77
  -7   2   9   34.78    3.38
  -7   2   9   45.66    4.53
   7  -2   9   38.52    3.63
  -7   2   8   54.44    5.29
  -7  -2  -8   57.26    5.20
  -7   2   8   63.95    7.12
   2  -7  -8   64.35    4.84
  -7  -2  -8   72.53    7.30
  -7  -2  -8   63.11    5.24
  -7   2   8   74.88    6.34
  -2  -7   8   60.62    4.25
  -2  -7   8   64.52    4.77
  -7   2   8   65.26    4.66
  -7  -2  -8   62.51    5.03
  -7  -2  -8   59.57    5.01
  -7   2   8   67.13    5.55
   7  -2   8   69.74    4.90
  -7   2   7   93.46    6.82
  -7  -2  -7   90.31    6.64
  -7   2   7  102.36    8.95
   2  -7  -7  109.44    6.53
  -7  -2  -7  100.08    8.78
  -7  -2  -7  101.88    6.82
  -7   2   7  112.33    7.63
  -7  -2  -7   98.25    6.43
  -2  -7   7   96.10    5.99
  -7  -2  -7  107.34    6.26
  -2  -7   7   94.75    5.46
  -7   2   7  102.60    6.97
   7  -2   7   99.86    6.26
  -7   2   6   54.44    4.96
  -7  -2  -6   45.77    4.53
  -7   2   6   54.96    6.64
   2  -7  -6   54.63    4.48
  -7  -2  -6   49.46    6.14
  -7  -2  -6   58.78    4.92
  -2  -7   6   51.25    4.17
  -7   2   6   54.20    5.24
  -7  -2  -6   50.47    4.22
  -7   2   6   52.36    4.79
   7  -2   6   54.28    4.40
  -7   2   5   40.53    4.25
  -7  -2  -5   43.01    4.38
  -7   2   5   46.67    6.05
   2  -7  -5   50.15    4.28
  -7  -2  -5   38.17    5.57
  -7   2   5   48.70    4.89
  -7  -2  -5   41.38    4.21
  -2  -7   5   41.58    3.83
  -7  -2  -5   41.57    3.79
   7  -2   5   46.24    4.04
  -7   2   5   49.41    4.56
  -7   2   4  187.27    9.84
   7  -2   4  183.80   13.15
  -7  -2  -4  164.93    9.29
  -7   2   4  175.45   12.14
   2  -7  -4  179.57    8.99
  -7  -2  -4  182.66   12.19
  -7  -2  -4  153.37    8.90
  -7   2   4  191.10   10.19
  -2  -7   4  170.94    8.51
  -7  -2  -4  170.16    8.54
  -7   2   3   44.00    4.56
   7  -2   3   45.25    6.44
  -7  -2  -3   45.58    4.46
  -7   2   3   57.28    6.65
  -7  -2  -3   47.19    4.47
  -7   2   3   59.38    5.33
  -7  -2  -3   48.15    4.05
  -2  -7   3   48.89    4.07
   2  -7  -3   47.55    4.45
  -7  -2  -2   69.65    5.72
  -7   2   2   79.34    5.91
  -7  -2  -2   67.92    5.47
   7  -2   2   83.37    8.26
  -7   2   2   84.46    8.22
  -7  -2  -2   76.80    5.28
  -7   2   2   80.78    6.13
  -7  -2  -2   79.25    5.84
  -2  -7   2   82.34    5.39
   2  -7  -2   80.16    5.84
  -7  -2  -1   21.81    3.13
  -7  -2  -1   18.31    2.89
  -7   2   1   17.56    2.79
   7  -2   1   22.62    4.46
   2  -7  -1   23.92    4.16
  -7   2   1   22.80    4.33
   2  -7  -1   20.26    2.86
  -2  -7   1   21.07    2.64
  -7   2   1   21.47    3.19
  -7  -2  -1   18.53    2.66
  -7  -2  -1   26.64    3.26
   2  -7  -1   21.04    3.05
  -7  -2   0   41.76    4.38
  -7   2   0   46.35    4.38
  -7  -2   0   48.58    4.80
   7  -2   0   50.67    6.32
   2  -7   0   55.92    6.14
  -7   2   0   50.81    6.31
   2  -7   0   45.82    4.18
  -7  -2   0   49.80    6.09
  -2  -7   0   42.23    3.80
  -7  -2   0   45.95    4.34
  -7   2   0   54.48    4.91
  -7  -2   0   46.59    4.23
   2  -7   0   41.45    3.77
   2  -7   0   43.53    4.18
  -7   2  -1   23.05    3.12
  -7  -2   1   17.52    3.13
  -7  -2   1   18.47    3.04
   2  -7   1   30.77    4.61
   7  -2  -1   26.63    4.75
  -7  -2   1   22.48    4.30
   2  -7   1   22.63    2.94
  -7   2  -1   23.10    3.14
  -7  -2   1   18.11    2.90
  -7  -2   1   20.50    2.85
   2  -7   1   24.47    2.82
   2  -7   1   22.94    2.97
  -2  -7  -1   18.01    2.93
  -7   2  -2   79.43    5.97
  -7  -2   2   78.78    6.07
  -7  -2   2   82.65    6.81
   7  -2  -2   84.86    7.96
   2  -7   2   91.70    8.00
   2  -7   2   80.49    5.58
  -7  -2   2   93.44    8.43
  -7  -2   2   71.22    5.70
  -7   2  -2   86.97    6.19
   2  -7   2   84.44    5.56
  -7  -2   2   82.24    5.90
  -2  -7  -2   93.40    6.43
   2  -7   2   86.11    5.85
  -7  -2   3   47.06    4.59
  -7  -2   3   44.37    5.10
   7  -2  -3   56.43    6.40
   2  -7   3   49.98    5.87
  -7   2  -3   50.03    4.65
   2  -7   3   47.35    4.22
  -7  -2   3   47.56    6.08
  -7  -2   3   44.91    4.05
  -2  -7  -3   52.80    4.52
  -7  -2   3   49.09    4.69
  -2  -7  -3   51.19    4.19
  -7   2  -3   44.53    4.35
  -7  -2   3   44.43    4.28
   2  -7   3   49.18    4.13
  -2  -7  -3   54.17    4.90
   2  -7   3   52.61    4.49
  -7  -2   4  164.97    9.55
  -7  -2   4  176.82   10.85
   7  -2  -4  170.91   11.77
   2  -7   4  204.34   12.23
  -7   2  -4  183.65    9.54
  -7   2  -4  183.74   12.31
   2  -7   4  179.80    8.98
  -7  -2   4  158.80   11.58
  -7  -2   4  172.68    9.59
  -7  -2   4  163.85    8.60
  -2  -7  -4  164.37    8.42
  -7   2  -4  180.67    9.38
  -2  -7  -4  173.25    9.05
  -7  -2   4  165.25    9.21
   2  -7   4  175.13    8.84
  -7   2  -4  161.43    8.32
   2  -7   4  170.52    8.87
  -2  -7  -4  186.42    9.86
  -7  -2   5   37.26    4.30
  -7  -2   5   40.49    5.11
   2  -7   5   55.21    6.18
   7  -2  -5   47.70    5.86
  -7   2  -5   48.38    4.51
  -7   2  -5   47.53    6.18
   2  -7   5   50.34    4.24
  -7  -2   5   45.78    6.04
  -7   2  -5   55.82    4.74
  -2  -7  -5   39.32    3.77
  -7  -2   5   51.20    4.26
  -7  -2   5   46.61    4.62
  -2  -7  -5   47.38    4.36
  -7  -2   5   45.13    4.33
  -7   2  -5   44.68    3.75
   2  -7   5   38.18    3.87
   2  -7   5   46.22    4.08
  -2  -7  -5   45.30    4.68
  -7  -2   6   53.04    5.08
  -7  -2   6   47.87    5.74
   2  -7   6   60.93    6.53
   7  -2  -6   59.62    6.54
  -7   2  -6   52.48    4.86
  -7   2  -6   50.44    6.29
   2  -7   6   54.39    4.47
  -7  -2   6   59.34    6.67
  -2  -7  -6   53.85    4.24
  -7   2  -6   60.43    4.96
  -2  -7  -6   47.70    4.48
  -7  -2   6   55.15    5.15
  -7  -2   6   47.66    4.29
  -7   2  -6   52.41    4.25
  -7  -2   6   47.98    4.60
   2  -7   6   61.25    4.67
   2  -7   6   56.85    4.53
  -2  -7  -6   51.28    4.96
  -7  -2   7   98.83    7.24
  -7  -2   7   92.96    8.23
   2  -7   7  110.52    8.92
   7  -2  -7  101.44    8.46
  -7   2  -7  104.56    6.96
  -7   2  -7  103.66    9.07
  -7  -2   7   91.18    8.52
   2  -7   7   96.70    6.12
  -7  -2   7   98.41    6.26
  -7   2  -7  106.83    6.82
  -7  -2   7   95.00    6.96
  -2  -7  -7   90.86    5.94
  -2  -7  -7   93.00    6.51
  -7  -2   7  110.37    7.13
   2  -7   7   93.17    6.05
  -2  -7  -7  101.18    7.01
   2  -7   7  113.77    6.64
  -7   2  -7  104.66    6.16
  -7  -2   8   66.09    5.72
  -7  -2   8   55.50    6.41
   2  -7   8   72.82    7.25
  -7   2  -8   60.39    5.26
  -7   2  -8   54.11    6.61
  -7  -2   8   59.05    6.74
   2  -7   8   63.77    4.77
  -7   2  -8   62.18    5.07
  -2  -7  -8   56.56    4.46
  -7   2  -8   74.63    5.47
  -7  -2   8   56.56    5.28
  -7  -2   8   60.48    4.81
  -2  -7  -8   62.32    5.22
  -7  -2   8   66.07    5.40
  -7   2  -8   57.99    4.55
   2  -7   8   61.26    4.79
  -2  -7  -8   61.08    5.49
  -7  -2   9   38.87    4.48
  -7  -2   9   39.19    5.50
   2  -7   9   37.75    5.28
  -7   2  -9   45.51    5.96
   2  -7   9   45.53    3.92
  -7  -2   9   41.85    5.51
  -2  -7  -9   34.63    3.48
  -7   2  -9   40.86    4.11
  -7   2  -9   43.68    4.30
  -2  -7  -9   35.12    4.01
  -7  -2   9   39.14    4.45
  -7  -2   9   41.72    4.36
   2  -7   9   41.37    3.95
  -7   2  -9   36.67    3.63
  -2  -7  -9   40.81    4.47
  -7  -2  10   40.75    4.67
  -7  -2  10   30.62    5.07
   2  -7  10   48.44    5.91
  -7   2 -10   43.38    5.78
   2  -7  10   44.46    3.89
  -7  -2  10   42.92    5.66
   7  -2 -10   46.13    4.85
  -2  -7 -10   41.13    4.32
  -2  -7 -10   41.16    3.79
  -7  -2  10   42.04    4.68
  -7   2 -10   44.21    4.36
  -7   2 -10   40.22    4.16
  -7  -2  10   43.89    4.58
  -7   2 -10   43.07    3.90
   2  -7  10   44.57    4.06
  -2  -7 -10   37.58    4.35
  -7  -2  11  205.63   11.31
  -7  -2  11  193.47   13.27
   2  -7  11  232.48   13.57
  -7   2 -11  190.43   12.55
  -7  -2  11  205.97   13.00
   7  -2 -11  197.45   10.24
   2  -7  11  199.30    9.38
  -7   2 -11  200.81   10.19
  -7   2 -11  194.59   10.05
  -2  -7 -11  172.87    8.85
  -7  -2  11  197.63   10.98
  -2  -7 -11  171.57   10.01
  -7  -2  11  177.43   10.36
   2  -7  11  207.14    9.94
  -7   2 -11  194.40    9.53
  -2  -7 -11  197.00   10.65
  -7  -2  12  597.50   24.22
  -7  -2  12  599.91   27.37
   2  -7  12  655.66   27.24
  -7   2 -12  611.90   26.22
   2  -7  12  596.73   21.53
  -7  -2  12  622.56   26.35
   7  -2 -12  659.49   23.15
  -7   2 -12  607.08   22.69
  -7  -2  12  592.15   23.78
  -2  -7 -12  575.44   21.27
  -7   2 -12  611.27   22.77
  -2  -7 -12  591.16   23.12
  -7  -2  12  594.72   23.48
   2  -7  12  585.42   22.18
  -7   2 -12  589.51   21.98
  -2  -7 -12  609.67   23.53
  -7  -2  13  138.14    9.28
  -7  -2  13  131.09   11.27
   2  -7  13  158.27   11.33
  -7   2 -13  156.81   10.92
   2  -7  13  141.46    7.54
  -7  -2  13  131.99   10.25
   7  -2 -13  161.50    8.87
  -7   2 -13  159.17    8.80
  -7  -2  13  148.28    9.36
  -2  -7 -13  137.63    8.85
  -2  -7 -13  139.81    7.53
  -7   2 -13  174.42    9.09
  -7  -2  13  161.14    9.50
  -2  -7 -13  143.50    9.09
  -7   2 -13  155.62    8.27
  -7  -2  14   61.58    5.95
  -7  -2  14   64.85    7.81
   2  -7  14   51.86    6.52
  -7   2 -14   60.16    6.46
   7  -2 -14   62.02    5.35
  -7  -2  14   56.91    6.44
  -7   2 -14   70.98    5.55
  -2  -7 -14   57.08    4.35
  -2  -7 -14   50.75    5.09
  -7  -2  14   62.75    5.82
  -7   2 -14   68.34    5.50
  -2  -7 -14   67.92    5.89
  -7  -2  14   58.74    5.68
  -7   2 -14   66.53    5.10
  -7  -2  15  251.33   15.97
   2  -7  15  247.14   14.91
  -7  -2  15  248.02   13.07
  -7  -2  15  225.35   13.55
  -7   2 -15  228.68   13.39
   7  -2 -15  246.46   11.75
  -2  -7 -15  225.34   12.04
  -7  -2  15  257.22   12.99
  -2  -7 -15  199.72    9.86
  -7   2 -15  246.69   11.82
  -7  -2  15  257.02   12.76
  -7   2 -15  230.60   11.16
  -2  -7 -15  238.65   12.28
  -7   2 -16   18.26    2.83
  -7  -2  16   18.26    4.55
   2  -7  16   16.19    3.88
  -7  -2  16   24.13    3.91
   7  -2 -16   17.94    3.21
  -7   2 -16   22.31    3.95
  -7  -2  16   20.91    3.85
  -7   2 -16   16.11    3.07
  -2  -7 -16   15.38    2.32
   2  -7  16   24.88    3.29
  -2  -7 -16   18.34    3.18
  -7  -2  16   19.51    3.47
  -2  -7 -16   22.69    3.49
  -7  -2  17  129.68    9.27
  -7  -2  17  118.12   11.20
   2  -7  17  135.26   10.67
   7  -2 -17  134.03    8.18
   2  -7  17  128.70    7.79
  -7   2 -17  136.67    8.40
  -7  -2  17  140.69    9.23
  -2  -7 -17  122.43    8.56
  -7   2 -17  126.95    7.73
  -2  -7 -17  137.90    8.72
  -7  -2  18  167.60   10.84
   2   7 -18  170.04    9.98
  -7  -2  18  157.49   13.02
   7  -2 -18  169.89    9.46
   2  -7  18  165.40    9.12
  -2  -7 -18  161.05   10.07
  -7  -2  18  161.54   10.21
  -7   2 -18  187.16   10.00
  -7   2 -18  158.93    9.08
  -2  -7 -18  168.99    9.92
  -7  -2  19  107.22    8.44
  -7  -2  19   96.69   10.02
   2   7 -19  108.95    7.69
   7  -2 -19  113.54    7.38
  -7  -2  19  101.90    7.85
  -2  -7 -19   95.20    7.52
   2  -7  19   99.20    6.77
  -2  -7 -19  109.40    7.66
  -7   2 -19   97.97    6.84
  -7  -2  20  693.70   32.35
   2   7 -20  695.01   26.57
  -7  -2  20  749.78   28.43
   7  -2 -20  694.55   25.77
  -7  -2  20  703.43   27.36
  -2  -7 -20  668.28   26.85
   2  -7  20  713.76   25.51
  -2  -7 -20  657.33   26.17
  -7  -2  21  238.67   13.20
   2   7 -21  238.68   12.32
   7  -2 -21  216.04   11.29
   2  -7  21  212.54   10.89
  -7  -2  21  238.17   12.68
  -2  -7 -21  221.08   12.38
  -2  -7 -21  212.04   11.57
  -7  -2  22   15.68    3.67
   2   7 -22   18.80    3.51
   7  -2 -22   22.02    3.48
  -2  -7 -22   19.03    3.61
   2  -7  22   21.44    3.16
  -7  -2  22   20.48    3.59
  -7  -2  22   14.23    3.34
  -2  -7 -22   17.35    3.08
   2   7 -23   69.25    6.21
  -7  -2  23   64.65    6.56
   7  -2 -23   69.11    5.81
  -7  -2  23   63.70    6.13
   2  -7  23   70.31    5.49
  -2  -7 -23   68.90    6.40
  -7  -2  23   66.46    6.41
  -2  -7 -23   63.39    5.54
  -7  -2  24  189.88   11.50
   2   7 -24  168.59   10.22
   7  -2 -24  182.83    9.80
  -7  -2  24  159.26   10.09
  -2  -7 -24  177.68   10.72
   2  -7  24  171.39    9.28
  -7  -2  24  189.46   11.04
  -2  -7 -24  162.70    9.41
   2   7 -25   34.88    4.40
  -7  -2  25   35.22    4.74
   7  -2 -25   36.98    4.15
  -7  -2  25   30.25    3.45
   2  -7  25   30.52    3.61
  -2  -7 -25   31.49    4.31
  -7  -2  25   29.92    4.03
  -7  -2  25   29.30    4.18
  -7   2 -25   30.76    3.91
  -2  -7 -25   25.26    3.41
   2  -7  25   29.93    3.53
  -7   2 -26    1.69    1.80
  -7  -2  26    3.50    2.02
   2   7 -26    5.79    2.41
   7  -2 -26    4.70    2.22
  -2  -7 -26    4.27    2.10
  -7  -2  26    4.60    1.95
  -7  -2  26    4.26    1.55
   2  -7  26    1.12    1.40
   2  -7  26    1.98    1.42
  -7  -2  26    1.93    1.97
  -2  -7 -26    2.81    1.49
  -7   2 -27   10.35    2.49
  -7  -2  27   10.47    2.91
   2   7 -27    7.56    2.69
   7  -2 -27    4.32    2.09
  -7  -2  27    7.16    1.85
  -2  -7 -27    6.15    2.25
  -7  -2  27    7.85    2.38
   2  -7  27    6.10    1.85
   2  -7  27    9.52    2.23
  -7  -2  27    5.93    2.37
  -7  -2  28  160.14    9.97
   2   7 -28  148.99    9.13
   7  -2 -28  149.88    8.66
  -2  -7 -28  155.83    9.45
  -7  -2  28  177.68   10.10
  -7   2 -28  167.77    8.99
   2  -7  28  162.39    8.44
  -7   2 -29   11.32    2.40
  -7  -2  29   17.14    3.29
   2   7 -29   10.98    2.77
   7  -2 -29   12.76    2.59
  -2  -7 -29   13.58    2.80
  -7  -2  29    9.81    2.36
   2  -7  29   13.53    2.36
  -7  -2  29   16.56    3.16
   2   7 -30   50.38    4.79
  -7  -2  30   55.16    5.41
   7  -2 -30   48.66    4.42
  -2  -7 -30   41.83    4.46
  -7  -2  30   53.83    5.08
  -7   2 -30   48.74    4.45
   2  -7  30   45.98    4.03
   2   7 -31   50.32    4.71
  -7  -2  31   54.89    5.19
   7  -2 -31   39.13    3.96
  -2  -7 -31   44.63    4.42
  -7  -2  31   56.53    5.09
  -7   2 -31   52.69    4.40
   2  -7  31   44.71    3.90
   2   7 -32   48.13    4.38
  -7  -2  32   44.34    4.61
   7  -2 -32   43.14    3.96
  -2  -7 -32   38.92    3.90
  -7  -2  32   56.05    4.84
  -7   2 -32   51.95    4.21
   2  -7  32   49.42    3.88
  -7  -2  33    0.66    1.44
   2   7 -33    3.88    1.64
   7  -2 -33    1.98    1.42
  -2  -7 -33    1.74    1.25
   2  -7  33    1.81    1.18
  -7  -2  33    0.42    1.48
  -7  -2  34   56.66    4.54
   2   7 -34   48.26    3.98
  -7  -2  34   59.56    4.54
   2  -7  34   53.32    3.67
  -7  -2  35   63.84    4.57
   2   7 -35   65.68    4.27
  -7  -2  35   71.87    4.67
   2  -7  35   63.51    3.88
  -7  -2  36   25.99    2.73
   2   7 -36   30.91    2.68
  -7  -2  36   28.48    2.72
   2  -7  36   28.04    2.32
   2   7 -37   96.60    4.50
  -7  -2  37   87.62    4.68
   2  -7  37   90.56    4.18
   7  -3  36    1.72    0.68
  -7   3  35   43.96    3.34
  -3   7 -35   45.67    2.99
  -7  -3 -35   40.40    3.15
  -3  -7  35   41.64    3.08
   7  -3  35   43.82    2.85
   3  -7 -35   42.22    3.17
  -7   3  34   19.39    2.41
  -3   7 -34   17.03    2.04
  -7  -3 -34   14.87    2.11
  -7   3  34   14.94    2.65
  -3  -7  34   17.38    2.17
  -7   3  33   66.88    4.82
  -3   7 -33   61.80    4.25
  -7  -3 -33   64.07    4.59
  -3  -7  33   65.90    4.42
  -7   3  32    8.10    2.06
  -7  -3 -32    6.98    1.91
  -3   7 -32    8.26    1.79
   7   3 -32    6.23    1.80
  -7   3  31   36.74    3.91
  -3   7 -31   30.63    3.34
  -7  -3 -31   34.83    3.71
   7   3 -31   30.46    3.22
  -7   3  30    6.40    2.15
  -7  -3 -30    8.88    2.18
  -3   7 -30    8.16    2.08
   7   3 -30    7.04    1.93
  -3   7 -29   40.43    4.17
  -7   3  29   45.86    4.81
  -7  -3 -29   45.88    4.74
   7   3 -29   44.34    4.09
  -7   3  28    8.73    2.52
  -3   7 -28    5.51    2.06
   7   3 -28   10.41    2.34
  -7  -3 -28    6.98    2.38
  -7   3  27    8.00    2.47
  -3   7 -27    8.95    2.46
   7   3 -27   11.97    2.66
  -7  -3 -27   15.05    3.11
  -7   3  27   12.79    2.40
  -3  -7  27   10.18    2.40
  -7   3  26  143.06    9.14
  -3   7 -26  129.84    8.19
   7   3 -26  134.92    7.86
  -7  -3 -26  146.08    9.16
  -7   3  26  128.89    7.89
  -3  -7  26  123.04    7.85
  -7   3  25   41.07    4.89
  -3   7 -25   43.51    4.50
   7   3 -25   43.15    4.31
  -7  -3 -25   47.15    5.23
  -7   3  25   39.52    4.23
  -3  -7  25   44.42    4.44
  -3   7 -25   44.74    3.59
  -7   3  24   35.88    4.64
  -3   7 -24   32.71    4.08
   7   3 -24   29.25    3.81
  -7  -3 -24   38.84    4.77
  -7   3  24   34.03    4.05
  -3  -7  24   33.92    3.98
  -3   7 -24   37.62    3.37
  -7   3  23   73.27    8.50
  -3   7 -23   86.47    6.58
  -7   3  23   79.67    6.88
   7   3 -23   76.66    5.88
  -7  -3 -23   82.94    6.99
  -3   7 -23   68.07    4.88
  -7   3  23   83.44    6.40
  -3  -7  23   73.54    5.87
  -7   3  22   39.83    4.94
  -7   3  22   40.60    6.51
  -3   7 -22   55.81    5.19
   7   3 -22   41.09    4.37
  -7  -3 -22   49.06    5.41
  -7   3  22   47.79    4.84
  -3   7 -22   46.87    3.92
  -3  -7  22   40.18    4.35
  -3   7 -21  151.83    9.24
  -7   3  21  170.82   10.40
  -7   3  21  149.50   12.57
   7   3 -21  168.86    9.15
  -7  -3 -21  158.50   10.13
  -7   3  21  160.48    9.47
  -3  -7  21  145.98    8.83
  -3   7 -21  157.24    8.11
  -3   7 -20   15.87    2.36
  -7   3  20    8.80    3.34
  -7   3  20   12.72    2.90
  -3   7 -20   16.82    3.04
   7   3 -20   17.33    3.06
  -7  -3 -20   20.90    3.73
  -7   3  20   12.73    2.67
  -3  -7  20   11.17    2.41
  -3   7 -19    7.89    1.94
  -7   3  19    6.45    3.40
  -7   3  19   10.33    2.79
  -3   7 -19    9.05    2.64
   7   3 -19   11.59    2.76
  -7  -3 -19   12.15    2.96
  -7   3  19   12.24    2.72
  -3  -7  19    8.51    2.11
  -7   3  18  731.52   33.28
  -3   7 -18  758.68   27.88
  -7   3  18  775.02   29.19
   7   3 -18  778.06   27.33
  -3   7 -18  731.87   25.46
  -7  -3 -18  823.54   29.38
  -7   3  18  792.46   28.51
  -3  -7  18  709.94   26.84
  -3   7 -18  746.55   26.27
  -3   7 -17   50.10    5.01
  -7   3  17   61.92    5.94
  -7   3  17   55.01    7.30
   7   3 -17   55.06    5.01
  -7  -3 -17   62.63    5.85
  -7   3  17   56.41    5.42
  -3  -7  17   50.36    4.68
  -3   7 -17   53.05    4.43
  -7   3  16   54.90    5.55
  -7   3  16   54.47    7.23
   7   3 -16   57.41    5.03
   3  -7 -16   46.10    3.95
  -7  -3 -16   54.79    6.42
  -7  -3 -16   55.46    5.52
  -7   3  16   65.08    5.73
  -3   7 -16   53.36    4.43
  -3  -7  16   45.39    4.29
  -7   3  15  402.32   17.95
  -7   3  15  413.94   22.31
  -7   3  15  372.15   19.37
  -7  -3 -15  348.77   19.26
   3  -7 -15  393.02   15.50
   7   3 -15  398.80   16.50
  -7  -3 -15  422.09   16.70
  -7  -3 -15  417.04   17.90
  -3  -7  15  413.36   15.77
  -7   3  15  413.81   17.62
  -3   7 -15  402.57   16.01
   7  -3  15  383.56   15.49
  -7   3  14  106.98    7.96
  -7   3  14  131.05   11.61
  -7   3  14  128.30    9.95
  -7  -3 -14  108.44    9.45
   3  -7 -14  108.08    6.63
   7   3 -14  123.72    7.56
  -7  -3 -14  118.38    7.37
  -7  -3 -14  118.59    8.13
  -3  -7  14  119.30    6.89
   7  -3  14  118.26    6.88
  -7   3  14  143.97    8.56
  -3   7 -14  118.93    7.14
  -7   3  13   58.71    5.64
  -7   3  13   59.13    6.90
  -7  -3 -13   51.04    6.52
   3  -7 -13   61.43    4.71
   7   3 -13   55.37    4.89
  -3  -7  13   53.98    4.50
  -7  -3 -13   64.33    5.72
  -7  -3 -13   57.93    4.93
  -3   7 -13   69.53    5.20
   7  -3  13   60.02    4.65
  -7   3  13   64.87    5.64
  -7   3  12   18.93    3.14
  -7  -3 -12   18.23    4.08
   7   3 -12   16.65    2.89
  -7   3  12   12.56    3.55
   3  -7 -12   17.49    2.65
  -3  -7  12   19.54    2.70
  -7  -3 -12   19.45    2.92
  -7  -3 -12   16.54    3.05
  -7   3  12   18.41    3.04
   7  -3  12   11.72    2.17
  -3   7 -12   18.45    2.69
   3  -7 -12   17.00    2.56
  -7   3  11   56.95    5.42
  -7   3  11   49.64    6.35
  -7  -3 -11   53.03    6.61
   3  -7 -11   63.89    4.89
   7   3 -11   69.29    5.42
  -7  -3 -11   62.99    5.48
  -3  -7  11   60.29    4.75
  -7  -3 -11   51.44    4.64
  -7   3  11   60.27    5.42
   7  -3  11   63.15    4.82
   3  -7 -11   60.37    4.81
  -3   7 -11   64.35    5.04
  -7   3  10  286.77   13.70
  -7   3  10  270.15   16.04
  -7  -3 -10  265.03   15.97
   3  -7 -10  286.15   12.41
   7   3 -10  281.02   12.81
  -7  -3 -10  265.95   12.90
  -7   3  10  275.76   14.01
  -3  -7  10  276.82   12.11
  -7  -3 -10  294.81   13.55
  -7  -3 -10  272.14   12.40
  -3   7 -10  291.82   12.78
   3  -7 -10  267.71   12.22
  -7   3  10  297.02   13.53
   7  -3  10  275.69   12.29
  -7   3   9  175.33   10.33
  -7  -3  -9  196.03   13.37
  -7   3   9  194.76   13.35
   3  -7  -9  205.81    9.98
   7   3  -9  196.54   10.13
  -7  -3  -9  203.25   10.49
  -7  -3  -9  198.10    9.98
  -7   3   9  202.39   11.38
  -3  -7   9  194.78    9.64
  -7  -3  -9  213.67   10.94
  -7   3   9  210.61   10.89
   3  -7  -9  219.69   10.24
   7  -3   9  225.15   10.26
  -7   3   8   85.08    6.58
  -7  -3  -8   96.74    8.88
  -7   3   8  104.89    9.28
   3  -7  -8   99.69    6.33
   7   3  -8   89.33    6.35
  -7  -3  -8   97.27    6.29
  -7  -3  -8   96.16    6.80
  -3  -7   8   92.69    5.99
  -7  -3  -8   84.20    5.62
  -7   3   8  112.51    7.71
  -7  -3  -8   92.81    6.55
  -7   3   8   97.50    6.86
   7  -3   8   96.91    6.29
   3  -7  -8   91.38    6.09
  -7   3   7  165.71    9.42
  -7   3   7  164.72   12.11
   3  -7  -7  182.70    9.07
  -7   3   7  172.06    9.01
  -7  -3  -7  166.18   12.16
  -7  -3  -7  175.00    8.97
  -7   3   7  180.62   10.27
  -3  -7   7  176.20    8.72
  -7  -3  -7  150.48    9.07
  -7  -3  -7  158.02    9.00
  -7  -3  -7  154.46    8.30
   3  -7  -7  158.26    8.64
   7  -3   7  173.63    8.94
  -7   3   6   56.07    4.96
  -7  -3  -6   42.96    4.42
  -7   3   6   46.52    6.06
   3  -7  -6   48.12    4.39
  -7  -3  -6   36.26    5.78
  -7   3   6   47.99    4.43
  -7  -3  -6   47.22    4.52
  -3  -7   6   47.57    4.20
  -7   3   6   45.55    4.83
  -7  -3  -6   47.29    4.30
  -7  -3  -6   49.95    4.62
  -7  -3  -6   40.99    3.89
   3  -7  -6   48.26    4.33
   7  -3   6   41.34    4.08
  -7   3   5   28.18    3.54
   7  -3   5   28.63    5.72
  -7  -3  -5   25.53    3.59
  -7   3   5   29.70    5.11
   3  -7  -5   28.54    3.37
  -7  -3  -5   30.13    5.14
  -7   3   5   27.13    3.39
  -3  -7   5   33.88    3.48
  -7  -3  -5   26.36    3.39
  -7  -3  -5   31.83    3.72
  -7   3   5   26.23    3.60
  -7  -3  -5   27.00    3.16
   7  -3   5   33.71    3.62
   3  -7  -5   29.50    3.33
  -7   3   4   36.51    4.01
   7  -3   4   29.04    5.39
  -7  -3  -4   30.84    3.71
  -7   3   4   35.59    5.52
  -7  -3  -4   33.50    5.43
  -7   3   4   27.13    3.43
   3  -7  -4   29.02    3.51
  -7  -3  -4   30.29    3.25
  -7  -3  -4   24.21    3.24
  -3  -7   4   28.49    3.31
  -7  -3  -4   30.02    3.58
  -7   3   4   33.28    4.04
   3  -7  -4   33.27    3.60
   7  -3   4   34.31    3.66
  -7   3   3  149.84    8.56
   7  -3   3  143.16   12.02
  -7  -3  -3  136.76    8.42
  -7   3   3  157.74    8.57
  -7   3   3  142.91   11.09
  -7  -3  -3  136.30    7.61
  -7  -3  -3  156.23    8.47
  -7  -3  -3  130.33    8.06
  -7   3   3  144.13    8.76
  -3  -7   3  134.84    7.65
   3  -7  -3  163.26    8.54
   7  -3   3  156.36    8.40
  -7   3   2  288.82   12.78
   7  -3   2  267.05   16.78
   3  -7  -2  284.01   16.34
  -7  -3  -2  244.00   12.23
  -7   3   2  264.81   12.40
  -7   3   2  273.57   16.17
  -7  -3  -2  239.74   11.31
  -7  -3  -2  250.71   12.02
  -7   3   2  279.75   12.93
  -3  -7   2  252.04   11.58
   3  -7  -2  275.46   12.50
   3  -7  -2  285.60   12.29
  -7   3   2  270.37   11.89
  -7   3   1  116.34    7.23
   7  -3   1  116.17   10.36
   3  -7  -1  115.45    9.86
  -7  -3  -1  103.20    7.03
   3  -7  -1  109.17    6.85
  -7   3   1  105.26    6.93
  -7   3   1  103.34    9.43
  -7   3   1  116.05    7.42
  -7  -3  -1  101.18    6.44
  -7  -3  -1  105.18    6.84
  -3  -7   1  108.73    6.67
   3  -7  -1  113.19    6.86
   3  -7  -1  116.59    7.17
  -7   3   1  115.19    6.77
  -7  -3   0   31.60    3.74
  -7   3   0   30.10    3.54
   3  -7   0   37.20    5.58
   7  -3   0   28.61    5.39
   3  -7   0   30.20    3.45
  -7   3   0   33.39    5.37
  -7  -3   0   24.01    4.97
  -7   3   0   28.32    3.57
  -7  -3   0   28.82    3.21
  -3  -7   0   24.38    3.21
  -7  -3   0   27.72    3.40
  -7   3   0   27.47    3.48
  -7  -3   0   25.65    3.25
  -7   3   0   27.21    3.21
   3  -7   0   26.15    3.22
   3  -7   0   23.90    3.20
  -7  -3   1  105.05    7.08
  -7  -3   1   91.32    7.17
   7  -3  -1  121.70   10.35
   3  -7   1  114.01    9.82
  -7   3  -1  107.32    7.02
   3  -7   1  127.09    7.26
  -7   3  -1  113.60    7.16
  -7  -3   1  120.03   10.04
  -7  -3   1  110.39    6.67
  -7  -3   1  102.73    6.82
  -7   3  -1  113.76    7.27
  -7  -3   1  100.53    6.58
   3  -7   1  117.10    6.97
  -7   3  -1  109.44    6.71
   3  -7   1  105.50    6.80
  -7  -3   2  254.46   12.50
  -7  -3   2  224.80   12.85
   7  -3  -2  248.62   15.74
   3  -7   2  310.26   16.70
  -7   3  -2  288.00   12.68
   3  -7   2  283.18   12.26
  -7  -3   2  267.64   15.95
  -7  -3   2  243.06   11.93
  -7   3  -2  277.68   12.54
  -7  -3   2  249.29   11.53
  -7  -3   2  254.83   11.94
  -7   3  -2  270.88   11.78
   3  -7   2  283.10   12.26
  -3  -7  -2  260.76   12.51
   3  -7   2  264.87   11.92
  -7  -3   3  147.22    8.81
  -7  -3   3  131.58    9.23
   7  -3  -3  155.01   11.71
   3  -7   3  157.92   11.63
  -7   3  -3  145.07    8.43
   3  -7   3  159.76    8.42
  -7  -3   3  159.46   11.81
  -7  -3   3  135.50    8.18
  -3  -7  -3  152.77    8.65
  -7   3  -3  155.24    8.59
  -7  -3   3  136.95    8.09
  -7   3  -3  156.70    8.22
   3  -7   3  140.69    8.00
   3  -7   3  156.38    8.47
  -3  -7  -3  154.27    8.87
  -7  -3   4   30.20    3.69
  -7  -3   4   27.09    4.09
   3  -7   4   34.91    5.42
   7  -3  -4   36.00    5.41
  -7   3  -4   28.76    3.46
   3  -7   4   34.90    3.72
  -7   3  -4   34.98    5.49
  -7  -3   4   33.54    5.64
  -7   3  -4   29.89    3.83
  -7   3  -4   28.28    3.40
  -3  -7  -4   28.16    3.36
  -7  -3   4   29.28    3.50
  -3  -7  -4   38.68    4.03
  -7   3  -4   27.35    3.15
  -7  -3   4   32.21    3.65
   3  -7   4   37.54    3.76
  -3  -7  -4   33.21    3.93
   3  -7   4   28.70    3.20
  -7  -3   5   31.79    3.92
  -7  -3   5   31.75    4.53
   3  -7   5   35.88    5.46
   7  -3  -5   29.81    5.05
  -7   3  -5   33.08    3.74
  -7   3  -5   29.53    5.17
   3  -7   5   32.10    3.59
  -7  -3   5   24.84    4.73
  -7   3  -5   35.07    3.91
  -3  -7  -5   25.77    3.19
  -7   3  -5   31.79    3.62
  -7  -3   5   29.94    3.62
  -3  -7  -5   27.90    3.62
  -3  -7  -5   25.45    3.55
  -7  -3   5   29.66    3.54
   3  -7   5   33.93    3.66
  -7   3  -5   32.03    3.43
   3  -7   5   32.11    3.31
  -7  -3   6   48.98    4.91
  -7  -3   6   39.17    5.21
   3  -7   6   51.94    6.70
   7  -3  -6   44.19    6.05
  -7   3  -6   48.94    4.59
  -7   3  -6   43.15    6.04
   3  -7   6   45.00    4.23
  -7   3  -6   43.01    4.28
  -7  -3   6   58.18    6.94
  -7   3  -6   44.99    4.29
  -7  -3   6   41.31    4.35
  -3  -7  -6   41.95    3.95
  -3  -7  -6   46.46    4.60
  -7  -3   6   43.09    4.37
   3  -7   6   47.07    4.30
  -7   3  -6   44.36    4.03
  -3  -7  -6   50.98    4.74
  -7  -3   7  152.74    9.47
  -7  -3   7  161.51   11.32
   3  -7   7  174.29   12.45
   7  -3  -7  175.74   12.36
  -7   3  -7  163.04    9.23
  -7   3  -7  164.49   12.01
   3  -7   7  176.09    8.91
  -7   3  -7  173.42    9.24
  -7  -3   7  157.19   11.75
  -7   3  -7  188.66    9.37
  -3  -7  -7  159.12    9.39
  -7  -3   7  144.28    8.83
  -7   3  -7  176.65    9.15
  -3  -7  -7  170.92    8.62
  -7  -3   7  180.45    9.59
   3  -7   7  155.46    8.78
  -7   3  -7  161.94    8.64
  -3  -7  -7  167.69    9.44
  -7  -3   8   81.38    6.61
  -7  -3   8   85.67    8.35
   3  -7   8   99.99    9.23
  -7   3  -8   95.73    8.89
   3  -7   8   99.30    6.29
   7  -3  -8   88.62    6.69
  -7  -3   8  102.55    9.08
  -7   3  -8  106.46    6.62
  -3  -7  -8   86.84    5.89
  -3  -7  -8   89.05    6.74
  -7   3  -8   97.12    6.44
  -7  -3   8   79.52    6.33
  -7  -3   8   82.96    6.42
  -7   3  -8  103.13    6.33
  -3  -7  -8   82.97    6.48
   3  -7   8   93.48    6.27
  -7  -3   9  174.76   10.56
  -7  -3   9  184.97   12.70
   3  -7   9  216.73   14.19
  -7  -3   9  198.85   13.23
  -7   3  -9  193.38   13.14
   3  -7   9  198.62    9.73
   7  -3  -9  215.83   10.65
  -7   3  -9  204.17   10.13
  -7   3  -9  196.37   10.07
  -3  -7  -9  204.85    9.66
  -7  -3   9  178.84   10.24
  -3  -7  -9  198.85   10.78
  -7   3  -9  192.04    9.64
   3  -7   9  208.11   10.20
  -3  -7  -9  205.00   10.57
  -7  -3   9  177.66   10.23
  -7  -3  10  262.14   13.52
  -7  -3  10  273.36   16.10
   3  -7  10  291.24   17.09
  -7  -3  10  273.09   16.01
  -7   3 -10  311.40   16.68
   3  -7  10  275.74   12.18
   7  -3 -10  305.38   13.16
  -3  -7 -10  263.50   11.87
  -7   3 -10  281.38   12.71
  -7   3 -10  289.31   12.81
  -3  -7 -10  269.37   13.48
  -7  -3  10  265.90   13.05
  -7  -3  10  282.03   13.45
  -3  -7 -10  275.92   13.13
  -7   3 -10  269.01   12.30
  -7  -3  11   51.87    5.33
  -7  -3  11   62.82    7.24
   3  -7  11   58.25    7.26
  -7  -3  11   62.75    7.05
  -7   3 -11   62.25    6.92
   3  -7  11   54.82    4.54
   7  -3 -11   69.61    5.49
  -3  -7 -11   55.67    5.46
  -3  -7 -11   54.39    4.47
  -7   3 -11   64.90    5.17
  -7  -3  11   55.60    5.24
  -7   3 -11   64.31    5.22
  -7  -3  11   61.01    5.54
  -3  -7 -11   57.89    5.38
  -7   3 -11   62.23    4.96
  -7   3 -12   13.12    2.43
  -7  -3  12   14.59    3.81
  -7  -3  12   15.25    3.10
   3  -7  12    9.30    3.44
   7  -3 -12   20.06    3.28
  -7   3 -12   15.45    3.82
   3  -7  12   14.68    2.42
  -7  -3  12   15.05    3.75
  -3  -7 -12   13.33    2.32
  -7   3 -12   22.48    3.00
  -3  -7 -12   15.91    3.08
  -7  -3  12   16.08    2.98
  -7   3 -12   19.25    2.98
  -3  -7 -12   16.80    2.89
  -7  -3  12   15.78    3.02
  -7  -3  13   74.45    6.31
  -7  -3  13   46.91    6.65
   3  -7  13   64.99    7.61
  -7   3 -13   49.81    6.22
  -7  -3  13   51.84    6.41
   3  -7  13   57.33    4.55
   7  -3 -13   71.10    5.51
  -7   3 -13   59.13    5.03
  -3  -7 -13   62.44    4.65
  -3  -7 -13   56.80    5.60
  -7  -3  13   54.64    5.27
  -7   3 -13   67.71    5.44
  -7  -3  13   59.30    5.54
  -7   3 -13   59.17    4.86
  -3  -7 -13   60.24    5.35
  -7  -3  14  110.69    8.40
  -7  -3  14  104.19   10.27
   3  -7  14  145.59   11.61
   3  -7  14  118.64    6.75
  -7   3 -14  132.08    9.99
  -7  -3  14  113.87    9.49
   7  -3 -14  124.22    7.66
  -7   3 -14  135.53    7.90
  -7  -3  14  119.84    8.06
  -3  -7 -14  119.28    8.42
  -7   3 -14  120.81    7.65
  -3  -7 -14  111.82    6.64
  -7  -3  14  131.23    8.67
  -7   3 -14  126.70    7.50
   3  -7  14  123.66    7.61
  -3  -7 -14  121.76    7.86
  -7  -3  15  402.10   18.33
  -7  -3  15  394.35   21.53
   3  -7  15  440.74   22.29
  -7   3 -15  375.24   19.09
  -7  -3  15  367.90   19.21
   7  -3 -15  440.39   16.94
  -7   3 -15  395.01   16.66
  -7  -3  15  364.52   16.92
  -3  -7 -15  407.11   17.93
  -3  -7 -15  367.97   15.06
  -7  -3  15  391.04   17.58
   3  -7  15  418.61   16.63
  -7   3 -15  423.65   16.58
  -3  -7 -15  375.99   16.71
  -7  -3  16   53.16    5.76
  -7  -3  16   54.29    7.33
   3  -7  16   63.84    7.77
   7  -3 -16   58.82    5.14
  -7   3 -16   49.94    5.81
  -7  -3  16   54.91    5.34
  -7   3 -16   56.57    5.08
  -3  -7 -16   52.68    5.51
  -7  -3  16   58.87    5.79
   3  -7  16   49.58    4.68
  -7   3 -16   49.07    4.72
  -3  -7 -16   46.12    4.82
  -7  -3  17   55.38    5.90
   3   7 -17   52.91    5.23
   3  -7  17   58.51    7.54
   7  -3 -17   56.67    5.00
  -3  -7 -17   60.60    5.99
  -7  -3  17   52.35    5.26
  -7   3 -17   56.35    5.21
  -7  -3  17   57.91    5.87
   3  -7  17   56.94    5.05
  -3  -7 -17   50.26    4.99
  -7  -3  18  755.49   29.64
   3  -7  18  783.17   34.19
   3   7 -18  769.22   28.50
   7  -3 -18  773.39   27.74
  -3  -7 -18  775.72   29.64
   3  -7  18  812.19   27.84
  -7  -3  18  765.96   28.58
  -7  -3  18  797.54   29.65
  -3  -7 -18  710.75   27.64
   3  -7  19    7.66    3.12
  -7  -3  19    8.23    2.99
   3   7 -19   11.24    2.87
   7  -3 -19    8.73    2.59
  -3  -7 -19    8.54    2.74
  -7  -3  19    7.56    2.34
  -7  -3  19    9.68    2.71
   3  -7  19    7.95    2.21
  -3  -7 -19    8.11    2.29
   3  -7  20   14.65    3.99
  -7  -3  20   16.88    3.46
   7  -3 -20   16.65    2.93
   3   7 -20   14.50    3.01
  -3  -7 -20   13.08    3.19
  -7  -3  20   13.24    2.85
  -7  -3  20   13.13    3.25
   3  -7  20   13.68    2.62
  -3  -7 -20    9.81    2.24
   3   7 -21  173.72    9.92
  -7  -3  21  155.52   10.36
   7  -3 -21  161.25    8.96
  -3  -7 -21  153.08   10.17
   3  -7  21  157.69    8.71
  -7  -3  21  143.36    9.15
  -7  -3  21  155.26   10.08
  -3  -7 -21  135.25    8.41
   3   7 -22   52.13    5.23
  -7  -3  22   49.47    5.63
   7  -3 -22   44.39    4.50
   3  -7  22   46.02    4.39
  -3  -7 -22   39.12    5.09
  -7  -3  22   36.80    4.36
  -7  -3  22   52.94    5.56
  -7   3 -22   40.61    4.34
  -7  -3  23   83.25    7.16
   3   7 -23   80.58    6.49
   7  -3 -23   79.25    6.08
  -7  -3  23   64.40    5.76
  -3  -7 -23   81.77    7.17
   3  -7  23   79.83    5.78
  -7   3 -23   78.95    6.04
   3   7 -24   36.18    4.35
  -7  -3  24   35.72    4.74
   7  -3 -24   37.42    4.17
  -3  -7 -24   32.57    4.64
   3  -7  24   42.31    4.06
  -7  -3  24   32.33    3.87
  -7   3 -24   40.31    4.25
   3   7 -25   42.51    4.75
  -7  -3  25   46.01    5.24
   7  -3 -25   51.20    4.82
  -3  -7 -25   44.25    5.17
   3  -7  25   43.66    4.15
  -7   3 -25   53.63    4.75
   3   7 -26  127.37    8.33
  -7  -3  26  141.74    9.15
   7  -3 -26  120.85    7.64
   3  -7  26  140.37    7.65
  -3  -7 -26  124.04    8.79
  -7   3 -26  139.12    8.02
  -7   3 -27   15.59    2.75
  -7  -3  27   11.04    2.94
   3   7 -27   14.61    2.94
   7  -3 -27   11.91    2.56
  -7  -3  27   12.20    2.33
  -3  -7 -27   13.66    3.09
   3  -7  27   12.70    2.41
   3  -7  27   11.69    2.15
  -7   3 -28   10.74    2.33
  -7  -3  28    7.54    2.41
   3   7 -28    8.73    2.46
   7  -3 -28   10.10    2.32
  -3  -7 -28    7.01    2.60
  -7  -3  28    8.36    1.87
   3  -7  28   10.80    2.17
   3  -7  28    9.01    1.88
  -7  -3  29   43.32    4.74
   3   7 -29   50.08    4.71
   7  -3 -29   41.34    4.12
  -7  -3  29   46.24    3.70
  -3  -7 -29   44.36    4.71
  -7   3 -29   49.98    4.40
   3  -7  29   44.56    3.93
  -7   3 -30    8.08    1.95
  -7  -3  30    5.00    1.99
   3   7 -30    7.01    2.20
   7  -3 -30    5.40    1.90
  -7  -3  30    6.02    1.50
  -3  -7 -30    6.06    2.13
   3  -7  30    4.73    1.60
  -7  -3  30    8.70    2.46
  -7  -3  31   33.65    3.74
   3   7 -31   30.64    3.33
   7  -3 -31   23.10    2.97
  -3  -7 -31   30.26    3.65
  -7  -3  31   29.44    3.69
  -7   3 -31   37.85    3.48
   3  -7  31   29.41    2.96
  -7   3 -32    9.26    1.91
  -7  -3  32    5.07    1.94
   3   7 -32    8.53    2.02
   7  -3 -32    5.47    1.70
  -3  -7 -32    9.32    2.08
   3  -7  32    8.33    1.72
  -7  -3  32    8.87    2.16
  -7  -3  33   65.64    4.72
   3   7 -33   68.73    4.58
  -3  -7 -33   59.08    4.63
  -7  -3  33   69.32    5.07
  -7   3 -33   67.96    4.47
   3  -7  33   68.19    4.23
  -7  -3  34   17.02    2.32
   3   7 -34   15.50    2.04
  -3  -7 -34   13.87    2.09
  -7  -3  34   18.75    2.57
   3  -7  34   17.56    1.96
  -7  -3  35   37.49    3.16
   3   7 -35   51.10    3.29
  -3  -7 -35   38.51    3.16
  -7  -3  35   55.26    3.90
   3  -7  35   50.70    3.14
  -7  -3  36    2.24    1.05
   3  -7  36    1.35    0.76
  -7  -4 -35   33.30    2.57
   7  -4  35   36.53    2.37
   4  -7 -35   31.53    2.62
  -7   4  34   26.33    2.91
  -7  -4 -34   31.47    2.79
  -4  -7  34   26.52    2.37
  -7   4  33   18.25    2.06
  -7   4  33   21.39    2.79
  -7  -4 -33   24.08    2.69
  -4  -7  33   16.51    2.13
  -7   4  32   19.79    2.36
  -7  -4 -32   20.05    2.72
  -7   4  32   14.06    2.66
  -4  -7  32   18.23    2.31
  -7   4  31    2.72    1.28
  -7  -4 -31   -0.61    1.34
  -4  -7  31   -0.17    1.07
  -7   4  30   16.86    2.61
   7   4 -30   19.00    2.35
  -4   7 -30   14.44    2.20
  -7  -4 -30   16.36    2.80
  -4  -7  30   21.43    2.67
  -7   4  29   12.28    2.43
  -4   7 -29   10.78    2.07
   7   4 -29    9.40    1.99
  -7  -4 -29    8.96    2.41
  -4  -7  29   13.54    2.31
  -4   7 -28   24.39    2.97
  -7   4  28   18.30    2.91
   7   4 -28   16.40    2.48
  -7  -4 -28   19.89    3.26
  -4  -7  28   19.41    2.88
  -4   7 -28   18.23    2.14
  -4   7 -27   11.68    1.91
  -7   4  27   12.58    2.71
  -4   7 -27   12.15    2.35
   7   4 -27    9.82    2.06
  -7  -4 -27   14.35    2.93
  -4  -7  27   10.60    2.33
  -7   4  26   87.15    6.65
  -4   7 -26   85.04    5.95
   7   4 -26   80.33    5.60
  -7  -4 -26   94.79    7.20
  -4   7 -26   90.69    5.34
  -4   7 -25   12.50    2.08
  -7   4  25    9.50    2.60
  -7  -4 -25   14.22    3.29
  -4   7 -25   14.93    2.68
   7   4 -25   13.40    2.47
  -7   4  24   25.22    3.69
  -4   7 -24   17.76    2.55
  -4   7 -24   20.24    3.09
   7   4 -24   18.48    2.76
  -7  -4 -24   19.29    3.62
  -7   4  23  172.74   10.18
  -4   7 -23  169.69    9.35
   7   4 -23  165.84    8.96
  -7  -4 -23  188.59   11.12
  -4   7 -23  182.14    8.76
  -7   4  22  232.68   12.32
  -4   7 -22  220.63   11.26
   7   4 -22  227.94   10.93
  -7  -4 -22  251.51   13.21
  -4   7 -22  228.08   10.53
  -4   7 -21   18.01    2.68
  -7   4  21   19.42    4.65
  -7   4  21   19.08    3.39
   7   4 -21   19.56    3.02
  -4   7 -21   19.45    3.12
  -7  -4 -21   16.15    3.46
  -7   4  20  329.92   15.31
  -7   4  20  305.12   18.85
  -4   7 -20  312.75   14.07
   7   4 -20  323.49   13.71
  -7  -4 -20  345.17   16.01
  -4   7 -20  324.19   13.43
   7  -4  20  276.42   12.33
  -7   4  19   12.79    3.77
  -4   7 -19   11.24    2.33
  -7   4  19   12.70    2.99
  -4   7 -19   13.12    2.68
   7   4 -19   13.60    2.73
  -7  -4 -19   15.81    3.57
   7  -4  19   10.37    2.05
  -7   4  19   10.96    2.46
  -7   4  18  704.37   25.95
  -4   7 -18  664.43   24.58
  -7   4  18  644.16   30.43
   7   4 -18  626.84   23.69
  -4   7 -18  651.74   22.74
  -7  -4 -18  706.37   26.76
  -7   4  18  642.84   24.51
   7  -4  18  633.58   23.14
  -4   7 -18  673.96   23.87
  -7   4  17  310.60   14.70
  -7   4  17  305.21   18.59
  -4   7 -17  314.90   13.77
   7   4 -17  314.43   13.31
   4  -7 -17  269.13   11.99
  -4   7 -17  303.85   12.43
  -7  -4 -17  309.18   15.12
  -7   4  17  299.53   13.69
   7  -4  17  290.02   12.61
   4  -7 -17  273.13   12.82
  -4   7 -17  298.10   13.05
  -7   4  16  137.25    9.03
  -7   4  16  146.80   12.59
  -4   7 -16  144.05    8.44
   4  -7 -16  134.32    7.47
   7   4 -16  152.55    8.33
  -4   7 -16  147.63    7.69
  -7  -4 -16  106.63    9.91
  -7  -4 -16  160.68    9.91
  -4   7 -16  145.38    8.14
  -7   4  16  152.97    8.82
   7  -4  16  139.95    7.81
   4  -7 -16  138.86    8.13
  -7   4  15  166.75   10.21
  -4   7 -15  173.82    9.59
  -4   7 -15  195.78    9.26
   7   4 -15  187.43    9.50
  -7   4  15  156.63   11.75
   4  -7 -15  184.71    9.09
  -7  -4 -15  153.68   12.14
  -7  -4 -15  178.27   10.81
  -4   7 -15  184.57    9.45
   4  -7 -15  182.18    9.57
   7  -4  15  190.69    9.35
  -7   4  14  546.13   22.05
   7   4 -14  565.86   20.71
  -7   4  14  502.56   24.48
   4  -7 -14  554.91   20.37
  -7  -4 -14  497.70   24.80
  -7  -4 -14  588.62   22.96
   7  -4  14  553.53   20.60
   4  -7 -14  512.97   20.71
  -4   7 -14  559.26   20.91
  -7   4  13  280.52   13.84
  -7   4  13  293.97   16.95
   4  -7 -13  282.16   12.57
  -7  -4 -13  258.86   16.27
   7   4 -13  294.03   12.86
  -7  -4 -13  287.07   12.70
  -7  -4 -13  292.03   14.38
   7  -4  13  291.23   12.88
   4  -7 -13  286.73   13.15
  -4   7 -13  298.53   13.15
  -7   4  12  400.03   17.17
  -7   4  12  372.64   19.96
  -7  -4 -12  351.20   19.71
   4  -7 -12  396.40   15.88
   7   4 -12  397.46   15.90
  -7  -4 -12  362.56   15.42
  -7  -4 -12  410.26   17.76
  -4   7 -12  414.92   16.39
   7  -4  12  375.24   15.84
   4  -7 -12  378.26   16.18
  -7   4  11  866.41   31.19
  -7   4  11  836.16   35.10
  -7  -4 -11  797.90   34.95
  -7   4  11  884.57   30.26
   4  -7 -11  880.92   29.97
   7   4 -11  855.32   29.77
  -7   4  11  857.08   32.03
  -7  -4 -11  945.09   32.22
  -7  -4 -11  813.07   29.43
  -4   7 -11  888.80   30.43
   4  -7 -11  858.57   30.46
   7  -4  11  860.69   30.06
  -7   4  10  300.06   14.00
  -7  -4 -10  278.67   17.20
   4  -7 -10  288.69   12.98
  -7   4  10  310.31   13.55
   7   4 -10  319.14   13.21
  -7   4  10  303.98   17.46
  -7   4  10  321.12   14.99
  -4  -7  10  298.40   13.07
  -7  -4 -10  295.81   14.40
  -7  -4 -10  277.81   12.63
  -4   7 -10  288.13   13.31
   7  -4  10  290.54   13.14
   4  -7 -10  291.64   13.40
  -7   4   9   26.61    3.53
  -7   4   9   24.41    4.82
  -7  -4  -9   17.10    4.35
   4  -7  -9   26.80    3.37
  -7   4   9   28.71    3.46
   7   4  -9   30.95    3.54
  -7  -4  -9   28.90    3.93
  -4  -7   9   27.77    3.47
  -7   4   9   25.90    3.84
  -7  -4  -9   25.28    3.06
   4  -7  -9   30.24    3.75
   7  -4   9   29.35    3.51
  -4   7  -9   31.10    3.67
  -7   4   8   86.47    6.39
   7  -4   8   91.43   10.19
  -7  -4  -8   76.17    8.25
   4  -7  -8   81.96    5.88
  -7   4   8   87.35    6.15
   7   4  -8   81.35    5.77
  -7   4   8   79.00    8.32
  -7  -4  -8   79.03    6.44
  -7   4   8   82.87    6.67
  -4  -7   8   79.98    5.78
  -7  -4  -8   80.68    5.40
  -7  -4  -8   67.06    5.25
   7  -4   8   79.02    5.86
   4  -7  -8   82.08    6.06
  -7   4   7  212.79   10.99
   7  -4   7  238.61   16.91
  -7  -4  -7  200.76   14.08
   4  -7  -7  221.42   10.68
  -7   4   7  225.50   10.93
   7   4  -7  205.31   10.31
  -7   4   7  198.80   13.87
  -7  -4  -7  211.06   10.61
  -7  -4  -7  205.22   10.04
  -7  -4  -7  227.37   11.70
  -7   4   7  215.97   11.66
  -7  -4  -7  205.97    9.98
  -4  -7   7  224.07   10.61
   4  -7  -7  221.54   11.06
   7  -4   7  225.74   10.90
  -7   4   6  136.05    8.12
   7  -4   6  125.47   12.09
  -7  -4  -6  107.88   10.23
   4  -7  -6  137.53    7.83
  -7   4   6  136.94    7.99
  -7   4   6  121.03   10.57
  -4  -7   6  114.93    7.31
  -7  -4  -6  121.99    7.51
  -7   4   6  127.63    8.35
  -7  -4  -6  120.85    8.10
  -7  -4  -6  118.65    7.03
  -7  -4  -6  119.18    7.00
   7  -4   6  134.26    7.92
   4  -7  -6  133.84    8.03
  -7   4   5  212.17   10.68
   7  -4   5  198.77   15.21
  -7  -4  -5  206.26   14.13
   4  -7  -5  200.29   10.15
  -7   4   5  227.34   10.80
  -7   4   5  197.82   13.65
  -7  -4  -5  190.92    9.55
  -7   4   5  212.19   11.09
  -4  -7   5  200.65   10.09
  -7  -4  -5  206.62   10.92
  -7  -4  -5  204.95    9.83
  -7  -4  -5  174.16    9.76
   4  -7  -5  217.13   10.70
   7  -4   5  206.23   10.48
  -7   4   4   21.17    3.03
  -7  -4  -4   15.98    2.81
   7  -4   4   16.23    4.88
  -7  -4  -4   20.10    4.45
  -7   4   4   20.64    4.34
   4  -7  -4   24.05    3.16
  -7   4   4   24.46    3.26
  -4  -7   4   22.45    3.36
  -7  -4  -4   21.54    2.83
  -7  -4  -4   14.78    2.60
  -7  -4  -4   22.91    3.32
  -7  -4  -4   18.97    2.65
  -7   4   4   24.86    3.48
   4  -7  -4   19.12    2.99
   7  -4   4   23.05    3.28
  -7  -4  -3   10.29    2.45
  -7   4   3   16.28    2.79
   7  -4   3   21.55    5.20
   4  -7  -3   18.11    4.37
  -7   4   3   20.20    4.47
  -7   4   3   16.95    2.99
  -7  -4  -3   19.29    2.68
  -4  -7   3   16.82    2.86
  -7  -4  -3   19.78    2.86
  -7   4   3   18.44    2.94
   7  -4   3   12.54    2.52
   4  -7  -3   16.88    2.94
  -7   4   2  184.88    9.48
   4  -7  -2  176.44   13.16
   7  -4   2  182.65   13.89
  -7  -4  -2  148.66    9.02
  -7   4   2  174.62    9.40
  -7   4   2  173.69   12.67
  -7  -4  -2  154.55    8.65
  -7  -4  -2  165.42    8.68
  -4  -7   2  167.24    8.90
  -7   4   2  163.79    9.34
   4  -7  -2  193.76    9.71
   7  -4   2  176.29    9.56
   4  -7  -2  168.39    9.06
  -7  -4  -1   14.80    2.68
  -7   4   1   15.87    2.63
   7  -4   1   18.98    4.86
   4  -7  -1   19.46    4.42
  -7   4   1   18.20    4.27
   4  -7  -1   16.96    2.81
  -7   4   1   17.30    2.94
  -7  -4  -1   15.09    2.53
  -4  -7   1   15.06    2.83
  -7  -4  -1   13.80    2.48
  -7   4   1   16.81    2.80
   4  -7  -1   19.79    2.96
   7  -4   1   16.21    2.90
   4  -7  -1   15.57    2.53
  -7   4   0   13.35    2.54
  -7  -4   0    9.19    2.35
  -7   4   0    9.22    2.09
   7  -4   0    9.59    3.48
   4  -7   0   13.37    3.90
  -7   4   0   11.99    3.55
   4  -7   0    8.83    2.35
  -7   4   0   14.47    2.83
  -7  -4   0   13.29    4.12
  -7  -4   0   11.69    2.33
  -4  -7   0   12.45    2.34
  -7  -4   0   13.05    2.31
  -7   4   0   11.24    2.31
   4  -7   0   11.96    2.36
   4  -7   0   10.36    2.09
  -7   4  -1   13.54    2.64
  -7   4  -1   16.89    2.68
  -7  -4   1   17.00    2.82
   7  -4  -1   13.50    4.18
   4  -7   1   26.75    4.98
  -7  -4   1   13.81    4.04
   4  -7   1   16.02    2.74
  -7   4  -1   19.10    3.25
  -7  -4   1   13.78    2.44
  -7  -4   1   16.47    2.70
  -7   4  -1   20.09    3.01
   4  -7   1   15.37    2.69
  -7  -4   1   16.92    2.64
   4  -7   1   14.89    2.44
  -7  -4   2  156.86    9.13
   7  -4  -2  199.79   13.97
   4  -7   2  173.54   13.07
  -7   4  -2  191.65    9.47
  -7  -4   2  180.88   13.09
   4  -7   2  177.69    9.25
  -7  -4   2  169.10    8.88
  -7  -4   2  142.40    8.39
  -7   4  -2  170.15    9.07
  -7  -4   2  143.24    8.53
  -7   4  -2  183.20    9.24
   4  -7   2  171.95    9.23
  -7   4  -3   13.95    2.52
  -7  -4   3   11.51    2.53
   4  -7   3   18.57    4.52
   7  -4  -3   18.78    4.57
  -7  -4   3   13.23    3.67
   4  -7   3   17.32    2.87
  -7   4  -3   17.30    2.66
  -7  -4   3   17.99    2.82
  -7  -4   3   13.31    2.32
  -7  -4   3   14.92    2.56
   4  -7   3   15.17    2.70
  -7   4  -3   20.60    2.97
  -7   4  -4   18.46    2.91
  -7  -4   4   14.56    2.95
   4  -7   4   21.03    4.63
   7  -4  -4   19.68    4.72
  -7  -4   4   24.27    5.01
  -7   4  -4   25.51    4.91
   4  -7   4   21.17    3.13
  -7   4  -4   22.31    3.23
  -7   4  -4   22.33    3.04
  -7  -4   4   24.39    3.22
  -4  -7  -4   14.62    2.74
  -4  -7  -4   27.79    3.75
  -7  -4   4   16.55    2.81
   4  -7   4   21.82    3.20
  -7   4  -4   25.60    3.20
  -7  -4   5  183.21   10.60
   4  -7   5  218.51   15.00
   7  -4  -5  230.16   15.11
  -7   4  -5  200.65   10.40
  -7  -4   5  187.33   13.77
   4  -7   5  215.33   10.48
  -7   4  -5  220.49   10.83
  -7   4  -5  217.76   14.32
  -7   4  -5  205.61   10.28
  -7   4  -5  204.89   10.25
  -4  -7  -5  203.36   11.15
  -4  -7  -5  206.61   10.22
  -7  -4   5  189.60   10.22
  -7   4  -5  222.54   10.61
   4  -7   5  228.59   10.87
  -7  -4   6  112.29    7.81
   4  -7   6  124.42   11.07
   7  -4  -6  144.86   11.64
  -7  -4   6  128.32   10.81
   4  -7   6  133.14    7.71
  -7   4  -6  117.83    7.64
   7  -4  -6  120.90    7.77
  -7   4  -6  138.87   11.05
  -4  -7  -6  126.94    7.53
  -4  -7  -6  127.21    8.49
  -7   4  -6  127.95    7.52
  -7   4  -6  137.89    7.81
  -7   4  -6  138.47    7.80
   4  -7   6  120.46    7.65
  -7  -4   6  112.34    7.56
  -7  -4   7  192.53   10.93
   4  -7   7  225.79   15.34
   7  -4  -7  199.93   14.29
  -7  -4   7  215.73   14.45
   4  -7   7  236.59   10.85
  -7   4  -7  210.37   10.75
   7  -4  -7  224.39   10.89
  -7   4  -7  220.03   14.38
  -7   4  -7  216.10   10.45
  -7   4  -7  223.41   10.64
  -4  -7  -7  205.71   10.29
  -4  -7  -7  201.47   11.35
  -7  -4   7  202.30   10.78
  -7   4  -7  223.62   10.86
  -7  -4   8   80.10    6.31
   4  -7   8   85.24    9.09
  -7  -4   8   66.75    7.93
   4  -7   8   83.79    5.88
  -7   4  -8   88.59    6.29
   7  -4  -8   81.56    6.00
  -7   4  -8   96.23    8.97
  -7   4  -8   78.42    5.71
  -7   4  -8   75.39    5.59
  -4  -7  -8   94.87    7.00
  -4  -7  -8   73.77    5.55
  -7  -4   8   68.32    5.82
  -4  -7  -8   73.02    5.91
  -7   4  -8   79.85    5.79
  -7  -4   9   17.71    3.30
   4  -7   9   24.54    5.19
  -7  -4   9   23.09    4.90
  -7   4  -9   27.27    5.00
   4  -7   9   27.04    3.36
  -7   4  -9   32.99    3.83
   7  -4  -9   26.91    3.54
  -4  -7  -9   28.08    3.38
  -7   4  -9   24.41    3.18
  -7   4  -9   28.50    3.49
  -4  -7  -9   25.12    3.80
  -7   4  -9   26.67    3.28
  -7  -4   9   23.53    3.51
  -4  -7  -9   24.92    3.38
  -7  -4  10  274.75   13.91
   4  -7  10  318.51   18.87
  -7   4 -10  276.29   16.61
  -7  -4  10  310.37   17.60
   4  -7  10  290.32   12.85
  -7   4 -10  318.71   13.55
   7  -4 -10  301.07   13.11
  -4  -7 -10  287.72   12.77
  -7   4 -10  308.42   13.09
  -4  -7 -10  278.44   14.27
  -7   4 -10  317.65   13.37
  -7  -4  10  265.10   13.50
  -7   4 -10  285.75   12.98
  -4  -7 -10  271.10   13.05
  -7  -4  11  842.74   31.51
   4  -7  11  954.90   38.56
  -7   4 -11  913.06   35.76
  -7  -4  11  802.33   34.89
   4  -7  11  862.16   29.84
  -7   4 -11  922.66   30.60
   7  -4 -11  895.13   30.24
  -7   4 -11  839.95   29.89
  -4  -7 -11  883.72   32.32
  -4  -7 -11  837.55   29.63
  -7   4 -11  863.50   30.28
  -7   4 -11  901.24   30.51
  -7  -4  11  842.25   31.21
  -4  -7 -11  820.65   30.29
   4  -7  11  898.81   30.86
  -7  -4  12  390.33   17.48
   4  -7  12  389.00   22.02
  -7   4 -12  379.85   19.87
  -7  -4  12  411.78   20.76
   4  -7  12  402.42   15.88
   7  -4 -12  399.34   16.25
  -7   4 -12  399.28   16.09
  -7   4 -12  405.94   16.46
  -4  -7 -12  395.44   18.00
  -7  -4  12  372.84   17.02
  -4  -7 -12  371.64   16.20
   4  -7  12  414.91   16.80
  -7   4 -12  388.29   16.30
  -7  -4  13  315.12   14.72
   4  -7  13  292.11   18.58
  -7   4 -13  298.69   16.65
  -7  -4  13  264.76   16.28
   4  -7  13  290.09   12.61
   7  -4 -13  304.45   13.25
  -7   4 -13  276.26   12.81
  -7   4 -13  294.47   13.30
  -4  -7 -13  312.39   15.19
  -7  -4  13  300.99   14.33
  -4  -7 -13  273.04   12.98
  -7   4 -13  295.98   13.33
   4  -7  13  307.00   13.60
  -7  -4  14  535.02   22.20
   4  -7  14  566.28   27.72
   7  -4 -14  543.48   20.64
  -7   4 -14  521.39   24.31
   4  -7  14  536.43   19.92
  -7  -4  14  565.74   25.41
  -7   4 -14  567.82   21.08
  -4  -7 -14  594.42   23.33
  -4  -7 -14  482.86   20.29
  -7  -4  14  540.78   21.99
   4  -7  14  550.10   21.03
  -7  -4  15  174.77   10.67
   4   7 -15  178.86   10.00
   4  -7  15  176.11   14.00
   7  -4 -15  183.87    9.56
  -7   4 -15  171.56   11.94
   4  -7  15  174.96    8.75
  -4   7  15  198.17    9.43
  -7  -4  15  172.84   12.27
  -4  -7 -15  189.80   11.37
  -7   4 -15  191.38    9.88
  -7  -4  15  198.51   11.03
   4  -7  15  186.48    9.79
  -4  -7 -15  161.10    9.21
  -7  -4  16  147.69    9.56
   4  -7  16  158.39   12.98
   4   7 -16  140.99    8.65
   7  -4 -16  153.72    8.49
  -7   4 -16  128.77    9.95
  -4   7  16  141.02    7.73
  -4  -7 -16  162.50   10.24
  -7  -4  16  152.34    9.51
   4  -7  16  145.00    8.50
  -4  -7 -16  133.56    7.98
  -7  -4  17  290.99   14.83
   4  -7  17  328.90   19.83
   4   7 -17  294.25   13.98
   7  -4 -17  305.98   13.52
  -4  -7 -17  325.67   15.79
  -7  -4  17  290.77   14.75
   4  -7  17  307.27   13.72
  -7  -4  18  629.27   26.10
   4   7 -18  653.48   25.29
   4  -7  18  715.97   32.46
   7  -4 -18  719.54   24.88
  -4  -7 -18  712.94   27.42
  -7  -4  18  652.01   26.25
   4  -7  18  667.00   24.74
  -7   4 -19   11.92    2.69
  -7  -4  19   12.29    3.11
   4  -7  19   17.42    4.52
   4   7 -19   11.88    2.85
   7  -4 -19   11.39    2.51
  -4  -7 -19   13.57    3.47
  -7  -4  19   13.10    3.25
   4  -7  19   14.89    2.77
   4   7 -20  334.13   14.97
  -7  -4  20  316.84   15.61
   4  -7  20  329.87   19.99
   7  -4 -20  313.34   13.99
  -4  -7 -20  331.56   16.20
   4  -7  20  316.18   14.01
  -7   4 -20  329.38   14.41
  -7  -4  20  336.35   15.92
  -7   4 -21   18.44    3.09
  -7  -4  21   18.01    3.47
   7  -4 -21   19.49    3.08
   4   7 -21   22.43    3.49
  -4  -7 -21   18.39    3.84
   4  -7  21   16.46    2.74
  -7  -4  21   19.28    3.67
  -7  -4  22  227.89   12.49
   4   7 -22  230.24   11.77
   7  -4 -22  238.22   11.24
   4  -7  22  241.96   11.19
  -4  -7 -22  217.43   12.70
  -7  -4  22  223.79   12.61
  -7   4 -22  242.17   11.52
  -7  -4  23  180.63   10.50
   4   7 -23  177.02    9.73
   7  -4 -23  168.80    9.08
   4  -7  23  173.34    8.96
  -4  -7 -23  148.35   10.18
  -7  -4  23  163.12   10.22
  -7   4 -23  161.26    9.02
  -7  -4  24   19.36    3.43
   4   7 -24   21.57    3.33
   7  -4 -24   15.78    2.80
  -4  -7 -24   19.91    3.71
  -7  -4  24   22.41    3.82
   4  -7  24   17.83    2.79
  -7   4 -24   24.33    3.32
  -7  -4  25   10.99    2.76
  -7   4 -25   13.08    2.50
   4   7 -25   12.53    2.62
   7  -4 -25    5.62    2.00
  -4  -7 -25   12.79    3.32
  -7  -4  25    9.66    2.61
   4  -7  25   10.92    2.09
  -7  -4  26   91.68    6.78
   4   7 -26   82.81    6.13
   7  -4 -26   88.81    5.91
   4  -7  26   83.01    5.52
  -4  -7 -26  100.93    7.56
  -7  -4  26   98.13    7.21
  -7   4 -26   87.83    6.05
  -7   4 -27   11.02    2.31
  -7  -4  27    9.21    2.54
   4   7 -27   14.74    2.61
   7  -4 -27    8.68    2.10
  -4  -7 -27    8.10    2.46
  -7  -4  27   10.54    2.85
   4  -7  27   12.63    2.16
   4   7 -28   22.83    2.98
  -7   4 -28   17.06    2.59
  -7  -4  28   18.67    2.95
   7  -4 -28   16.47    2.44
  -4  -7 -28   20.09    3.34
   4  -7  28   19.88    2.37
  -7  -4  28   19.69    3.31
  -7   4 -29   13.84    2.28
  -7  -4  29   10.95    2.32
   4   7 -29    9.26    2.14
   7  -4 -29    7.56    1.96
  -7  -4  29   16.89    2.32
  -4  -7 -29   14.85    2.94
   4  -7  29   11.66    2.05
  -7  -4  29   12.05    2.57
  -7  -4  30   17.00    2.48
   4   7 -30   14.01    2.24
   7  -4 -30   14.60    2.20
  -7  -4  30   18.07    2.27
  -4  -7 -30   19.36    3.06
  -7  -4  30   11.63    2.59
  -7   4 -30   15.79    2.50
   4  -7  30   18.22    2.31
  -7   4 -31    0.75    1.13
   4   7 -31    1.32    1.12
  -4  -7 -31    0.21    1.39
  -7  -4  31    0.57    0.98
   4  -7  31    0.71    0.96
  -7  -4  31   -2.29    1.79
   4   7 -32   24.96    2.40
  -4  -7 -32   23.17    2.92
  -7   4 -32   21.27    2.44
   4  -7  32   21.68    2.26
   4   7 -33   22.07    2.08
  -4  -7 -33   21.60    2.69
  -7   4 -33   25.56    2.46
   4  -7  33   22.10    2.15
  -4  -7 -34   32.58    2.98
   4  -7  34   34.60    2.51
  -4  -7 -35   33.71    2.64
   4  -7  35   33.97    2.30
  -7  -5 -34    8.80    1.33
   7  -5  34    9.69    1.19
   5  -7 -34   12.44    1.59
  -7  -5 -33   23.52    2.40
   7  -5  33   20.45    1.91
  -7  -5 -32    2.85    1.34
  -7   5  32    4.23    1.57
  -7  -5 -31   81.67    5.24
  -7   5  31   73.64    5.13
  -5  -7  31   65.62    4.39
  -7  -5 -30   60.36    4.78
  -7   5  30   57.46    4.77
  -5  -7  30   53.79    3.96
  -5   7 -30   50.18    3.14
  -7  -5 -29  103.57    6.84
  -7   5  29  106.06    6.90
  -5  -7  29  100.00    5.97
  -5   7 -29  101.76    5.11
  -5   7 -28    8.46    1.52
  -7  -5 -28    9.08    2.38
  -5  -7  28    5.32    1.73
  -5   7 -27   12.29    1.99
  -7  -5 -27   15.69    3.06
  -5  -7  27    9.71    2.18
  -7  -5 -26  142.11    8.84
  -5   7 -26  136.46    6.86
  -5  -7  26  118.89    7.35
  -7  -5 -25   20.75    3.60
  -5  -7  25   18.24    2.79
  -5   7 -25   17.19    2.40
  -7   5  24   35.14    3.93
  -5  -7  24   38.98    4.07
  -5   7 -24   40.46    3.67
  -7   5  23   45.31    4.52
   7  -5  23   47.21    3.60
  -7  -5 -23   50.29    5.46
  -5   7 -23   50.07    4.16
  -5  -7  23   38.58    4.15
  -5   7 -22   -0.59    1.53
  -7   5  22    1.72    1.45
  -5   7 -22    2.15    1.51
  -7  -5 -22    0.34    2.10
   7  -5  22    0.16    1.08
  -5  -7  22   -0.25    1.39
  -7   5  21   36.76    4.12
  -5   7 -21   28.97    3.40
   7  -5  21   36.56    3.39
  -7  -5 -21   34.96    4.68
  -5   7 -21   35.47    3.61
  -5  -7  21   32.16    3.83
  -7   5  20  148.16    8.87
  -5   7 -20  155.42    8.33
  -7  -5 -20  171.87   10.64
   7  -5  20  159.11    7.96
   5  -7 -20  137.98    8.12
  -5   7 -20  161.88    8.47
  -5  -7  20  142.54    8.76
  -7   5  19  160.76    9.45
  -5   7 -19  166.48    8.76
  -7  -5 -19  187.53   11.11
   5  -7 -19  149.01    8.66
   7  -5  19  183.66    8.73
  -5   7 -19  166.88    8.78
  -5  -7  19  159.62    9.18
  -7   5  18   69.75    8.42
  -5   7 -18   78.56    5.57
   7   5 -18   66.52    5.04
   5  -7 -18   66.07    4.66
  -5   7 -18   72.51    4.78
  -7  -5 -18   79.09    7.04
  -5  -7  18   66.83    5.64
   7  -5  18   73.97    5.25
   5  -7 -18   70.85    5.60
  -5   7 -18   78.97    5.64
  -5   7 -17   12.05    2.65
  -7   5  17   11.96    4.13
  -5   7 -17   10.20    2.15
   5  -7 -17   10.22    2.05
   7   5 -17   12.84    2.45
  -5   7 -17   13.61    2.17
  -7  -5 -17   15.46    3.33
  -5  -7  17   11.44    2.46
   7  -5  17   14.70    2.50
   5  -7 -17   12.17    2.51
  -5   7 -16  253.49   12.03
  -7   5  16  272.69   17.84
   7   5 -16  276.42   12.01
  -5   7 -16  284.35   11.98
   5  -7 -16  268.20   11.77
  -7  -5 -16  303.98   14.82
   7  -5  16  272.63   12.28
  -5  -7  16  243.06   12.30
   5  -7 -16  274.93   12.95
  -5   7 -16  289.52   12.74
  -5   7 -15  149.81    8.67
   7   5 -15  165.58    8.68
   5  -7 -15  173.68    8.86
  -5   7 -15  179.77    8.91
  -5   7 -15  175.29   11.84
  -7   5  15  184.31   10.93
  -7  -5 -15  183.92   11.09
  -5   7 -15  171.63    9.29
   7  -5  15  173.89    9.15
   5  -7 -15  172.30    9.69
  -5   7 -14   75.16    5.62
  -7  -5 -14   58.23    7.97
  -7   5  14   82.22    8.34
   7   5 -14   77.02    5.55
  -5   7 -14   93.61    6.06
   5  -7 -14   86.50    5.84
  -5   7 -14   78.35    7.82
  -7   5  14   72.26    6.76
  -7  -5 -14   91.08    7.39
   7  -5  14   86.13    6.06
   5  -7 -14   78.40    6.30
  -5   7 -14   95.87    6.41
   7  -5  13  207.59   16.86
  -5   7 -13  171.92    9.39
  -7   5  13  151.57   12.27
   7   5 -13  196.02    9.54
   5  -7 -13  194.98    9.86
  -5   7 -13  205.02    9.98
  -7   5  13  207.04   10.16
  -7  -5 -13  175.40   13.50
  -7   5  13  214.04   11.73
  -7  -5 -13  211.68   11.85
   7  -5  13  194.77   10.10
  -5   7 -13  199.42   10.19
   5  -7 -13  207.64   10.83
  -5   7 -12    6.23    2.09
   7  -5  12    5.49    3.59
  -7  -5 -12    8.09    3.25
  -7   5  12    6.74    2.88
  -5   7 -12    8.32    1.94
   7   5 -12    7.29    2.02
   5  -7 -12    5.87    2.07
  -5   7 -12    5.74    2.00
  -7   5  12    7.57    2.15
  -7  -5 -12    7.09    2.56
  -7   5  12    6.73    2.43
   7  -5  12    8.00    2.20
   5  -7 -12    8.83    2.67
   7  -5  11  153.55   14.21
   7   5 -11  128.23    7.46
   5  -7 -11  138.26    8.06
  -5   7 -11  150.66    8.35
  -7  -5 -11  123.30   10.92
  -7   5  11  141.92    8.29
  -7   5  11  122.08   10.69
  -7   5  11  148.69    9.39
  -7  -5 -11  148.97    9.65
  -5   7 -11  140.93    8.40
   7  -5  11  147.47    8.47
   5  -7 -11  139.35    8.77
   7  -5  10   19.13    5.19
  -5   7 -10    8.97    2.44
   5  -7 -10   11.25    2.49
  -7   5  10   13.85    3.94
  -7  -5 -10    4.95    3.13
   7   5 -10   13.53    2.45
  -5   7 -10    9.32    2.33
  -7   5  10   16.77    2.94
  -7  -5 -10    9.85    2.81
  -7   5  10    9.53    2.66
   7  -5  10   15.71    2.82
   5  -7 -10   12.80    2.86
   7  -5   9  283.78   19.31
   5  -7  -9  272.56   12.63
  -7  -5  -9  258.41   16.78
  -7   5   9  268.51   12.73
  -7   5   9  261.77   16.55
  -7   5   9  281.23   13.78
  -7  -5  -9  283.37   14.09
  -5   7  -9  286.07   13.18
   7  -5   9  265.28   12.72
   5  -7  -9  284.02   13.42
   7  -5   8   50.53    8.15
   5  -7  -8   65.45    5.30
  -7  -5  -8   55.19    7.28
  -7   5   8   59.33    5.15
  -7   5   8   61.84    7.47
  -7  -5  -8   59.39    5.78
  -7   5   8   51.98    5.20
  -7  -5  -8   47.41    4.15
   7  -5   8   64.39    5.35
  -5   7  -8   56.01    5.18
   5  -7  -8   57.42    5.41
   7  -5   7  137.57   13.16
   5  -7  -7  129.10    7.95
  -7  -5  -7  127.52   11.35
  -7   5   7  117.82    7.81
  -7   5   7  129.30   11.20
  -7  -5  -7  140.67    9.01
  -7   5   7  125.69    8.33
  -7  -5  -7  127.32    7.23
   7  -5   7  141.25    8.36
   5  -7  -7  141.07    8.65
  -5   7  -7  145.53    8.50
   7  -5   6   91.43   10.47
   5  -7  -6   99.36    6.71
  -7  -5  -6   77.80    8.99
  -7   5   6   89.06    6.58
  -7   5   6   84.08    8.86
  -7  -5  -6   97.12    7.23
  -7   5   6   81.45    6.55
  -7  -5  -6   83.44    5.72
   7  -5   6   98.85    6.83
   5  -7  -6   91.47    6.73
   7  -5   5   12.71    4.93
  -7   5   5    8.30    3.34
   5  -7  -5   12.49    2.58
  -7   5   5   14.66    2.76
  -7  -5  -5   10.38    3.74
  -7  -5  -5   12.82    2.78
  -7  -5  -5    7.76    2.04
  -7   5   5   10.51    2.66
   7  -5   5   13.66    2.81
   5  -7  -5    8.20    2.25
   7  -5   4    9.72    4.34
   5  -7  -4    7.25    3.71
  -7   5   4   13.90    4.00
  -7  -5  -4    5.77    2.98
  -7   5   4    9.91    2.52
  -7  -5  -4    8.96    2.13
  -7   5   4    8.93    2.35
   7  -5   4    8.76    2.36
   5  -7  -4   10.61    2.62
   7  -5   3   99.49   10.74
   5  -7  -3  105.91   10.65
  -7   5   3  101.94    7.15
  -7   5   3  103.78    9.91
  -7  -5  -3   85.72    6.09
  -7   5   3  109.95    7.26
   5  -7  -3  115.55    7.62
   7  -5   3  108.31    7.42
   5  -7  -3  100.40    6.67
   7  -5   2   68.04    8.65
   5  -7  -2   56.23    7.79
  -7   5   2   52.85    5.08
  -7   5   2   44.11    6.65
  -7  -5  -2   47.46    4.36
  -7   5   2   44.25    4.49
   7  -5   2   56.12    5.22
   5  -7  -2   61.97    5.36
   7  -5   1  393.15   22.77
   5  -7  -1  412.01   22.63
  -7   5   1  409.18   16.94
  -7   5   1  390.02   21.36
  -7   5   1  388.08   16.35
  -7  -5  -1  355.83   15.59
   5  -7  -1  417.50   17.12
   7  -5   1  410.80   17.19
   7  -5   0  154.57   13.25
   5  -7   0  159.52   13.00
  -7   5   0  163.73    9.16
  -7   5   0  160.83   12.54
  -7  -5   0  148.17   12.67
  -7  -5   0  137.61    8.04
  -7   5   0  141.23    8.30
   5  -7   0  149.08    8.95
   7  -5   0  153.65    9.30
   7  -5  -1  368.57   21.85
   5  -7   1  390.13   22.23
  -7  -5   1  374.19   21.50
  -7   5  -1  393.26   16.65
  -7  -5   1  377.81   15.87
  -7   5  -1  367.73   15.81
   5  -7   1  399.26   16.90
   7  -5  -1  423.86   17.39
  -7   5  -1  402.34   16.72
   5  -7   2   48.18    7.23
   7  -5  -2   56.32    7.93
  -7  -5   2   63.96    8.16
  -7   5  -2   53.27    4.64
  -7   5  -2   49.91    4.48
  -7  -5   2   48.46    4.51
  -7   5  -2   59.45    5.23
   7  -5  -2   48.99    4.99
   5  -7   2   49.94    4.95
   5  -7   3  103.98   10.51
   7  -5  -3  116.11   11.01
  -7  -5   3   99.33   10.01
  -7   5  -3  109.01   10.22
  -7   5  -3   97.24    6.47
  -7   5  -3  101.23    6.54
  -7  -5   3   97.38    6.68
  -7   5  -3  110.68    7.26
   7  -5  -3  117.40    7.83
   5  -7   3  100.39    7.08
  -7   5  -4    9.72    2.28
   5  -7   4    5.08    3.01
   7  -5  -4   13.05    4.34
  -7   5  -4    8.91    3.36
   5  -7   4   12.44    2.53
  -7  -5   4   10.35    3.66
   7  -5  -4   11.32    2.69
  -7   5  -4   12.28    2.40
  -7   5  -5   15.99    2.96
   5  -7   5   10.26    3.94
   7  -5  -5   14.11    4.29
  -7   5  -5   10.50    3.98
   5  -7   5    8.48    2.39
   7  -5  -5   11.18    2.62
  -7  -5   5    9.72    3.45
  -7   5  -5   10.00    2.60
  -5  -7  -5   12.51    2.87
  -7   5  -5   13.76    2.50
  -7  -5   5    9.38    2.13
   5  -7   6  106.17   10.65
   7  -5  -6   88.77    9.69
   5  -7   6  102.02    6.77
  -7  -5   6   88.97    9.37
  -7   5  -6  103.70    6.95
   7  -5  -6   92.82    6.10
  -7   5  -6  105.22    9.87
  -7   5  -6   84.06    6.00
  -5  -7  -6  106.74    7.71
  -7  -5   6   75.37    5.95
  -7   5  -6  104.03    6.87
  -7  -5   7  123.77    7.88
   5  -7   7  134.11   12.10
  -7  -5   7  132.58   11.39
   5  -7   7  135.06    7.95
  -7   5  -7  140.80    8.33
  -7   5  -7  140.89   11.41
   7  -5  -7  131.95    7.34
  -5  -7  -7  147.09    9.37
  -7   5  -7  129.20    7.59
  -7   5  -7  133.76    8.13
  -7  -5   7  114.74    7.67
  -7  -5   8   45.25    4.70
   5  -7   8   50.07    7.65
   5  -7   8   58.78    4.97
  -7  -5   8   61.77    7.62
  -7   5  -8   54.86    5.01
  -7   5  -8   65.39    7.59
   7  -5  -8   51.63    4.43
  -5  -7  -8   60.40    5.94
  -7   5  -8   54.70    4.68
  -7  -5   8   49.38    4.85
   5  -7   8   52.36    5.02
  -7   5  -8   63.94    5.30
  -7  -5   9  219.94   12.03
   5  -7   9  292.22   18.52
   5  -7   9  265.74   12.27
  -7  -5   9  264.36   16.79
  -7   5  -9  296.64   12.98
  -7   5  -9  263.79   16.19
   7  -5  -9  271.27   11.78
  -5  -7  -9  262.02   13.79
  -7   5  -9  268.38   12.09
  -7  -5   9  237.40   12.24
  -7   5  -9  280.79   12.69
   5  -7   9  272.08   12.82
  -7   5 -10    8.93    2.30
  -7  -5  10    3.64    1.91
   5  -7  10    7.35    3.35
  -7   5 -10    9.86    3.53
  -7  -5  10   14.05    4.09
   7  -5 -10   11.23    2.27
   5  -7  10   10.61    2.30
  -5   7  10   10.87    2.43
  -7   5 -10   14.20    2.77
  -7   5 -10    7.76    2.06
  -5  -7 -10   10.89    3.07
  -7  -5  10    8.02    2.50
   5  -7  10   10.11    2.57
  -7  -5  11  115.01    7.96
   5  -7  11  165.56   13.47
   7  -5 -11  136.25    7.57
   5  -7  11  139.49    7.97
  -5   7  11  139.80    8.17
  -7  -5  11  132.75   11.33
  -7   5 -11  148.22    8.34
  -7   5 -11  146.74   11.43
  -5  -7 -11  155.83    9.89
  -7   5 -11  144.81    8.09
  -7  -5  11  118.49    8.21
   5  -7  11  148.44    8.61
  -7  -5  12    4.83    1.96
   5  -7  12    9.52    3.85
  -7   5 -12    7.97    3.06
   7  -5 -12    9.78    2.25
   5  -7  12    5.56    1.88
  -7  -5  12    8.88    3.27
  -5   7  12    4.92    1.89
  -7   5 -12   10.91    2.35
  -7   5 -12    8.75    2.18
  -5  -7 -12    7.74    2.73
  -7  -5  12    7.61    2.14
   5  -7  12    8.94    2.44
  -7  -5  13  174.67   10.25
   5  -7  13  223.05   16.06
  -7   5 -13  186.86   13.02
   7  -5 -13  192.13    9.49
   5  -7  13  198.52    9.65
  -5   7  13  202.83   10.03
  -7   5 -13  193.55    9.86
  -7  -5  13  173.83   13.29
  -7   5 -13  204.55   10.09
  -5  -7 -13  217.09   12.19
  -7  -5  13  197.75   10.85
   5  -7  13  183.07   10.11
  -7  -5  14   76.33    6.21
   5  -7  14   88.57    9.87
  -7   5 -14   68.42    7.49
   7  -5 -14   75.37    5.42
  -5   7  14   78.04    5.69
  -5   7  14   82.66    8.34
   5  -7  14   80.88    5.50
  -7  -5  14   70.85    8.13
  -5  -7 -14   80.19    7.27
  -7  -5  14   75.83    6.42
   5  -7  14   81.59    6.09
  -7  -5  15  156.71    9.60
   5  -7  15  201.48   15.21
  -7   5 -15  153.37   11.32
   7  -5 -15  160.68    8.55
   5  -7  15  162.76    8.35
  -5   7  15  159.89    8.65
  -5  -7 -15  183.02   11.21
  -7  -5  15  184.73   10.38
   5  -7  15  189.37    9.70
  -7  -5  16  253.34   13.10
   5   7 -16  268.15   12.59
   5  -7  16  315.61   19.72
   7  -5 -16  265.36   12.01
  -5   7  16  270.08   12.00
  -5  -7 -16  300.97   15.06
  -7  -5  16  272.32   13.66
  -7   5 -16  288.98   12.95
   5  -7  16  280.94   12.82
  -7   5 -17   13.27    2.74
  -7  -5  17   12.30    2.74
   5  -7  17    9.57    3.88
   5   7 -17   14.88    2.67
   7  -5 -17   12.41    2.48
  -5  -7 -17   13.50    3.60
  -7  -5  17   14.65    3.01
   5  -7  17   13.28    2.63
  -7  -5  18   66.56    5.94
   5  -7  18   94.02   10.05
   5   7 -18   74.81    5.70
   7  -5 -18   65.81    5.16
   7  -5 -18   67.05    4.80
  -5  -7 -18   84.06    7.38
  -7  -5  18   71.29    6.23
   5  -7  18   77.59    5.75
  -7   5 -18   77.55    5.88
  -7  -5  19  148.30    9.29
   5   7 -19  171.99    9.17
   7  -5 -19  147.78    8.28
  -5  -7 -19  181.96   11.13
  -7  -5  19  175.80   10.18
   5  -7  19  167.69    8.95
  -7   5 -19  165.73    9.08
  -7  -5  20  139.56    8.96
   5   7 -20  160.59    8.78
   7  -5 -20  140.08    7.93
   5  -7  20  146.58    8.25
  -5  -7 -20  173.68   10.72
  -7   5 -20  158.69    8.76
  -7  -5  20  167.74    9.84
  -7  -5  21   38.50    4.31
   5   7 -21   30.39    3.66
   7  -5 -21   29.28    3.39
  -5  -7 -21   38.29    5.09
   5  -7  21   38.70    3.88
  -7   5 -21   38.91    3.96
  -7  -5  21   36.03    4.52
  -7   5 -22    0.44    1.52
  -7  -5  22   -0.25    1.50
   5   7 -22   -0.22    1.22
   7  -5 -22    2.74    1.40
  -5  -7 -22    0.34    1.85
  -7  -5  22    0.29    1.70
   5  -7  22   -0.20    1.20
  -7  -5  23   39.30    4.24
   5   7 -23   49.75    4.37
   7  -5 -23   38.45    3.78
   5  -7  23   50.52    4.18
  -5  -7 -23   54.48    5.74
  -7  -5  23   47.21    4.98
  -7   5 -23   51.00    4.52
   5   7 -24   36.52    3.75
  -5  -7 -24   44.36    5.31
   5  -7  24   38.29    3.59
  -7  -5  24   37.01    4.47
  -7   5 -24   44.85    4.17
  -7   5 -25   15.50    2.62
   5   7 -25   16.73    2.57
  -5  -7 -25   20.09    3.62
   5  -7  25   19.75    2.57
  -7  -5  25   16.95    3.13
  -5  -7 -26  139.27    8.75
   5  -7  26  132.49    6.82
  -7  -5  26  118.72    8.02
  -7   5 -26  143.39    7.52
  -7   5 -27   15.23    2.35
  -5  -7 -27   12.34    2.93
  -7  -5  27   13.74    2.69
   5  -7  27   13.30    1.95
  -7   5 -28    7.80    1.88
  -5  -7 -28    3.97    2.02
   5  -7  28    8.22    1.59
  -7  -5  28    7.72    2.17
  -5  -7 -29  109.40    7.00
  -7  -5  29  105.95    5.83
  -7  -5  29  105.68    6.66
  -7   5 -29  103.72    5.80
   5  -7  29  103.24    5.63
  -7  -5  30   62.54    4.00
  -5  -7 -30   59.24    4.84
  -7  -5  30   52.60    4.35
  -7   5 -30   64.79    4.17
   5  -7  30   55.70    3.80
  -7  -5  31   84.68    4.34
  -5  -7 -31   82.10    5.37
  -7  -5  31   80.56    5.12
  -7   5 -31   87.93    4.59
   5  -7  31   84.94    4.41
  -7   5 -32    4.60    1.25
  -5  -7 -32    5.12    1.62
  -7  -5  32    2.08    0.90
  -5   7  32    0.51    0.88
   5  -7  32    5.20    1.18
  -7  -5  32    3.12    1.27
  -5  -7 -33   20.06    2.35
  -7  -5  33   20.79    2.27
   5  -7  33   23.49    1.94
  -5  -7 -34   10.15    1.46
  -7  -5  34    8.33    1.33
  -6  -7  32   31.28    2.10
  -7  -6 -32   25.53    2.33
   7  -6  32   26.48    1.95
  -7  -6 -31   24.32    2.51
  -6  -7  31   27.96    2.26
   7  -6  31   23.26    1.94
  -6   7 -30    6.09    1.04
  -7  -6 -30    6.03    1.54
  -7   6  30    4.13    1.41
  -6   7 -29   10.28    1.44
  -7   6  29    8.73    1.89
  -7  -6 -29   10.23    2.14
  -6   7 -28    7.70    1.45
  -7  -6 -28    8.45    2.18
  -7   6  28    6.60    1.81
  -6   7 -27    4.43    1.32
  -7  -6 -27    2.73    1.62
  -7   6  27    3.46    1.60
  -6   7 -26    5.33    1.42
  -7  -6 -26    5.47    2.02
  -7   6  26    6.65    2.06
   7  -6  25   20.39    2.07
  -7  -6 -25   18.70    3.37
  -7   6  25   18.07    3.11
  -6   7 -25   20.19    2.47
  -7  -6 -24  113.17    7.81
   7  -6  24  101.87    5.36
  -7   6  24   98.74    7.00
  -6   7 -24  102.47    5.94
   7  -6  23   94.75    5.36
  -7   6  23  102.38    7.22
  -7  -6 -23   95.31    7.33
  -6   7 -23   97.37    5.92
  -6   7 -22    1.68    1.47
  -7  -6 -22    0.31    1.85
  -7   6  22    2.49    1.82
  -6  -7  22    1.30    1.33
   7  -6  22    2.38    1.41
   7  -6  21   44.63    3.73
  -7   6  21   47.05    5.01
  -6   7 -21   47.50    4.16
  -6  -7  21   38.83    4.05
   6  -7 -21   39.45    3.80
   7  -6  20  160.92    7.91
  -7  -6 -20  170.48   10.35
  -7   6  20  171.95    9.89
  -6  -7  20  131.26    8.21
  -6   7 -20  160.55    8.31
   6  -7 -20  131.34    7.92
  -7  -6 -19  166.14   10.40
  -7   6  19  179.19   10.16
  -6  -7  19  133.36    8.33
   6  -7 -19  150.29    8.61
  -6   7 -19  170.18    8.63
   7  -6  19  145.55    7.89
   6  -7 -18   72.69    4.86
  -7  -6 -18   89.64    7.48
  -7   6  18   85.09    6.81
  -6  -7  18   72.05    5.69
   7  -6  18   81.80    5.59
   6  -7 -18   89.50    6.34
  -6   7 -18   96.00    6.21
   6  -7 -17   23.71    2.76
  -6   7 -17   21.18    2.64
  -7  -6 -17   21.27    4.02
  -7   6  17   21.80    3.63
   7  -6  17   25.53    3.21
  -6  -7  17   20.20    3.00
  -6   7 -17   23.44    3.18
   6  -7 -17   23.57    3.39
  -6   7 -16   19.02    3.00
   7  -6  16   20.01    2.56
   6  -7 -16   20.43    2.74
  -6   7 -16   20.33    2.61
  -7  -6 -16   17.88    3.79
  -7   6  16   23.36    3.75
   7  -6  16   20.47    2.91
   6  -7 -16   19.47    3.24
  -6   7 -15   21.55    3.23
   7  -6  15   15.82    4.76
   6  -7 -15   23.50    2.97
   7  -6  15   24.90    2.90
  -6   7 -15   26.96    3.11
  -7  -6 -15   27.06    4.41
  -7   6  15   27.22    3.93
   6  -7 -15   25.34    3.63
   7  -6  15   34.43    3.71
   7  -6  14  281.22   19.61
   7  -6  14  261.32   11.88
   6  -7 -14  282.14   12.45
  -6   7 -14  270.04   12.25
  -7   6  14  283.06   12.63
  -6   7 -14  261.81   15.60
  -7   6  14  283.06   13.91
  -7  -6 -14  321.28   15.30
  -6   7 -14  281.82   12.82
   7  -6  14  274.43   12.68
   6  -7 -14  280.81   13.56
   7  -6  13   33.58    6.56
  -6   7 -13   31.08    5.04
  -7   6  13   34.06    5.56
   6  -7 -13   34.13    3.77
  -6   7 -13   30.97    3.61
  -7   6  13   37.23    3.99
  -7   6  13   28.83    4.03
  -7  -6 -13   33.60    4.80
  -6   7 -13   43.80    4.34
   6  -7 -13   33.06    4.23
   7  -6  13   29.20    3.71
  -6   7 -12   22.86    4.56
  -7   6  12   24.92    4.86
  -6   7 -12   25.45    3.33
  -7   6  12   22.57    3.21
   6  -7 -12   24.05    3.27
  -7  -6 -12   32.05    4.60
  -7   6  12   26.07    3.83
   7  -6  12   26.46    3.48
  -6   7 -12   24.82    3.38
   6  -7 -12   32.64    4.19
  -6   7 -11  101.97    6.70
   6  -7 -11   91.12    6.43
  -7   6  11   93.03    6.58
  -6   7 -11   93.55    9.01
  -7   6  11   92.02    9.43
  -7  -6 -11  103.90    8.09
  -7   6  11   92.80    7.05
   7  -6  11   91.62    6.68
   6  -7 -11  104.17    7.42
  -6   7 -11   85.91    6.43
  -7  -6 -10   67.46    8.47
   6  -7 -10   84.27    6.15
  -6   7 -10   77.51    5.96
  -7   6  10   86.92    6.35
  -6   7 -10   82.07    8.43
  -7   6  10   71.18    8.11
  -7   6  10   72.44    6.28
  -7  -6 -10   89.06    7.38
   7  -6  10   88.28    6.42
   6  -7 -10   75.16    6.33
  -6   7 -10   77.22    6.06
  -6   7  -9   11.28    2.65
  -6   7  -9    7.57    3.00
  -7   6   9    6.72    3.17
  -7  -6  -9    8.33    3.37
   6  -7  -9    5.64    2.13
  -6   7  -9    6.29    1.98
  -7   6   9    6.85    2.23
  -7  -6  -9    7.15    2.51
  -7   6   9    6.37    2.22
   7  -6   9    4.97    2.08
   6  -7  -9    7.40    2.45
  -7  -6  -8  102.29   10.65
   6  -7  -8  114.35    7.53
  -6   7  -8  128.03    7.90
  -7   6   8  126.71    7.96
  -6   7  -8  124.00   10.70
  -7   6   8  101.76   10.04
  -7   6   8  110.38    7.64
  -7  -6  -8  124.39    8.83
   6  -7  -8  125.09    8.39
  -6   7  -8  137.11    8.22
   7  -6   8  113.54    7.69
  -6   7  -7  206.43   10.75
  -7   6   7  213.49   11.01
  -7   6   7  200.96   14.45
  -7  -6  -7  173.79   14.28
  -7  -6  -7  211.57   11.84
  -7  -6  -7  168.04    8.96
  -7   6   7  191.02   10.44
   7  -6   7  218.45   11.09
   6  -7  -7  238.23   11.86
  -6   7  -7  212.03   11.04
  -6   7  -6  162.28    9.12
  -7   6   6  141.96    8.70
  -7   6   6  149.64   12.42
  -7  -6  -6  125.91   11.90
  -7   6   6  151.90    8.85
  -7  -6  -6  127.51    7.44
   7  -6   6  157.02    9.16
  -6   7  -6  154.06    9.08
   6  -7  -6  154.26    9.47
   7  -6   5  200.76   15.69
  -6   7  -5  191.34   10.14
  -7   6   5  163.03    9.75
  -7  -6  -5  170.11   14.04
  -7   6   5  155.44   12.90
  -7  -6  -5  148.88    8.39
   7  -6   5  185.26   10.16
   6  -7  -5  185.79   10.39
  -6   7  -5  206.75   10.57
  -7   6   4  138.66    8.57
  -7  -6  -4  120.46   11.92
  -7   6   4  135.52   11.65
  -7  -6  -4  118.76    7.21
   7  -6   4  140.27    8.68
   6  -7  -4  145.57    8.98
   7  -6   3   59.45    8.29
  -7   6   3   53.06    5.05
  -7   6   3   45.39    6.77
  -7  -6  -3   35.34    6.79
  -7  -6  -3   41.48    4.09
   6  -7  -3   49.89    5.20
   7  -6   3   52.66    5.26
   7  -6   2   14.00    4.48
   6  -7  -2   14.59    4.52
  -7   6   2   18.92    4.55
  -7   6   2   16.78    3.02
  -7  -6  -2   17.73    2.75
   7  -6   2   22.46    3.46
   6  -7  -2   18.47    3.32
   7  -6   1   22.14    5.25
   6  -7  -1   18.73    4.90
  -7   6   1   23.68    4.97
  -6   7  -1   20.07    3.36
  -7   6   1   17.62    3.15
  -7  -6  -1   19.49    3.02
  -6  -7   1   17.03    2.62
   6  -7  -1   19.52    3.40
   7  -6   1   23.84    3.55
   7  -6   0  149.37   13.06
   6  -7   0  131.01   12.41
  -7   6   0  146.42    8.75
  -6   7   0  138.26    8.54
  -7  -6   0  123.95   12.07
  -7   6   0  125.02   11.34
  -7  -6   0  132.37    7.82
  -6  -7   0  124.32    7.39
   6  -7   0  146.98    8.90
   7  -6   0  145.92    8.96
   6  -7   1   15.46    4.44
   7  -6  -1   19.07    5.10
  -7  -6   1   20.31    5.04
  -6   7   1   17.34    3.29
  -7   6  -1   19.56    3.39
  -6  -7  -1   13.69    2.40
  -7  -6   1   18.07    2.85
   7  -6  -1   16.45    3.19
  -7   6  -2   21.39    3.42
   6  -7   2   24.36    5.37
   7  -6  -2   19.59    5.06
  -7  -6   2   12.02    4.25
  -6   7   2   14.05    2.96
  -6  -7  -2   18.13    2.52
  -7  -6   2   14.18    2.67
   7  -6  -2   18.10    3.24
   6  -7   3   52.97    7.97
   7  -6  -3   47.40    7.39
  -6   7   3   47.39    4.84
  -7  -6   3   57.91    7.90
  -7   6  -3   48.15    6.75
  -6  -7  -3   40.66    3.78
  -7  -6   3   52.12    4.80
  -7   6  -3   50.79    5.00
   6  -7   4  161.97   13.72
   7  -6  -4  126.24   12.19
  -6   7   4  135.89    8.52
  -7  -6   4  126.93   11.98
  -7   6  -4  137.69   11.78
  -7  -6   4  142.91    8.41
  -7   6  -4  148.28    8.77
  -6   7   5  185.33   10.15
  -7   6  -5  177.70   10.05
  -7  -6   5  174.84   14.01
  -7   6  -5  180.15   13.46
   6  -7   5  184.14   14.86
   6  -7   5  182.04   10.25
  -7   6  -5  184.54   10.18
  -6   7   6  152.35    9.06
  -7   6  -6  159.51    9.24
  -7  -6   6  126.43   12.07
  -7   6  -6  156.96   12.32
   6  -7   6  152.34   13.69
  -7   6  -6  164.76    9.27
   6  -7   6  148.82    9.06
   6  -7   7  222.89   16.51
   6  -7   7  208.41   10.80
  -6   7   7  216.17   11.25
  -7   6  -7  209.66   11.02
  -7   6  -7  195.85   14.41
  -7  -6   7  199.26   15.09
  -6  -7  -7  236.25   12.63
  -7   6  -7  218.06   11.24
   7  -6  -7  222.63   12.22
   6  -7   7  235.31   11.68
   6  -7   8  113.25   11.61
   6  -7   8  120.51    7.60
  -6   7   8  124.28    7.87
  -7   6  -8  125.93    8.00
  -6   7   8  119.94   10.85
  -7   6  -8  108.34   10.26
  -7  -6   8  104.83   10.65
  -6  -7  -8  134.02    9.17
   6  -7   8  124.00    8.06
   7  -6  -8  125.84    8.57
   6  -7   9    4.95    3.45
  -6   7   9    6.15    2.95
  -7   6  -9    8.70    3.21
  -7  -6   9    4.68    3.01
   6  -7   9    6.85    2.07
  -6   7   9    4.31    2.04
  -7   6  -9    8.36    2.47
  -6  -7  -9    8.71    2.85
   6  -7   9    8.76    2.45
   7  -6  -9    7.06    2.57
   6  -7  10   77.99    9.53
  -7  -6  10   64.28    8.30
   6  -7  10   76.81    5.75
  -6   7  10   74.06    5.86
  -7   6 -10   73.17    5.80
  -6   7  10   79.37    8.68
  -7   6 -10   59.50    7.39
  -6  -7 -10   91.93    7.43
   6  -7  10   84.18    6.29
   7  -6 -10   83.47    6.90
   6  -7  11  102.77   10.90
   6  -7  11   94.93    6.39
  -6   7  11   93.88    6.69
  -7   6 -11  104.91    6.87
  -6   7  11   88.00    8.96
  -7   6 -11   91.11    9.03
  -6  -7 -11  122.89    8.76
  -7  -6  11   79.44    6.25
   6  -7  11  105.15    7.05
   6  -7  12   28.36    6.03
  -6   7  12   25.84    4.96
  -7   6 -12   28.55    4.98
   6  -7  12   25.52    3.38
  -6   7  12   37.69    4.02
  -7   6 -12   29.65    3.57
  -6  -7 -12   32.89    4.80
  -7  -6  12   27.04    3.48
   6  -7  12   25.38    3.50
   6  -7  13   38.95    6.69
  -6   7  13   26.61    5.06
  -7   6 -13   32.90    5.28
   6  -7  13   38.38    3.79
  -6   7  13   31.73    3.65
  -7   6 -13   36.52    3.90
  -6  -7 -13   31.97    4.73
  -7  -6  13   26.11    3.65
   6  -7  13   32.41    3.89
  -7   6 -13   25.28    3.60
   6  -7  14  270.44   18.77
  -7   6 -14  266.78   15.74
   6  -7  14  269.60   11.94
  -6   7  14  286.91   12.55
  -7   6 -14  286.03   12.48
  -6  -7 -14  314.85   15.27
  -7  -6  14  240.35   12.61
   6  -7  14  282.28   12.83
  -7   6 -14  274.57   12.77
   6  -7  15   22.43    5.41
   6  -7  15   23.32    2.88
   7  -6 -15   31.65    3.46
  -6   7  15   26.94    3.24
  -6  -7 -15   27.02    4.43
  -7  -6  15   24.85    3.46
   6  -7  15   22.31    3.17
  -7   6 -15   23.41    3.32
   6  -7  16   21.15    2.54
   7  -6 -16   17.84    2.60
  -6   7  16   19.49    2.68
  -6  -7 -16   28.03    4.40
  -7  -6  16   19.99    3.29
   6  -7  16   22.34    3.13
  -7   6 -16   24.18    3.34
   7  -6 -17   21.77    2.68
  -6  -7 -17   19.98    4.02
  -6   7  17   22.04    3.31
   6  -7  17   24.92    3.25
  -7  -6  17   18.71    3.16
  -7   6 -17   30.17    3.53
   7  -6 -18   74.42    4.93
  -6   7  18   82.12    6.39
  -6  -7 -18   92.08    7.77
  -7  -6  18   70.38    5.99
   6  -7  18   88.81    5.93
  -7   6 -18   86.47    6.09
  -6   7  19  155.89    9.24
  -6  -7 -19  165.58   10.45
  -7  -6  19  147.33    9.10
  -7   6 -19  170.84    8.88
   6  -7  19  159.11    8.42
   6  -7  20  157.93    8.26
  -6  -7 -20  166.69   10.42
  -6   7  20  145.29    8.95
  -7  -6  20  152.89    9.19
  -7   6 -20  174.25    8.86
   6  -7  21   47.65    4.12
  -6   7  21   45.57    4.67
  -6  -7 -21   49.39    5.61
  -7   6 -21   51.92    4.46
  -7  -6  21   44.13    4.62
  -7   6 -22    0.99    1.61
  -6  -7 -22    0.32    1.72
  -6   7  22    1.69    1.61
  -7  -6  22   -0.49    1.42
   6  -7  22    1.06    1.36
   7  -6 -22    1.11    1.48
   6  -7  23   98.22    5.68
  -6   7  23   82.14    6.13
  -6  -7 -23  103.75    7.61
  -7  -6  23   79.86    6.12
   7  -6 -23   87.48    6.01
  -7   6 -23  106.97    6.21
  -6   7  24   80.82    6.09
  -6  -7 -24  109.51    7.65
   6  -7  24  105.59    5.64
  -7  -6  24   97.53    6.54
   7  -6 -24   79.77    5.63
  -7   6 -24  107.09    6.10
  -6  -7 -25   23.51    3.56
  -6   7  25   16.94    2.60
   6  -7  25   18.71    2.26
  -7   6 -25   18.65    2.49
  -7  -6  25   17.83    2.87
  -7   6 -26    6.18    1.64
  -6  -7 -26    9.03    2.36
  -6   7  26    5.07    1.62
  -7  -6  26    8.18    2.09
   6  -7  26    6.80    1.38
  -7   6 -27    2.41    1.42
  -6  -7 -27    3.23    1.86
  -6   7  27    0.34    1.28
  -7  -6  27    2.86    1.38
   6  -7  27    2.38    0.98
  -7   6 -28    6.42    1.47
  -6  -7 -28    8.54    2.11
  -7  -6  28    9.90    1.92
  -6   7  28    6.26    1.63
  -7  -6  28    7.25    1.80
  -7   6 -29    9.23    1.48
  -7  -6  29   13.40    1.92
  -6  -7 -29   11.89    2.29
  -6   7  29    5.27    1.41
   6  -7  29    9.58    1.48
  -7  -6  29    7.10    1.69
  -7   6 -30    5.19    1.19
  -7  -6  30    4.44    1.26
  -6  -7 -30    5.18    1.64
  -6   7  30    2.25    0.97
   6  -7  30    6.25    1.20
  -7  -6  30    3.65    1.22
  -7  -6  31   27.10    2.14
  -6  -7 -31   22.47    2.50
  -7  -6  31   19.33    2.11
  -7   6 -31   26.55    2.01
   6  -7  31   25.54    1.99
  -6  -7 -32   27.01    2.43
   6  -7  32   24.03    1.79
  -7   7   0   22.87    4.86
  -7   7   0   23.90    3.72
  -7  -7   0   24.34    3.15
  -7   7   1   34.89    6.06
  -7   7  -1   34.59    4.32
  -7   7   1   35.10    4.28
  -7  -7  -1   34.00    3.60
  -7  -7   1   35.27    3.84
  -7   7  -1   43.89    4.87
  -7   7   2  174.76    9.83
  -7   7   2  150.59   12.66
  -7  -7  -2  154.66    8.47
  -7  -7   2  172.29    9.12
   7  -7   2  166.29    9.85
  -7   7  -2  185.30   10.13
  -7   7   3   41.81    6.72
  -7   7  -3   39.19    6.45
  -7   7   3   39.63    4.58
  -7  -7  -3   41.62    3.93
  -7  -7   3   41.52    4.32
  -7   7  -3   40.77    4.67
   7  -7   3   48.31    5.00
  -7   7   4  136.71    8.42
  -7   7   4  120.54   11.10
  -7   7  -4  126.00   11.30
  -7  -7   4  123.73    7.64
  -7  -7  -4  112.43    6.77
   7  -7   4  137.49    8.48
   7  -7  -4  126.36    8.54
   7  -7   5  231.62   16.97
  -7   7  -5  222.55   11.55
  -7   7   5  236.92   11.83
  -7   7   5  200.15   14.93
  -7   7  -5  214.00   15.09
  -7  -7   5  230.51   11.25
   7  -7   5  227.78   11.81
   7  -7  -5  242.91   12.39
   7  -7   6    6.35    3.63
  -7   7   6    4.67    2.84
  -7   7  -6    5.16    2.79
  -7   7  -6    4.50    2.14
  -7   7   6    4.23    2.16
  -7  -7   6    7.21    2.24
   7  -7   6    4.07    2.17
   7  -7  -6    2.97    2.22
  -7   7   7    4.60    2.45
  -7   7  -7    1.13    2.21
  -7   7  -7    1.82    1.68
  -7   7   7    1.82    1.74
   7  -7   7   -0.71    2.50
   7  -7   7    1.87    1.92
   7  -7  -7    4.15    2.10
  -7   7   8    5.11    2.84
  -7   7  -8   -0.55    2.06
   7  -7   8    2.15    1.73
   7  -7  -8    1.24    1.65
  -7   7  -8    1.27    1.83
  -7   7   8    2.81    1.56
   7  -7   8    4.26    3.55
   7  -7   8    1.84    1.69
   7  -7  -8    1.77    1.81
   7  -7   9  120.10    7.54
   7  -7  -9  127.88    7.83
  -7   7  -9  121.51    7.83
  -7   7   9  124.61    7.83
  -7   7   9  112.73   10.61
  -7   7  -9  125.93   10.87
   7  -7   9  135.09   12.70
   7  -7   9  134.50    8.11
   7  -7  -9  135.81    8.63
  -7   7  -9  122.42    7.82
   7  -7  10  183.07    9.55
   7  -7 -10  198.06    9.95
  -7   7 -10  180.91    9.80
  -7   7  10  187.32   10.02
   7  -7  10  179.59   14.93
   7  -7  10  175.32    9.85
   7  -7 -10  202.62   10.86
  -7   7 -10  189.63   10.01
   7  -7  11    6.65    2.00
   7  -7 -11    7.08    2.08
  -7   7 -11    8.39    2.27
  -7   7  11    8.02    2.15
  -7   7 -11    6.48    2.18
   7  -7  11    6.12    1.93
   7  -7 -11    6.66    2.40
   7  -7  12   36.99    3.75
   7  -7 -12   41.16    4.09
  -7   7 -12   32.53    3.67
  -7   7  12   38.53    4.00
  -7   7 -12   30.12    3.79
   7  -7  12   34.78    3.93
   7  -7 -12   41.02    4.60
   7  -7  13   51.38    4.35
   7  -7 -13   54.04    4.61
  -7   7 -13   53.25    4.62
  -7   7  13   54.76    4.79
   7  -7  13   62.39    5.06
   7  -7 -13   59.92    5.46
  -7   7 -13   53.30    4.77
   7  -7  14   16.08    2.47
   7  -7 -14   17.13    2.74
  -7   7 -14   17.60    2.63
  -7   7  14   19.43    2.83
  -7   7 -14   16.91    2.81
   7  -7  14   14.73    2.75
   7  -7 -14   18.83    3.35
   7  -7  15   55.89    4.26
   7  -7 -15   58.58    4.61
   7  -7 -15   62.12    5.58
   7  -7  15   63.05    4.99
  -7   7 -15   64.70    5.07
  -7   7 -16    5.54    1.96
   7  -7 -16    2.57    1.42
  -7   7  16    3.97    1.72
   7  -7  16    5.52    1.79
   7  -7 -16    3.81    1.92
  -7   7  17   63.58    5.34
   7  -7  17   71.16    5.15
   7  -7 -17   73.77    5.77
  -7   7 -17   79.39    5.52
  -7   7  18   84.99    6.11
   7  -7  18   87.99    5.62
   7  -7 -18   80.95    5.98
  -7   7 -18   91.43    5.96
   7  -7  19   96.14    5.73
  -7   7  19   92.45    6.28
  -7   7 -19   96.24    6.05
   7  -7 -19   83.51    6.09
  -7   7 -20    1.83    1.43
  -7   7  20    0.21    1.39
   7  -7  20    0.98    1.14
   7  -7 -20    1.17    1.47
  -7   7  21  176.29    9.21
   7  -7  21  189.35    8.47
   7  -7 -21  168.07    8.61
  -7   7  22   68.81    5.16
   7  -7  22   79.61    4.70
  -7   7 -22   82.43    5.12
  -7   7 -23    1.52    1.27
  -7   7  23   -0.71    1.48
   7  -7  23    1.63    1.03
  -7   7 -24    0.14    1.12
  -7   7  24   -0.65    1.03
   7  -7  24   -0.44    0.83
   7  -7  25  151.52    6.34
  -7   7 -25  171.37    7.21
   7  -7  26   21.30    1.76
  -7   7 -26   21.17    2.14
  -7  -7  27   21.40    2.31
  -7   7 -27   17.27    1.81
  -7   7 -28    3.19    1.03
  -7  -7  28    2.67    1.14
   7  -7  28    2.72    0.86
  -7   7 -29   57.52    3.08
   7  -7  29   52.26    3.00
   7  -7 -30   59.57    3.51
  -8   0   0   14.15    3.39
  -8   0   0   19.63    3.38
  -8   0   0   19.67    4.80
  -8   0   0   21.37    3.11
   0  -8   0   22.24    3.69
  -8   0  -1  379.72   17.28
  -8   0   1  408.46   17.85
  -8   0  -1  378.53   18.88
  -8   0   1  388.37   19.26
  -8   0   1  407.42   21.30
  -8   0   1  422.71   16.66
   0  -8   1  431.22   17.73
   0  -8  -1  442.12   17.95
  -8   0   2   29.69    3.99
  -8   0  -2   33.61    4.51
  -8   0   2   30.59    4.83
  -8   0  -2   25.56    3.73
  -8   0   2   28.96    5.27
  -8   0   2   28.80    3.51
   0  -8   2   24.79    2.74
   0  -8   2   28.91    3.82
   0  -8  -2   28.90    4.17
  -8   0   3  121.92    8.17
  -8   0  -3  105.42    8.23
  -8   0   3  114.63    9.24
   8   0   3  102.27    8.78
  -8   0  -3  116.62    7.90
  -8   0   3  110.95    9.93
  -8   0   3  102.61    6.83
   0  -8   3  111.09    6.24
   0  -8   3  128.76    8.00
   0  -8  -3  114.85    7.84
  -8   0  -4   27.82    4.01
  -8   0   4   25.68    4.60
  -8   0   4   26.71    3.83
   8   0   4   28.38    4.93
  -8   0  -4   27.48    3.86
  -8   0   4   33.44    5.59
  -8   0  -4   19.97    5.01
  -8   0   4   25.43    3.94
  -8   0   4   31.01    3.75
   0  -8   4   29.82    3.05
   0  -8   4   30.30    3.73
   0  -8  -4   33.56    4.40
  -8   0   5  232.50   12.26
  -8   0   5  206.50   13.62
   8   0   5  209.28   13.75
  -8   0  -5  225.01   11.78
  -8   0   5  236.01   15.01
  -8   0  -5  225.46   14.73
  -8   0  -5  226.77   11.57
  -8   0   5  232.43   12.36
   0  -8   5  208.56    9.88
  -8   0   5  221.82   10.84
   0  -8  -5  248.84   12.30
  -8   0   6  114.09    7.99
  -8   0   6   90.71    8.87
  -8   0  -6   89.73    7.06
  -8   0   6   99.49    9.43
  -8   0  -6  102.00    9.42
  -8   0   6  108.27    6.84
  -8   0  -6  116.10    7.60
  -8   0   6  103.36    7.91
   0  -8   6  104.60    6.21
   0  -8  -6  104.90    7.62
  -8   0   7  227.91   12.10
  -8   0   7  198.96   13.53
  -8   0  -7  214.76   11.35
  -8   0   7  206.57   13.99
  -8   0  -7  209.28   13.96
  -8   0   7  207.95   10.33
  -8   0  -7  204.61   10.98
   0  -8   7  208.59    9.73
  -8   0   7  211.42   11.82
  -8   0   7  206.96   11.22
   0  -8  -7  199.45   11.41
  -8   0  -7  188.46    9.12
  -8   0   8   46.40    5.38
  -8   0   8   37.38    5.87
  -8   0  -8   39.84    4.55
  -8   0  -8   53.18    6.70
  -8   0   8   42.17    6.17
   0  -8   8   42.96    4.18
  -8   0  -8   51.42    4.96
  -8   0   8   42.95    5.19
  -8   0   8   45.32    4.33
   0  -8   8   46.90    3.98
  -8   0   8   52.81    5.19
  -8   0  -8   37.02    3.52
  -8   0   9  310.24   15.43
  -8   0   9  322.84   18.07
  -8   0   9  342.57   18.26
  -8   0  -9  324.91   17.87
  -8   0   9  315.23   13.70
   0  -8   9  310.20   13.10
  -8   0  -9  301.28   14.35
   0  -8   9  302.19   13.16
  -8   0   9  343.37   15.92
   0  -8  -9  294.26   13.17
  -8   0   9  306.63   14.84
  -8   0  -9  300.71   12.74
  -8   0  10   70.48    6.64
  -8   0  10   76.75    8.23
  -8   0  10   72.99    7.93
   8   0 -10   70.98    6.55
  -8   0 -10   77.92    8.03
  -8   0  10   82.97    5.83
  -8   0 -10   71.46    6.04
  -8   0  10   75.66    6.86
   0  -8  10   72.11    5.19
   0  -8 -10   71.00    5.32
   0  -8  10   69.42    5.16
  -8   0  10   63.08    5.95
  -8   0 -10   77.16    5.20
  -8   0 -11   16.79    2.48
  -8   0  11   14.01    3.84
  -8   0  11   19.65    3.58
  -8   0  11   10.69    3.47
  -8   0 -11   14.40    3.70
   8   0 -11   17.33    3.85
   0  -8  11   17.08    2.62
  -8   0  11   16.66    2.72
  -8   0 -11   17.70    3.20
   0  -8 -11   16.05    2.63
  -8   0  11   22.68    3.95
  -8   0  11   13.93    3.07
   0  -8  11   16.53    2.53
  -8   0 -12    0.20    1.25
  -8   0  12    3.31    2.83
  -8   0  12    2.46    1.99
  -8   0  12    1.44    2.04
  -8   0 -12    3.30    2.15
   8   0 -12    0.28    2.44
  -8   0  12    1.85    1.52
   0  -8 -12    2.19    1.48
  -8   0 -12    2.23    1.74
   0  -8  12    1.56    1.40
  -8   0  12   -1.42    2.01
  -8   0  12    0.94    1.74
   0  -8  12    1.73    1.25
   0  -8 -12    3.30    2.10
  -8   0 -13    7.82    2.02
  -8   0  13    6.19    2.83
  -8   0  13    7.85    2.77
  -8   0  13    5.60    2.76
  -8   0 -13    8.28    2.77
   8   0 -13    8.04    2.84
   0  -8 -13    7.94    1.94
  -8   0  13    8.07    2.24
  -8   0 -13    8.14    2.44
   0  -8  13    9.34    2.08
  -8   0  13    8.67    2.74
  -8   0  13    4.45    2.17
   0  -8  13    8.85    2.13
   0  -8 -13   11.04    2.83
  -8   0 -14    1.74    1.34
  -8   0  14    1.72    2.03
  -8   0  14    2.18    2.38
  -8   0  14   -2.27    2.14
  -8   0 -14    0.45    1.59
   8   0 -14    3.86    2.64
   0  -8  14    2.41    1.35
   0  -8 -14    0.94    1.25
  -8   0  14    0.23    1.53
  -8   0 -14   -0.28    1.64
  -8   0  14    1.47    2.16
  -8   0  14    1.29    2.01
   0  -8  14    0.23    1.33
   0  -8 -14    0.68    1.87
  -8   0 -15    4.72    1.70
  -8   0  15    2.93    2.68
  -8   0  15    4.41    2.46
   8   0 -15    4.45    2.67
  -8   0  15    7.04    2.98
  -8   0 -15    4.78    2.29
   0  -8 -15    5.05    1.61
  -8   0  15    7.31    2.11
   0  -8  15    3.42    1.61
  -8   0  15    4.45    2.52
  -8   0  15    7.16    2.40
   0  -8  15    7.78    2.11
   0  -8 -15    4.78    2.13
  -8   0  16   67.41    6.61
  -8   0  16   66.91    8.17
  -8   0 -16   45.00    6.12
   8   0 -16   68.30    6.03
  -8   0  16   59.61    4.98
   0  -8 -16   58.37    4.46
  -8   0  16   64.79    6.57
   0  -8  16   64.71    5.17
  -8   0 -16   67.30    5.24
  -8   0  16   58.02    5.88
   0  -8 -16   65.82    6.32
  -8   0 -17    4.01    1.74
  -8   0  17    3.65    2.78
  -8   0  17    4.51    2.55
   8   0 -17    4.17    2.28
  -8   0  17    6.02    1.94
   0  -8 -17    3.12    1.43
  -8   0  17    4.90    2.48
   0  -8 -17    1.72    2.03
  -8   0  17    6.28    2.67
   0  -8  17    5.64    1.92
  -8   0  18  683.82   27.10
  -8   0  18  598.90   30.16
   8   0 -18  651.52   24.84
  -8   0  18  635.91   23.59
  -8   0  18  706.95   27.24
   0  -8  18  641.26   23.98
  -8   0  18  637.42   25.83
  -8   0 -18  664.37   24.25
  -8   0  19   70.26    6.81
   0   8 -19   67.80    6.14
   8   0 -19   61.16    5.78
  -8   0  19   68.03    5.14
   0  -8  19   64.75    5.29
  -8   0  19   65.34    6.66
  -8   0  19   65.96    6.23
  -8   0 -19   64.70    5.44
   0  -8  19   57.90    4.58
  -8   0 -20   19.28    3.14
  -8   0  20   22.38    4.03
   0   8 -20   24.53    3.88
   8   0 -20   20.98    3.64
   0  -8  20   23.72    3.26
  -8   0  20   26.29    4.20
   0  -8 -20   25.16    4.12
  -8   0  20   23.46    3.79
   0  -8  20   19.68    2.70
  -8   0 -21   10.45    2.57
  -8   0  21   11.32    3.43
   0   8 -21    9.45    2.87
   8   0 -21    8.36    2.64
  -8   0  21    7.43    2.82
   0  -8  21   12.74    2.23
  -8   0  21    9.18    2.72
   0  -8 -21    9.86    2.84
  -8   0  22   43.31    5.38
   0   8 -22   43.71    4.97
   8   0 -22   41.20    4.64
  -8   0  22   34.29    4.87
  -8   0  22   42.30    4.95
  -8   0 -22   41.88    4.36
   0  -8  22   30.34    3.41
   0  -8 -22   34.25    4.60
  -8   0  23   26.42    4.41
   0   8 -23   27.32    4.03
   8   0 -23   23.41    3.66
  -8   0  23   25.56    4.17
  -8   0  23   32.55    4.39
  -8   0 -23   26.28    3.63
   0  -8  23   23.88    3.01
   0  -8 -23   22.24    3.75
   0   8 -24   51.85    5.55
  -8   0  24   62.57    6.29
   8   0 -24   51.54    5.02
  -8   0  24   56.62    5.85
  -8   0  24   53.15    5.41
  -8   0 -24   53.44    4.98
   0  -8  24   52.11    4.40
   0  -8 -24   55.30    5.41
  -8   0 -25   18.28    3.10
  -8   0  25   15.22    3.43
   0   8 -25   19.44    3.38
   8   0 -25   20.68    3.35
  -8   0  25   22.70    3.80
   0  -8  25   16.20    2.50
  -8   0  25   21.38    3.45
   0  -8 -25   16.54    3.13
  -8   0 -26    0.94    1.54
  -8   0  26    1.99    2.18
   8   0 -26   -0.47    1.77
   0   8 -26   -0.54    1.84
  -8   0  26    0.94    1.88
   0  -8  26    0.39    1.15
  -8   0  26   -0.57    1.95
   0  -8 -26    0.53    1.58
  -8   0  27   29.14    4.24
   8   0 -27   24.82    3.38
   0   8 -27   28.54    3.79
  -8   0  27   26.45    3.90
  -8   0  27   23.22    3.52
  -8   0 -27   23.47    3.33
   0  -8  27   27.43    3.07
   0  -8 -27   23.28    3.38
  -8   0  28  198.98   10.86
   0   8 -28  172.19    9.60
   8   0 -28  169.49    9.08
  -8   0  28  157.76    9.65
  -8   0  28  178.00    9.82
  -8   0 -28  189.47    9.48
   0  -8  28  171.85    8.46
   0  -8 -28  168.28    9.08
  -8   0  29   18.14    3.19
   0   8 -29   19.20    3.05
   8   0 -29   15.36    2.72
  -8   0  29   13.54    2.81
   0  -8  29   11.60    2.13
  -8   0  29   14.63    2.72
   0  -8 -29   17.83    2.72
  -8   0  30   42.53    4.61
   0   8 -30   45.74    4.36
   8   0 -30   37.06    3.76
  -8   0  30   35.52    4.04
  -8   0  30   46.62    4.32
   0  -8  30   37.93    3.36
   0   8 -31   23.97    3.11
  -8   0  31   30.08    3.67
   8   0 -31   19.19    2.71
  -8   0  31   22.18    3.01
  -8   0  31   23.48    2.97
   0  -8  31   18.10    2.29
   0   8 -32   62.27    4.55
  -8   0  32   65.37    4.98
   8   0 -32   51.67    4.06
  -8   0  32   46.09    4.06
  -8   0  32   58.41    4.32
   0  -8  32   48.08    3.52
  -8   0  33   61.79    4.68
   0   8 -33   66.60    4.42
   8   0 -33   56.74    4.15
  -8   0  33   52.59    3.94
  -8   0  33   64.16    4.30
  -8   0  34    0.16    1.09
   0   8 -34   -0.13    1.10
  -8   0  34   -0.21    0.83
  -8   0  34   -0.46    0.95
  -8   0  35  131.47    6.41
   0   8 -35  133.08    6.05
  -8   0  36    0.78    0.78
   0   8 -36    0.49    0.67
  -8   1  35   26.50    2.45
  -1   8 -35   24.44    2.20
  -8   1  34   67.73    4.54
  -1   8 -34   69.79    4.18
  -8   1  33   27.91    3.15
  -1   8 -33   28.32    2.84
  -8   1  33   25.93    2.91
  -8   1  33   21.04    2.30
  -8   1  32   10.45    2.26
  -1   8 -32    6.95    1.94
   8   1 -32    8.84    1.90
  -8   1  32    8.17    2.05
  -8   1  32    8.07    1.75
   1  -8 -32    6.91    1.64
  -8   1  31   15.27    2.63
  -1   8 -31   10.55    2.35
   8   1 -31   14.06    2.33
  -8   1  31   13.67    2.72
  -8   1  31   11.79    2.14
   1  -8 -31   11.40    2.05
  -1   8 -30  137.14    7.80
  -8   1  30  125.44    8.11
   8   1 -30  140.10    7.58
  -8   1  30  146.19    8.49
  -8   1  30  143.81    7.73
  -1  -8  30  141.85    7.02
   1  -8 -30  130.86    7.50
  -8   1  29   15.82    3.02
   8   1 -29    9.62    2.22
  -8   1  29   12.76    2.84
  -8   1  29   14.25    2.62
   1  -8 -29   10.36    2.34
  -1  -8  29   10.14    1.93
  -8   1  28    1.44    2.06
   8   1 -28    0.42    1.66
  -8   1  28    0.29    1.89
  -1  -8  28    0.36    1.07
  -8   1  28    1.67    1.62
   1  -8 -28    0.95    1.57
  -8   1  27   83.57    6.86
   8   1 -27   86.21    6.05
  -8   1  27   85.60    6.87
  -8   1  27   72.90    6.06
  -1  -8  27   66.24    4.99
   1  -8 -27   84.78    6.33
  -8   1  26   45.23    5.26
   8   1 -26   57.38    5.02
  -8   1  26   53.79    5.69
  -8   1  26   56.58    5.34
  -1  -8  26   48.01    4.23
  -8   1  25   42.43    5.06
   8   1 -25   39.27    4.23
  -8   1  25   36.25    4.93
  -8   1  25   38.24    4.51
  -8  -1 -25   35.01    4.16
  -1  -8  25   30.11    3.42
  -8   1  24   36.63    4.93
   8   1 -24   31.13    3.94
  -8  -1 -24   33.62    3.66
  -8   1  24   39.24    4.56
  -8  -1 -24   43.28    4.44
  -1  -8  24   34.04    3.58
  -8   1  23   91.96    7.69
   8   1 -23   88.59    6.55
  -8  -1 -23   80.69    5.97
  -8   1  23   89.03    7.06
  -8  -1 -23   89.51    6.47
  -1  -8  23   83.37    5.75
  -8   1  22   26.04    4.37
   8   1 -22   25.51    3.75
  -8  -1 -22   27.21    3.41
  -1  -8  22   23.93    3.07
  -8  -1 -22   31.72    3.93
  -8   1  22   26.05    3.90
  -8   1  21   50.15    5.73
  -8   1  21   50.38    7.23
   8   1 -21   49.58    5.01
  -8  -1 -21   46.84    4.43
  -8   1  21   48.94    5.35
  -1  -8  21   40.30    4.02
  -8  -1 -21   54.28    4.98
  -8   1  20   64.18    6.45
  -8   1  20   53.65    7.59
   8   1 -20   65.48    5.75
  -8  -1 -20   53.79    4.83
  -8   1  20   57.53    5.77
  -1  -8  20   49.08    4.40
  -8  -1 -20   58.71    5.09
  -1   8 -19  104.85    7.66
  -8   1  19   93.86    8.03
   8   1 -19  108.09    7.37
  -8   1  19  106.86    8.51
  -8  -1 -19   84.65    6.26
  -1  -8  19   93.25    6.52
  -8   1  19   86.81    7.24
  -8  -1 -19   98.05    6.73
  -8   1  18   53.10    6.02
  -1   8 -18   58.15    5.66
   8   1 -18   59.03    5.48
  -8  -1 -18   49.85    4.62
  -1  -8  18   54.12    4.86
  -8   1  18   60.40    5.93
  -8  -1 -18   61.41    5.14
  -8   1  17  164.99   10.56
   8   1 -17  166.55    9.60
  -1  -8  17  160.38    8.73
  -8  -1 -17  151.25    9.13
   1  -8 -17  141.77    7.47
  -8   1  17  161.96   10.03
  -8  -1 -17  156.30    8.71
  -8   1  16   41.45    5.34
  -8  -1 -16   38.13    5.54
   8   1 -16   43.83    4.92
  -1  -8  16   50.60    4.53
  -8  -1 -16   49.13    4.91
   1  -8 -16   47.97    3.92
  -8   1  16   54.90    5.55
  -8  -1 -16   53.13    4.65
  -8   1  15  233.49   13.14
  -8   1  15  224.57   15.60
  -8   1  15  211.33   13.77
  -8  -1 -15  195.61   13.51
   8   1 -15  262.18   12.39
   1  -8 -15  214.88   10.22
  -1  -8  15  238.61   11.12
  -1  -8  15  233.82   10.48
  -8  -1 -15  240.72   11.87
  -8   1  15  223.93   10.71
  -8   1  15  252.73   12.93
  -8  -1 -15  240.96   11.22
  -8   1  14   86.86    7.40
  -8   1  14   80.96    8.81
  -8   1  14   78.49    7.71
  -8  -1 -14   77.76    7.95
   8   1 -14   76.46    6.33
   1  -8 -14   74.22    5.33
  -1  -8  14   81.98    5.66
  -1  -8  14   74.10    5.23
  -8  -1 -14   86.14    6.39
  -8   1  14   71.67    5.43
  -8   1  14   74.24    6.63
  -8  -1 -14   76.53    5.59
  -8   1  13  446.68   19.63
  -8   1  13  417.28   22.54
  -8   1  13  431.51   21.38
  -8  -1 -13  434.37   21.45
   8   1 -13  450.45   18.30
  -1  -8  13  421.08   16.81
  -1  -8  13  417.75   16.50
  -8  -1 -13  423.92   17.82
  -8   1  13  429.66   17.03
  -8   1  13  438.08   18.94
  -8  -1 -13  415.43   16.76
  -8   1  12  129.88    9.16
  -8   1  12  135.68   11.62
  -8   1  12  155.19   11.33
  -8  -1 -12  117.95   10.09
   8   1 -12  140.95    8.70
  -1  -8  12  126.16    7.38
  -1  -8  12  139.87    7.58
  -8   1  12  133.94    7.74
  -8  -1 -12  143.61    8.51
  -8   1  12  127.54    8.76
  -8  -1 -12  132.85    7.52
  -8  -1 -11   16.51    2.49
  -8   1  11   19.17    4.60
  -8   1  11   21.30    3.65
  -8  -1 -11   20.81    4.26
   8   1 -11   22.07    3.86
  -8   1  11   12.31    3.57
  -1  -8  11   15.18    2.58
  -8   1  11   18.45    2.81
  -1  -8  11   22.02    2.84
  -8  -1 -11   13.40    2.85
  -8   1  11   20.38    3.45
  -8   1  10  346.66   16.21
  -8   1  10  326.43   18.87
  -8   1  10  319.59   18.17
  -8  -1 -10  335.07   18.28
   8   1 -10  344.15   15.39
  -8  -1 -10  314.35   14.55
  -1  -8  10  328.60   13.74
  -1  -8  10  332.94   13.66
  -8   1  10  342.60   14.25
  -8   1  10  341.68   15.75
  -8  -1 -10  317.22   13.34
   1  -8 -10  335.65   15.91
  -8   1   9  103.07    7.81
  -8   1   9  100.26    9.56
  -8   1   9   88.79    8.88
  -8  -1  -9   82.32    8.54
  -8  -1  -9   89.78    6.66
  -1  -8   9   98.98    6.29
  -1  -8   9   95.80    5.93
  -8   1   9  101.28    6.48
  -8   1   9  104.39    7.51
   1  -8  -9   94.47    7.43
  -8   1   8   27.85    4.06
  -8   1   8   22.97    4.62
  -8  -1  -8   24.06    3.78
  -8  -1  -8   27.31    5.05
  -8   1   8   18.87    4.35
  -8  -1  -8   26.25    3.56
  -1  -8   8   22.35    2.93
  -1  -8   8   20.11    2.62
  -8   1   8   30.95    3.43
  -8   1   8   30.11    3.97
   1  -8  -8   22.54    3.78
  -8   1   7   47.12    5.17
  -8   1   7   48.93    6.71
  -8  -1  -7   44.75    5.02
  -8   1   7   45.39    6.38
  -8  -1  -7   49.53    6.71
  -8  -1  -7   54.68    5.12
  -1  -8   7   54.75    4.52
  -8   1   7   56.89    5.80
  -8   1   7   54.55    4.73
  -1  -8   7   51.24    4.02
  -8   1   7   56.86    5.36
   1  -8  -7   51.56    5.44
  -8   1   6  249.10   12.81
  -8   1   6  259.20   15.80
   8  -1   6  227.60   15.50
  -8  -1  -6  243.50   12.55
  -8   1   6  245.96   15.73
  -8  -1  -6  265.91   15.92
  -1  -8   6  231.88   10.46
  -8  -1  -6  256.76   12.44
  -1  -8   6  238.47   11.22
  -8   1   6  266.12   13.39
  -8   1   6  260.87   11.73
  -8   1   6  245.94   12.40
   1  -8  -6  245.43   12.78
  -8   1   5  212.25   11.31
  -8   1   5  192.06   13.32
   8  -1   5  186.53   13.59
  -8  -1  -5  184.63   10.52
  -8   1   5  181.08   13.22
  -8  -1  -5  205.61   14.03
  -1  -8   5  185.90    8.73
  -8  -1  -5  187.88   10.42
  -1  -8   5  183.95    9.52
  -8   1   5  202.61   11.35
  -8   1   5  199.23    9.89
  -8   1   5  201.27   10.74
   1  -8  -5  199.14   10.93
  -8  -1  -4   19.22    3.35
  -8   1   4   19.56    3.44
   8  -1   4   18.02    4.37
  -8  -1  -4   27.14    5.23
  -8   1   4   21.57    4.56
  -1  -8   4   20.13    2.38
  -1  -8   4   21.89    3.07
  -8   1   4   21.79    3.10
  -8  -1  -4   20.65    3.24
  -8   1   4   25.46    3.89
   1  -8  -4   20.68    3.34
  -8   1   3   97.00    7.21
   8  -1   3   83.48    8.59
  -8  -1  -3   93.19    7.03
  -8   1   3   81.58    8.75
  -8  -1  -3   85.65    6.61
  -1  -8   3   85.71    6.04
  -8   1   3   97.21    7.34
   1  -8  -3   93.64    6.95
  -8   1   2  215.20   11.33
   8  -1   2  199.32   13.43
  -8  -1  -2  195.04   10.84
  -8   1   2  208.37   14.25
  -8   1   2  220.94   11.55
  -8  -1  -2  197.35   10.85
  -1  -8   2  191.40    9.88
  -1  -8   2  208.22   10.95
   1  -8  -2  201.08   11.01
  -8  -1  -1   47.04    4.99
  -8   1   1   54.31    5.27
  -8  -1  -1   48.46    5.25
   8  -1   1   53.02    6.51
  -8   1   1   62.34    7.52
   1  -8  -1   49.11    4.48
  -8   1   1   51.48    5.23
  -1  -8   1   45.93    4.33
  -8  -1  -1   44.04    4.83
  -8  -1  -1   52.22    4.61
   1  -8  -1   44.66    3.87
  -1  -8   1   56.04    5.36
   1  -8  -1   53.59    5.12
  -8  -1   0   55.13    5.29
  -8   1   0   49.73    5.01
  -8  -1   0   42.63    5.10
   8  -1   0   53.95    6.44
  -8   1   0   55.47    7.15
   1  -8   0   58.85    4.88
  -8  -1   0   50.60    6.82
  -8  -1   0   52.62    5.17
  -8   1   0   60.64    5.52
  -1  -8   0   62.62    4.89
  -8  -1   0   56.39    4.81
   1  -8   0   50.42    4.14
  -1  -8   0   55.54    5.33
   1  -8   0   58.83    5.31
  -8   1  -1   45.11    4.78
  -8  -1   1   44.38    4.93
  -8  -1   1   40.86    5.20
   8  -1  -1   51.89    6.13
  -8  -1   1   44.95    6.63
   1  -8   1   57.49    4.78
  -1  -8  -1   44.95    4.24
  -8  -1   1   54.43    5.20
  -8   1  -1   51.19    5.03
  -8  -1   1   60.80    4.87
   1  -8   1   44.09    3.89
  -1  -8  -1   58.34    5.41
   1  -8   1   49.09    4.79
  -8  -1   2  206.62   11.43
  -8  -1   2  189.83   12.23
   8  -1  -2  210.22   13.00
  -8   1  -2  212.28   11.19
  -8  -1   2  194.65   13.80
  -8  -1   2  213.45   10.43
  -8   1  -2  226.15   11.43
  -8  -1   2  205.71   11.14
   1  -8   2  207.94    9.73
   1  -8   2  198.15   10.71
  -1  -8  -2  211.67   11.27
  -8  -1   3   87.99    7.03
  -8  -1   3   89.54    7.89
   8  -1  -3  103.23    8.54
  -8   1  -3   89.73    6.85
  -8  -1   3   88.68    8.96
  -8  -1   3   87.72    6.84
  -8   1  -3   96.72    7.02
  -8  -1   3   88.87    6.25
  -8  -1   3   97.85    6.88
   1  -8   3   93.46    5.90
   1  -8   3   96.03    6.65
  -8   1  -4   16.19    2.37
  -8  -1   4   17.64    3.59
  -8   1  -4   19.36    3.20
  -8  -1   4   22.72    3.66
   8  -1  -4   21.51    3.96
  -8  -1   4   18.59    4.43
  -8   1  -4   25.26    5.00
  -8  -1   4   23.92    3.24
  -8   1  -4   21.37    3.41
  -8  -1   4   23.83    3.71
  -1  -8  -4   20.45    3.08
   1  -8   4   19.91    2.66
  -8  -1   4   18.83    3.12
   1  -8   4   24.03    3.32
  -8  -1   5  188.25   10.88
  -8  -1   5  188.99   12.31
   8  -1  -5  201.79   12.05
  -8   1  -5  189.10   10.49
  -8   1  -5  188.73   13.30
  -8  -1   5  178.03   13.22
  -8  -1   5  192.75    9.76
  -8   1  -5  194.48   10.45
  -8  -1   5  171.81   10.47
  -1  -8  -5  178.77    9.40
  -8  -1   5  186.03   10.39
   1  -8   5  195.19    9.33
   1  -8   5  205.38   10.32
  -8   1  -5  172.69    8.62
  -8  -1   6  240.53   12.83
  -8  -1   6  243.03   14.76
  -8   1  -6  250.79   12.61
  -8  -1   6  257.17   15.83
  -8   1  -6  255.10   15.88
  -8  -1   6  259.96   11.83
  -8   1  -6  279.59   12.79
  -1  -8  -6  231.49   11.23
  -8  -1   6  235.37   12.72
  -8  -1   6  256.16   12.55
   1  -8   6  232.05   11.02
  -8   1  -6  238.76   10.74
  -8  -1   7   49.00    5.33
  -8  -1   7   46.47    6.06
  -8   1  -7   50.07    5.10
  -8   1  -7   50.73    6.58
  -8  -1   7   58.71    7.03
  -1  -8  -7   50.08    4.46
  -8  -1   7   55.77    4.78
  -8   1  -7   48.63    4.92
  -1  -8  -7   38.61    4.08
  -8  -1   7   52.72    5.48
  -8  -1   7   53.47    5.20
  -8   1  -7   54.04    4.24
   1  -8   7   52.28    4.43
  -1  -8  -7   46.29    5.36
  -8  -1   8   22.83    4.42
  -8  -1   8   18.17    3.49
  -8   1  -8   30.08    3.96
  -8  -1   8   25.61    4.71
  -8   1  -8   32.41    5.45
  -1  -8  -8   20.57    2.99
  -8  -1   8   26.58    3.38
  -1  -8  -8   23.13    3.07
  -8   1  -8   28.38    3.74
  -8  -1   8   21.55    3.82
  -8   1  -8   22.47    3.40
  -8   1  -8   23.51    2.93
   1  -8   8   27.49    3.20
  -8  -1   8   20.83    3.44
  -1  -8  -8   25.78    3.94
  -8  -1   9   97.93    7.72
  -8  -1   9   94.79    9.11
  -8  -1   9  108.41    9.58
  -8   1  -9   97.01    9.09
  -8   1  -9  110.83    7.45
  -8  -1   9   90.42    6.45
  -1  -8  -9   82.74    6.22
  -8  -1   9   89.62    7.55
  -8   1  -9  105.92    7.21
  -1  -8  -9   89.13    6.17
  -8   1  -9   99.14    6.20
   1  -8   9  108.96    6.62
  -1  -8  -9  108.56    7.84
  -8  -1  10  324.56   15.87
  -8  -1  10  313.11   18.20
  -8   1 -10  339.23   18.45
  -8  -1  10  288.24   17.43
  -1  -8 -10  316.99   13.59
  -8   1 -10  347.45   15.09
  -8  -1  10  336.04   14.36
  -8   1 -10  364.65   15.23
  -1  -8 -10  308.14   14.05
  -8  -1  10  319.21   15.71
  -8   1 -10  320.32   13.56
  -1  -8 -10  335.34   15.86
   1  -8  10  313.98   13.78
  -8  -1  11   17.67    4.17
  -8  -1  11   23.00    3.95
  -8  -1  11   18.01    4.13
  -8   1 -11   18.92    4.35
  -8   1 -11   19.10    3.20
  -8  -1  11   15.49    2.89
  -8   1 -11   25.15    3.55
  -1  -8 -11   14.77    2.67
  -1  -8 -11   17.34    2.81
  -8  -1  11   18.65    3.68
   1  -8  11   19.95    2.82
  -8   1 -11   19.61    2.79
  -1  -8 -11   11.91    3.15
  -8  -1  12  117.20    8.99
  -8  -1  12  132.20   11.26
  -8   1 -12  144.02   10.97
  -8  -1  12  121.05   10.34
  -8   1 -12  138.39    8.51
  -8  -1  12  129.72    9.12
  -8   1 -12  138.05    8.57
  -8  -1  12  133.96    7.97
  -1  -8 -12  139.55    7.55
  -1  -8 -12  112.10    7.65
   1  -8  12  138.62    7.93
  -8   1 -12  138.82    7.72
  -1  -8 -12  145.67    9.41
  -8  -1  13  409.06   22.23
  -8   1 -13  456.04   21.38
  -8  -1  13  448.16   21.59
  -8   1 -13  446.08   18.30
  -8  -1  13  436.68   17.42
  -1  -8 -13  412.29   16.34
   1  -8  13  408.01   16.27
  -8  -1  13  442.22   19.36
  -1  -8 -13  360.53   16.95
   1  -8  13  421.60   17.12
  -8   1 -13  434.72   17.96
  -1  -8 -13  438.85   19.06
  -8   1 -13  432.18   17.00
  -8  -1  14   73.46    8.47
  -8   1 -14   66.02    7.26
  -8  -1  14   73.89    7.58
  -8   1 -14   82.99    6.47
  -1  -8 -14   70.14    5.87
   1  -8  14   78.65    5.80
  -8  -1  14   77.22    5.89
   1  -8  14   73.87    5.13
  -1  -8 -14   77.91    5.32
  -8  -1  14   70.72    6.79
  -8   1 -14   81.61    6.37
  -1  -8 -14   74.09    6.66
  -8   1 -14   79.81    5.84
  -8  -1  15  255.53   16.55
  -8   1 -15  208.59   13.60
  -8  -1  15  233.94   14.23
  -8  -1  15  231.76   11.28
  -8  -1  15  245.14   13.24
  -1  -8 -15  195.45   11.09
   1  -8  15  236.51   11.23
  -1  -8 -15  220.19   10.23
  -8   1 -15  252.18   12.26
   1  -8  15  216.42   10.10
  -8  -1  15  244.44   12.90
  -8   1 -15  239.00   11.24
  -1  -8 -15  240.21   12.86
  -8  -1  16   47.73    7.04
  -8   1 -16   52.94    6.06
   1  -8  16   49.71    4.63
  -8  -1  16   45.85    4.49
  -1  -8 -16   40.20    4.49
  -8  -1  16   55.45    5.92
  -8   1 -16   51.69    5.16
  -1  -8 -16   45.32    3.92
  -8  -1  16   48.98    5.40
  -8   1 -16   45.55    4.49
  -1  -8 -16   47.90    5.44
  -8  -1  17  145.30   12.51
   1  -8  17  147.86    8.61
  -8  -1  17  155.36    8.74
  -8  -1  17  151.43   10.28
  -1  -8 -17  139.06    8.84
  -8   1 -17  177.82    9.83
  -1  -8 -17  146.08    7.65
  -8  -1  17  165.64   10.29
  -8   1 -17  171.69    9.13
  -1  -8 -17  176.66   10.50
  -8  -1  18   56.49    7.50
   1   8 -18   58.09    5.59
  -1  -8 -18   39.80    4.53
  -8  -1  18   48.07    4.63
  -8  -1  18   56.71    6.02
  -8   1 -18   60.49    5.51
  -8  -1  18   51.94    5.74
  -8   1 -18   49.38    4.69
   1  -8  18   46.70    4.07
  -1  -8 -18   62.03    5.90
   1   8 -19  109.47    7.81
  -8  -1  19   88.45    9.75
  -8  -1  19   98.68    6.58
  -8  -1  19  107.82    8.29
  -1  -8 -19   81.75    6.67
  -8  -1  19  103.34    8.04
  -8   1 -19  106.38    6.93
   1  -8  19   93.43    6.01
  -1  -8 -19  102.84    7.76
  -8  -1  20   57.18    7.98
   1   8 -20   63.75    5.84
  -8  -1  20   60.74    4.96
  -8  -1  20   59.05    6.09
  -1  -8 -20   46.54    4.93
  -8  -1  20   60.62    6.08
  -8   1 -20   56.66    5.07
   1  -8  20   56.44    4.52
  -1  -8 -20   65.72    6.05
   1   8 -21   49.12    5.27
  -8  -1  21   47.09    7.01
  -8  -1  21   53.78    4.55
  -8  -1  21   49.35    5.58
  -1  -8 -21   43.38    4.66
  -8  -1  21   57.20    5.90
  -8   1 -21   54.25    4.91
   1  -8  21   44.37    4.03
  -1  -8 -21   43.88    5.00
  -8   1 -22   23.59    3.42
   1   8 -22   25.46    4.01
  -8  -1  22   31.37    3.53
   1  -8  22   23.16    3.29
  -1  -8 -22   30.26    3.90
  -8  -1  22   22.52    3.93
  -8  -1  22   30.97    4.39
   1  -8  22   23.69    2.98
  -1  -8 -22   31.52    4.15
   1   8 -23   84.23    6.79
  -8  -1  23   87.44    5.72
  -8  -1  23   87.11    7.22
  -1  -8 -23   74.13    6.08
   1  -8  23   83.54    6.01
  -8  -1  23   99.71    7.56
  -8   1 -23   83.71    6.28
   1  -8  23   76.46    5.53
  -1  -8 -23   85.07    6.69
   1   8 -24   39.63    4.71
  -8  -1  24   31.32    4.39
  -1  -8 -24   31.47    3.89
   1  -8  24   40.06    4.01
  -8  -1  24   35.16    4.51
  -8   1 -24   33.54    3.94
   1  -8  24   33.25    3.49
  -1  -8 -24   37.46    4.29
   1   8 -25   41.20    4.60
  -1  -8 -25   31.58    3.75
  -8  -1  25   44.78    4.87
  -8  -1  25   39.41    4.71
  -8   1 -25   36.32    4.08
   1  -8  25   37.43    3.58
  -1  -8 -25   29.17    3.83
   1   8 -26   52.00    5.17
  -1  -8 -26   42.12    4.31
  -8  -1  26   45.21    4.94
  -8  -1  26   55.24    5.36
  -8   1 -26   57.06    4.96
   1  -8  26   55.04    4.32
  -1  -8 -26   51.70    4.71
   1   8 -27   71.24    5.95
  -8  -1  27   73.46    6.02
  -1  -8 -27   61.88    5.04
  -8  -1  27   88.40    6.65
  -8   1 -27   90.32    6.01
   1  -8  27   72.94    5.02
  -1  -8 -27   73.91    5.44
   1   8 -28    1.69    1.93
   8  -1 -28    1.26    1.59
  -1  -8 -28    0.18    1.13
  -8  -1  28    0.72    1.55
   1  -8  28   -0.17    1.08
  -8  -1  28    0.78    1.65
   1   8 -29   14.83    2.95
   8  -1 -29   14.38    2.62
  -8  -1  29   10.36    2.33
  -1  -8 -29   12.25    2.03
  -8  -1  29   12.82    2.82
   1  -8  29   12.62    2.00
   1   8 -30  156.48    8.27
   8  -1 -30  130.68    7.45
  -8  -1  30  132.90    7.51
  -8  -1  30  152.79    8.44
   1  -8  30  143.97    6.99
   1   8 -31   15.07    2.52
   8  -1 -31   12.26    2.24
   1  -8  31   11.18    1.76
  -8  -1  31   13.96    2.57
   1   8 -32    9.95    2.15
   8  -1 -32    8.11    1.77
   1  -8  32    6.34    1.35
  -8  -1  32    9.35    2.09
  -8  -1  33   27.94    3.11
   1   8 -33   25.73    2.81
  -8  -1  33   30.71    2.97
   1  -8  33   21.05    2.09
  -8  -1  34   72.12    4.70
   1   8 -34   72.35    4.42
  -8  -1  34   69.29    4.42
  -8  -1  35   21.99    2.41
   1   8 -35   25.71    2.29
  -8  -1  35   21.91    2.14
  -8   2  35    2.62    0.99
  -8   2  34   14.22    2.03
  -2   8 -34   19.59    1.98
  -8   2  34   12.65    1.98
   8  -2  34   15.28    1.42
  -8   2  33    4.22    1.39
  -2   8 -33    4.29    1.33
  -8   2  33    5.13    1.64
   2  -8 -33    2.91    1.07
  -8   2  32   23.81    2.88
  -2   8 -32   21.25    2.51
  -8   2  32   18.25    2.78
   2  -8 -32   19.84    2.47
  -2   8 -31  197.22    8.81
  -8   2  31  200.09    9.48
   8   2 -31  163.66    8.26
  -8   2  31  190.02    9.56
   2  -8 -31  181.80    8.78
   8   2 -30   51.30    4.12
  -2   8 -30   51.67    4.28
  -8   2  30   51.48    4.63
  -8   2  30   51.28    4.00
   2  -8 -30   46.03    4.30
  -2   8 -29    9.37    2.16
   8   2 -29   10.07    2.09
  -8   2  29    8.53    2.45
  -8   2  29   11.65    2.13
   8   2 -28   72.59    5.30
  -2   8 -28   66.67    5.40
  -8   2  28   79.86    5.64
  -8   2  27   56.97    5.43
  -2   8 -27   55.92    4.99
   8   2 -27   57.19    4.75
  -8  -2 -27   53.68    4.51
  -8   2  27   56.67    4.83
  -2  -8  27   50.55    4.17
  -8   2  26    0.89    1.75
  -2   8 -26    0.73    1.78
   8   2 -26    0.87    1.62
  -8  -2 -26   -0.22    1.39
  -8   2  26    1.48    1.51
  -2  -8  26    1.54    1.31
  -8   2  25   19.27    3.42
  -2   8 -25   12.52    2.63
   8   2 -25   17.84    3.01
  -8  -2 -25   11.78    2.43
  -8   2  25   13.90    2.76
  -2  -8  25   15.02    2.43
  -8   2  24    5.17    2.32
  -2   8 -24    3.18    2.10
   8   2 -24    3.04    1.81
  -8  -2 -24    5.19    1.84
  -8   2  24    1.38    1.79
  -2  -8  24    3.50    1.44
  -8   2  23   21.65    3.80
  -2   8 -23   16.63    3.07
   8   2 -23   21.23    3.26
  -8  -2 -23   13.58    2.63
  -8   2  23   17.59    3.17
  -2  -8  23   16.76    2.58
  -2   8 -22   78.25    6.32
  -8   2  22   85.20    7.25
   8   2 -22   71.57    5.90
  -8  -2 -22   84.40    6.41
  -8   2  22   84.62    6.78
  -2  -8  22   79.05    5.61
  -8   2  21   97.26    7.83
  -2   8 -21   86.22    6.78
   8   2 -21   93.26    6.71
  -8  -2 -21   97.02    6.89
  -8   2  21  104.31    7.64
  -2  -8  21   85.85    6.08
  -8   2  20   39.85    5.07
  -8   2  20   35.79    6.18
  -2   8 -20   45.04    4.78
   8   2 -20   48.08    4.66
  -8  -2 -20   39.12    4.31
  -8   2  20   43.01    4.85
  -8  -2 -20   41.50    4.35
  -2  -8  20   37.55    3.80
  -8   2  19   90.38    7.70
  -8   2  19   91.84    9.78
  -2   8 -19   78.79    6.53
   8   2 -19   89.75    6.62
  -8  -2 -19   84.04    6.50
  -8   2  19   92.64    7.23
  -8  -2 -19   85.57    6.27
  -8   2  18   42.23    5.16
  -2   8 -18   45.56    4.82
  -8   2  18   33.50    5.91
   8   2 -18   40.10    4.50
  -8   2  18   48.60    5.82
  -8  -2 -18   33.55    4.10
  -8   2  18   44.72    5.03
  -8  -2 -18   39.08    4.20
  -8   2  17  108.19    8.41
  -8   2  17   96.25   10.08
   8   2 -17  103.12    7.22
   2  -8 -17  103.09    6.00
  -8  -2 -17  107.09    7.33
  -8   2  17  118.07    8.95
  -8   2  17  107.55    7.97
  -8  -2 -17  107.69    6.98
  -8   2  16  247.49   13.43
   8   2 -16  261.14   12.41
  -8  -2 -16  233.84   11.97
  -8   2  16  263.30   14.20
  -8  -2 -16  248.00   12.11
  -2   8 -16  235.82   10.59
  -8   2  16  251.83   13.11
  -8  -2 -16  241.17   11.55
  -8   2  15  103.51    8.08
  -8  -2 -15   81.39    8.55
  -8   2  15   82.48    8.26
   8   2 -15  102.21    7.15
  -2  -8  15   86.16    5.85
  -8   2  15  110.88    8.67
  -8  -2 -15  107.26    7.07
  -8  -2 -15   92.93    6.76
  -8   2  15  100.57    7.68
  -8  -2 -15   91.72    6.21
  -2   8 -15   94.44    5.85
  -8  -2 -14   18.19    2.74
  -8   2  14   25.68    4.05
   8   2 -14   23.30    3.66
  -8   2  14   17.81    3.88
  -8  -2 -14   20.49    4.22
  -2  -8  14   22.58    2.99
  -8  -2 -14   21.28    3.23
  -8  -2 -14   26.19    3.42
  -8   2  14   22.45    4.16
  -8   2  14   25.23    3.81
  -2   8 -14   24.53    2.89
  -8   2  13  104.07    7.82
  -8   2  13   70.84    8.74
  -8  -2 -13   85.24    8.45
  -8   2  13   94.51    8.87
   8   2 -13  100.96    6.96
  -2  -8  13   86.76    5.84
  -8  -2 -13   78.51    6.14
  -8  -2 -13   89.67    6.49
  -2  -8  13   82.72    5.72
  -8   2  13   91.81    7.75
  -8   2  13   90.30    7.11
  -8  -2 -13   88.44    5.89
  -2   8 -13   83.49    5.67
  -8   2  12   41.34    5.06
  -8   2  12   40.69    6.50
  -8   2  12   36.64    5.54
   8   2 -12   40.16    4.52
  -8  -2 -12   43.75    6.15
  -8   2  12   50.12    5.65
  -8  -2 -12   38.05    4.12
  -2  -8  12   38.34    3.92
  -2  -8  12   41.38    3.78
  -8  -2 -12   39.18    4.21
  -8   2  12   43.83    4.84
  -8  -2 -12   35.87    3.59
  -2   8 -12   43.31    3.97
  -2   8 -11   13.74    2.43
  -8   2  11    5.79    3.22
  -8   2  11   13.79    3.14
   8   2 -11   19.31    3.43
  -8  -2 -11   15.12    4.00
  -8   2  11   10.11    3.39
  -2  -8  11   15.19    2.65
  -8  -2 -11   14.08    2.86
  -8  -2 -11   11.74    2.56
  -8  -2 -11   12.25    2.45
  -8   2  11   18.56    3.66
  -2  -8  11   10.29    2.04
  -8   2  11   12.29    2.81
  -8   2  10  119.42    8.47
  -8   2  10  112.37   10.88
  -8   2  10  120.14   10.33
   2  -8 -10  109.78    6.98
   8   2 -10  135.23    8.35
  -8  -2 -10  125.80   10.49
  -8  -2 -10  127.24    8.13
  -8  -2 -10  116.49    7.51
  -8   2  10  131.31    9.11
  -8  -2 -10  103.99    7.09
  -2  -8  10  122.21    7.19
  -2  -8  10  113.39    6.65
  -8   2  10  123.84    8.30
  -2   8 -10  121.90    7.30
  -8   2   9   91.27    7.43
  -8   2   9   99.00    9.96
  -8   2   9  100.52    9.58
   2  -8  -9  109.69    6.88
  -8  -2  -9  107.53    9.81
   8   2  -9  115.10    7.78
  -8  -2  -9  104.52    7.38
  -8  -2  -9  115.04    7.34
  -8   2   9  122.52    8.66
  -2  -8   9  107.05    6.71
  -8  -2  -9   93.53    6.61
  -2  -8   9  105.96    6.20
  -8   2   9  124.52    8.15
  -8   2   8  325.90   15.54
   2  -8  -8  349.15   14.33
  -8   2   8  372.70   19.85
  -8  -2  -8  326.65   18.44
  -2  -8   8  300.68   12.87
  -8  -2  -8  333.68   15.05
  -8  -2  -8  326.98   14.54
  -8   2   8  361.68   16.44
  -2  -8   8  330.57   13.91
  -8  -2  -8  289.20   13.72
  -8   2   8  340.08   15.43
   8  -2   8  335.29   14.00
  -8   2   7   92.14    7.19
   8  -2   7   97.49   10.15
  -8  -2  -7   85.23    6.80
  -8   2   7  102.02    9.54
   2  -8  -7  100.14    6.57
  -8  -2  -7   98.32    9.35
  -2  -8   7   92.17    5.51
  -8  -2  -7   92.71    6.83
  -8  -2  -7   94.38    6.65
  -8   2   7   95.44    7.61
  -8  -2  -7   78.96    5.89
  -2  -8   7   93.69    6.21
   8  -2   7   92.73    6.18
   2  -8  -7   87.36    7.00
  -8   2   6  227.05   12.07
   8  -2   6  253.84   16.68
  -8  -2  -6  199.09   11.44
  -8   2   6  210.68   14.75
   2  -8  -6  230.59   11.09
  -8  -2  -6  208.84   14.57
  -8   2   6  246.30   12.76
  -2  -8   6  222.42   10.74
  -2  -8   6  203.28    9.55
  -8  -2  -6  241.10   11.84
   8  -2   6  254.74   11.28
   2  -8  -6  232.72   12.28
  -8   2   5  445.14   18.56
   8  -2   5  425.49   23.02
  -8  -2  -5  383.73   17.54
  -8   2   5  419.80   21.99
   2  -8  -5  431.04   17.17
  -8  -2  -5  413.16   21.70
  -8  -2  -5  410.52   17.70
  -8   2   5  445.12   18.86
  -2  -8   5  413.03   16.66
  -8  -2  -5  403.74   16.65
   8  -2   5  445.99   17.27
   2  -8  -5  417.82   16.33
   2  -8  -5  406.33   18.04
  -8   2   4  367.03   16.18
   8  -2   4  351.97   20.25
  -8  -2  -4  346.94   15.77
  -8   2   4  366.95   20.17
   2  -8  -4  366.36   15.11
  -8  -2  -4  345.41   19.38
  -8  -2  -4  320.35   15.20
  -8   2   4  377.74   16.63
  -2  -8   4  343.92   14.59
  -8  -2  -4  357.50   14.80
   2  -8  -4  320.95   14.00
   8  -2   4  355.13   14.95
   2  -8  -4  364.28   15.95
  -8   2   3  238.00   11.92
   8  -2   3  235.70   15.51
  -8  -2  -3  213.98   11.62
  -8   2   3  233.87   15.34
  -8   2   3  235.04   12.19
  -8  -2  -3  207.57   11.16
  -2  -8   3  212.14   10.52
  -8  -2  -3  207.89   10.51
   2  -8  -3  229.86   10.46
   2  -8  -3  212.52   11.46
  -8   2   2   24.92    3.62
  -8  -2  -2   12.61    2.76
   8  -2   2   17.90    4.64
  -8   2   2   14.82    4.07
  -2  -8   2   14.07    2.80
  -8  -2  -2   20.52    3.30
  -8   2   2   13.43    3.16
  -8  -2  -2   22.04    3.13
   2  -8  -2   15.92    2.52
   2  -8  -2   16.06    2.87
  -8  -2  -1   17.66    3.16
  -8   2   1   19.81    3.27
   8  -2   1   18.06    4.28
   2  -8  -1   20.33    3.15
  -8   2   1   31.95    5.59
  -8   2   1   28.02    3.77
  -8  -2  -1   21.68    3.33
  -2  -8   1   25.85    3.27
   2  -8  -1   25.15    3.02
   2  -8  -1   29.66    3.65
  -8  -2   0   10.67    2.60
  -8   2   0   17.13    3.03
   8  -2   0   15.95    3.84
  -8  -2   0   11.62    3.96
   2  -8   0   16.77    2.83
  -8   2   0   14.91    4.09
  -8  -2   0   18.01    3.03
  -2  -8   0   12.64    2.54
  -8   2   0   18.62    3.11
   2  -8   0   14.45    2.39
   2  -8   0   15.47    2.78
  -8   2  -1   18.73    3.11
  -8  -2   1   20.36    3.58
   8  -2  -1   27.34    4.99
  -8  -2   1   26.41    5.22
   2  -8   1   24.02    3.29
  -8   2  -1   23.09    3.45
  -8  -2   1   24.19    3.58
  -8   2  -1   25.15    2.87
   2  -8   1   23.21    3.01
   2  -8   1   23.62    3.33
  -8   2  -2   17.48    2.53
  -8  -2   2   16.37    3.36
  -8   2  -2   15.07    2.87
  -8  -2   2   11.53    2.97
   8  -2  -2   19.58    4.42
  -8  -2   2   15.84    4.30
   2  -8   2   17.81    2.95
  -8   2  -2   18.59    3.12
  -8  -2   2   15.00    3.13
  -8  -2   2   14.38    2.74
   2  -8   2   17.39    2.65
   2  -8   2   21.62    3.08
  -2  -8  -2   20.23    3.32
  -8  -2   3  222.58   11.99
  -8  -2   3  187.80   12.26
   8  -2  -3  247.89   14.85
   2  -8   3  219.36   13.54
  -8   2  -3  210.21   11.26
   2  -8   3  228.48   10.99
  -8  -2   3  242.47   15.40
  -8  -2   3  209.83   10.65
  -8   2  -3  234.01   11.68
  -8  -2   3  204.65   11.33
  -8  -2   3  199.67   10.99
  -2  -8  -3  249.01   12.17
   2  -8   3  215.34   10.95
  -8   2  -3  218.90   10.06
   2  -8   3  232.92   10.80
  -8  -2   4  366.72   16.63
  -8  -2   4  311.94   17.31
   8  -2  -4  334.06   18.61
   2  -8   4  360.09   18.30
  -8   2  -4  379.31   16.15
  -8   2  -4  371.37   20.33
  -8  -2   4  356.32   19.78
   2  -8   4  358.45   15.14
  -8  -2   4  355.46   15.18
  -8   2  -4  375.89   15.99
  -8  -2   4  352.46   16.05
  -2  -8  -4  335.66   14.68
  -8  -2   4  375.60   16.05
   2  -8   4  363.64   14.96
   2  -8   4  354.58   15.30
  -2  -8  -4  381.39   16.57
  -8   2  -4  339.13   14.24
  -8  -2   5  427.59   18.63
  -8  -2   5  378.17   19.81
   8  -2  -5  426.64   21.21
   2  -8   5  424.24   20.50
  -8   2  -5  440.33   18.23
  -8   2  -5  432.60   22.31
   2  -8   5  449.94   17.38
  -8  -2   5  421.14   21.94
  -8  -2   5  418.02   17.17
  -8   2  -5  438.60   18.00
  -2  -8  -5  413.22   16.81
  -8  -2   5  425.64   18.28
  -8  -2   5  414.95   17.87
   2  -8   5  415.14   16.83
   2  -8   5  414.28   17.18
  -8   2  -5  417.40   16.42
  -2  -8  -5  443.30   18.65
  -8  -2   6  224.55   12.22
  -8  -2   6  209.34   13.50
   2  -8   6  245.93   14.16
   8  -2  -6  220.29   13.85
  -8   2  -6  215.25   11.55
  -8   2  -6  228.71   15.25
   2  -8   6  217.85   10.83
  -8  -2   6  217.41   14.70
  -8  -2   6  224.20   11.05
  -8  -2   6  232.67   12.11
  -8   2  -6  233.36   11.71
  -2  -8  -6  219.73   10.78
  -8  -2   6  228.71   11.92
   2  -8   6  232.61   10.96
  -8   2  -6  222.14   10.35
   2  -8   6  229.60   11.00
  -2  -8  -6  227.08   12.16
  -8  -2   7   87.32    7.23
  -8  -2   7   85.61    8.38
   2  -8   7   97.46    8.39
  -8   2  -7   83.53    6.58
  -8   2  -7   97.67    9.45
   2  -8   7   88.00    6.16
  -8  -2   7   91.08    9.04
  -2  -8  -7   80.24    5.92
  -8   2  -7   91.91    6.71
  -8  -2   7   90.83    6.37
  -2  -8  -7   87.46    6.47
  -8  -2   7   83.72    7.04
  -8   2  -7   99.48    6.88
  -8  -2   7   80.71    6.71
   2  -8   7   93.70    6.29
  -8   2  -7   87.19    5.83
  -2  -8  -7   91.27    7.14
  -8  -2   8  320.94   15.81
  -8  -2   8  318.29   18.02
   2  -8   8  365.15   17.86
  -8   2  -8  299.78   18.26
   2  -8   8  341.63   14.27
  -8  -2   8  330.52   18.69
  -8   2  -8  351.63   15.21
  -8  -2   8  330.15   15.59
  -8  -2   8  323.90   14.42
  -8   2  -8  351.87   15.10
  -2  -8  -8  314.83   13.92
  -2  -8  -8  318.44   14.59
  -8  -2   8  345.12   15.60
   2  -8   8  348.81   14.45
  -8   2  -8  314.27   13.72
  -2  -8  -8  327.52   15.44
  -8  -2   9  102.70    8.05
  -8  -2   9   94.95    9.25
   2  -8   9  109.30    9.01
  -8   2  -9  102.49    9.59
   2  -8   9  120.03    7.09
  -8  -2   9  114.31   10.13
   8  -2  -9  119.40    8.29
  -8   2  -9  111.46    7.50
  -8  -2   9  112.95    7.33
  -2  -8  -9  106.80    7.37
  -8   2  -9  112.90    7.48
  -2  -8  -9  108.67    6.84
  -8  -2   9  104.31    7.87
  -8  -2   9  108.18    7.89
   2  -8   9  113.91    7.09
  -8   2  -9   99.32    6.47
  -2  -8  -9  110.46    8.06
  -8  -2  10  119.91    8.73
  -8  -2  10  120.04   10.33
  -8   2 -10  111.17   10.04
  -8  -2  10  115.84   10.09
   8  -2 -10  121.91    8.25
  -8   2 -10  125.06    7.96
  -8   2 -10  125.96    7.91
  -2  -8 -10  107.25    6.88
  -8  -2  10  119.44    7.51
  -8  -2  10  118.69    8.32
  -2  -8 -10  110.88    7.63
  -8  -2  10  114.45    8.07
  -8   2 -10  115.00    7.04
   2  -8  10  117.60    7.26
  -2  -8 -10  123.63    8.51
  -8   2 -11   16.27    2.69
  -8  -2  11   17.72    4.12
  -8  -2  11   16.35    3.38
   8  -2 -11   10.61    3.02
  -8  -2  11   14.06    3.99
  -8   2 -11   19.39    4.04
  -8  -2  11   15.78    2.74
  -2  -8 -11   16.40    2.69
  -8   2 -11   10.41    2.57
  -8   2 -11   17.05    3.06
  -2  -8 -11   14.06    2.79
  -8  -2  11    9.94    2.91
   2  -8  11   15.14    2.63
  -8  -2  11   12.27    2.93
  -2  -8 -11   10.92    2.83
  -8  -2  12   38.80    4.94
  -8  -2  12   29.35    5.46
  -8   2 -12   43.00    5.92
  -8  -2  12   32.62    5.36
   8  -2 -12   44.49    4.79
  -8   2 -12   36.15    4.23
  -2  -8 -12   38.37    3.81
  -8  -2  12   37.94    4.16
  -2  -8 -12   34.05    4.21
  -8  -2  12   45.50    5.13
  -8   2 -12   40.90    4.41
  -8  -2  12   37.69    4.66
  -8   2 -12   42.02    4.08
   2  -8  12   40.12    4.04
  -2  -8 -12   39.51    4.71
  -8  -2  13   83.99    7.40
  -8  -2  13   91.05    9.34
  -8   2 -13   98.50    8.86
   8  -2 -13   94.37    6.92
  -8  -2  13   76.82    8.17
  -8   2 -13   94.42    6.89
  -2  -8 -13   89.57    5.94
  -8  -2  13   95.11    6.65
  -8  -2  13   94.34    7.39
  -2  -8 -13   78.54    6.50
  -8   2 -13   84.68    6.57
  -8  -2  13   87.58    7.14
  -8   2 -13   97.88    6.37
   2  -8  13   93.77    6.40
  -2  -8 -13   85.76    7.08
  -8  -2  14   19.27    4.56
  -8  -2  14   22.46    3.89
   8  -2 -14   23.74    3.71
  -8  -2  14   18.35    4.08
  -8   2 -14   22.22    4.29
  -2  -8 -14   22.15    2.87
  -2  -8 -14   18.31    3.24
   2  -8  14   23.19    3.24
  -8  -2  14   16.90    3.04
  -8   2 -14   25.48    3.61
  -8   2 -14   21.82    3.42
  -8  -2  14   21.57    3.74
  -8   2 -14   20.94    3.10
  -8  -2  14   21.39    3.81
  -2  -8 -14   23.35    3.81
  -8  -2  15   91.95    7.78
  -8  -2  15   88.74    9.52
  -8  -2  15   82.19    8.21
  -8   2 -15   83.71    8.02
   8  -2 -15   92.13    6.83
   2  -8  15   97.38    6.59
  -8  -2  15  106.32    7.00
  -8  -2  15   95.88    7.64
  -2  -8 -15   90.57    7.02
  -2  -8 -15   81.36    5.62
  -8   2 -15   92.79    6.89
  -8   2 -15   87.37    6.27
  -8  -2  15   85.03    7.26
  -2  -8 -15  102.21    7.57
  -8  -2  16  264.65   13.98
  -8  -2  16  259.73   17.02
   8  -2 -16  269.99   12.60
  -2  -8 -16  215.70   10.45
  -8  -2  16  260.92   12.15
  -2  -8 -16  220.45   12.25
  -8   2 -16  264.03   12.60
  -8  -2  16  232.34   12.96
  -8  -2  16  252.08   13.25
  -2  -8 -16  245.05   12.96
  -8   2 -16  248.28   11.78
  -8  -2  17  112.64    8.69
  -8  -2  17   91.91   10.32
   8  -2 -17  110.99    7.48
  -8  -2  17  105.37    8.04
  -8  -2  17  111.36    7.29
  -2  -8 -17   97.89    7.49
  -8   2 -17  114.47    7.70
  -2  -8 -17   95.28    5.99
  -2  -8 -17  110.22    7.95
  -8   2 -17  108.16    7.11
   2   8 -18   47.05    5.10
  -8  -2  18   35.55    6.31
  -8  -2  18   34.26    5.05
   8  -2 -18   43.92    4.71
  -8  -2  18   41.63    4.34
  -8  -2  18   40.75    4.93
  -2  -8 -18   34.94    4.51
  -2  -8 -18   44.41    4.87
  -8   2 -18   43.24    4.33
   2  -8  18   43.19    3.79
  -8  -2  19   94.82    7.91
  -8  -2  19   75.48    9.26
   2   8 -19   95.77    7.08
   8  -2 -19   85.39    6.54
  -2  -8 -19   77.69    6.64
  -8  -2  19   84.64    6.24
  -8  -2  19   83.10    7.01
  -2  -8 -19   79.89    6.68
  -8   2 -19   90.12    6.41
   2  -8  19   84.59    5.56
  -8  -2  20   37.66    5.03
  -8  -2  20   41.02    6.76
   2   8 -20   49.50    5.15
   8  -2 -20   39.23    4.41
  -8  -2  20   43.25    4.32
  -8  -2  20   45.51    5.09
  -2  -8 -20   36.23    4.56
   2  -8  20   44.52    4.33
  -8   2 -20   39.85    4.24
  -2  -8 -20   37.98    4.47
   2  -8  20   37.58    3.64
  -8  -2  21   89.43    7.71
   2   8 -21   89.52    7.07
   8  -2 -21   93.67    6.74
  -8  -2  21   92.22    6.30
  -2  -8 -21   68.78    6.43
  -8  -2  21   85.51    7.06
   2  -8  21   98.55    6.51
  -8   2 -21   89.23    6.36
  -2  -8 -21   88.38    6.78
   2  -8  21   92.05    5.91
   2   8 -22   84.93    6.75
  -8  -2  22   95.05    7.68
   8  -2 -22   87.03    6.36
  -8  -2  22   83.55    5.85
  -8  -2  22   86.40    6.84
   2  -8  22   76.36    5.78
  -2  -8 -22   72.93    6.31
  -8   2 -22   72.87    5.84
  -2  -8 -22   74.06    6.14
   2  -8  22   70.63    5.14
  -8   2 -23   16.27    2.88
  -8  -2  23   15.73    3.57
   2   8 -23   16.96    3.31
   8  -2 -23   13.22    2.82
  -8  -2  23   14.65    2.55
  -2  -8 -23   14.89    3.06
  -8  -2  23   14.65    3.00
   2  -8  23   12.42    2.30
  -8  -2  23   19.38    3.76
   2  -8  23   15.27    2.74
  -2  -8 -23   12.41    2.52
  -8   2 -24    1.38    1.74
  -8  -2  24    2.03    2.15
   2   8 -24    4.12    2.17
   8  -2 -24    3.80    2.04
  -8  -2  24    3.30    1.60
  -2  -8 -24    2.70    1.91
  -8  -2  24    2.44    1.69
   2  -8  24    3.81    1.47
  -8  -2  24    2.82    2.16
   2  -8  24    4.08    1.75
  -2  -8 -24    1.83    1.53
  -8  -2  25   18.79    3.47
   2   8 -25   18.29    3.32
   8  -2 -25   14.43    2.72
  -2  -8 -25   10.03    2.50
  -8  -2  25   12.90    2.29
  -8  -2  25   20.28    3.23
   2  -8  25   12.62    2.20
  -8  -2  25   16.92    3.35
   2  -8  25   17.09    2.66
  -8  -2  26    1.85    1.96
   2   8 -26    0.51    1.84
   8  -2 -26    1.76    1.78
  -2  -8 -26    1.94    1.69
  -8  -2  26    0.16    1.26
  -8  -2  26    1.40    1.40
   2  -8  26    0.71    1.08
  -8  -2  26    2.31    2.10
   2  -8  26    2.56    1.45
  -8  -2  27   52.58    5.36
   2   8 -27   53.17    4.90
   8  -2 -27   49.43    4.53
  -2  -8 -27   53.81    4.82
  -8  -2  27   64.04    5.62
   2  -8  27   54.28    4.16
  -8  -2  28   80.01    6.36
   2   8 -28   81.54    5.86
   8  -2 -28   66.24    5.17
  -2  -8 -28   65.66    5.24
  -8  -2  28   88.67    6.44
   2  -8  28   70.11    4.73
  -8  -2  29    7.51    2.28
   2   8 -29    7.47    2.24
   8  -2 -29    9.68    2.08
  -2  -8 -29    9.29    2.01
   2  -8  29    7.16    1.61
  -8  -2  29   11.22    2.58
   2   8 -30   54.65    4.47
  -8  -2  30   49.48    4.60
   8  -2 -30   46.87    4.02
  -2  -8 -30   45.06    3.84
  -8  -2  30   61.38    5.00
   2  -8  30   52.16    3.71
  -8   2 -30   59.19    4.40
   2   8 -31  206.79    9.01
  -8  -2  31  185.91    9.23
   8  -2 -31  168.70    8.26
  -2  -8 -31  151.43    7.73
  -8  -2  31  194.11    9.26
  -8   2 -31  215.87    8.81
   2  -8  31  164.31    7.61
  -8  -2  32   23.80    2.93
   2   8 -32   21.70    2.67
  -2  -8 -32   16.38    1.95
  -8  -2  32   25.09    2.90
   2  -8  32   21.10    2.10
   2   8 -33    3.09    1.26
  -8  -2  33    2.28    1.26
   2  -8  33    2.39    0.85
  -8  -2  33    2.76    1.35
  -8  -2  34   18.43    2.12
   2   8 -34   18.80    2.01
  -8  -2  34   21.15    2.30
   2   8 -35    6.47    1.10
  -8  -2  35    8.35    1.38
   8  -3  34   65.49    3.21
  -3   8 -33    7.80    1.22
  -8   3  33    4.99    1.25
   3  -8 -33    5.77    1.29
  -8   3  32    3.92    1.29
  -3   8 -32    3.81    1.15
  -8   3  32    0.68    1.23
   3  -8 -32    4.25    1.45
  -8   3  31   54.49    4.13
  -3   8 -31   51.99    3.72
  -8   3  31   56.20    4.61
   3  -8 -31   58.33    4.27
  -8   3  30    8.90    1.95
  -8  -3 -30   10.62    1.83
  -8   3  30    5.46    1.97
  -3   8 -30    6.92    1.60
   8   3 -30    4.04    1.61
  -3   8 -29   24.33    2.84
  -8   3  29   23.80    3.17
  -8  -3 -29   21.11    2.79
  -8   3  29   27.72    3.66
   8   3 -29   26.04    2.77
  -3   8 -28   31.33    3.36
  -8   3  28   29.95    3.70
  -8   3  28   29.62    3.98
  -8  -3 -28   31.03    3.35
   8   3 -28   29.35    3.13
  -8   3  27    7.13    2.27
  -8  -3 -27    8.56    2.05
  -8   3  27   11.00    2.95
  -3   8 -27    7.12    1.94
   8   3 -27    6.45    1.89
  -8   3  26    4.46    2.13
  -3   8 -26    6.80    2.11
   8   3 -26    7.07    1.97
  -8  -3 -26    8.55    2.15
  -8   3  26    6.00    2.56
  -8   3  25  108.63    7.70
  -3   8 -25  115.74    7.20
   8   3 -25  114.12    6.93
  -8   3  25  121.27    8.54
  -8  -3 -25  115.19    7.46
  -8   3  25  107.98    6.94
  -8   3  24  162.87    9.78
  -3   8 -24  156.61    8.89
   8   3 -24  166.90    8.70
  -8   3  24  170.90   10.49
  -8  -3 -24  161.78    9.30
  -8   3  24  152.84    8.74
  -8   3  23   57.43    5.60
  -3   8 -23   51.11    4.81
   8   3 -23   46.91    4.48
  -8  -3 -23   46.40    4.81
  -8   3  23   43.29    5.37
  -8   3  23   54.89    4.93
  -8   3  22   43.65    5.04
  -3   8 -22   50.10    4.75
   8   3 -22   50.22    4.64
  -8  -3 -22   43.46    4.72
  -8   3  22   46.25    4.69
  -3   8 -22   42.00    3.52
  -8   3  21   12.10    2.95
  -3   8 -21   22.60    3.39
   8   3 -21   14.53    2.79
  -8  -3 -21   15.11    3.05
  -8   3  21   17.36    3.65
  -3   8 -21   16.63    2.21
  -8   3  21   22.34    3.34
  -8   3  20   59.61    5.91
  -3   8 -20   64.98    5.62
   8   3 -20   58.28    5.08
  -8   3  20   65.76    6.51
  -8  -3 -20   55.58    5.42
  -8   3  20   64.49    5.67
  -3   8 -20   55.83    4.27
  -8   3  19   44.86    5.09
  -8   3  19   53.72    7.30
  -3   8 -19   45.48    4.66
   8   3 -19   44.05    4.47
  -8   3  19   41.93    5.35
  -8  -3 -19   45.28    4.78
  -8   3  19   45.28    4.81
  -3   8 -19   41.12    3.70
  -3   8 -18   10.47    2.03
  -8   3  18   12.17    3.67
  -8   3  18   10.21    2.81
   8   3 -18    6.06    2.29
  -3   8 -18   10.77    2.75
  -3   8 -18   10.85    1.92
  -8  -3 -18    9.98    2.72
  -8   3  18   10.07    3.09
  -8   3  18    8.51    2.44
  -3   8 -17  261.06   12.89
  -8   3  17  282.36   14.22
  -8   3  17  249.05   17.19
   8   3 -17  265.05   12.56
  -8   3  17  291.89   14.97
  -8  -3 -17  271.44   13.35
  -8   3  17  285.48   13.69
  -3   8 -17  258.53   11.58
  -8   3  16  310.03   14.95
  -8   3  16  259.52   17.66
  -3   8 -16  287.71   13.70
   8   3 -16  283.21   13.20
  -8   3  16  309.59   15.60
  -8  -3 -16  295.25   14.10
  -8   3  16  293.82   14.26
  -3   8 -16  287.85   12.44
  -8   3  15   37.13    4.73
  -8   3  15   41.45    6.40
   8   3 -15   35.33    4.21
  -8  -3 -15   30.91    5.23
  -8   3  15   40.33    5.30
  -8  -3 -15   35.51    4.39
  -8  -3 -15   36.00    4.07
  -8   3  15   47.80    5.03
  -3   8 -15   41.99    3.93
  -8   3  14  342.17   16.00
  -8   3  14  302.49   17.74
  -8  -3 -14  300.02   17.99
   8   3 -14  333.75   14.69
  -8  -3 -14  324.08   15.13
  -8  -3 -14  329.43   14.46
  -3  -8  14  322.00   13.83
  -8   3  14  334.30   16.57
  -8   3  14  361.98   15.89
  -3   8 -14  322.67   13.81
  -8   3  13   48.18    5.37
  -8   3  13   49.53    6.51
  -8  -3 -13   41.92    6.17
   3  -8 -13   51.28    4.45
   8   3 -13   49.77    4.89
  -3  -8  13   45.26    4.35
  -8   3  13   52.94    5.87
  -8  -3 -13   52.54    5.10
  -8  -3 -13   49.80    4.76
  -8   3  13   54.42    5.31
   8  -3  13   47.48    4.07
  -3   8 -13   55.50    4.61
  -8   3  12  383.51   16.73
  -8  -3 -12  314.75   18.76
  -8   3  12  312.59   18.45
   3  -8 -12  335.59   14.42
   8   3 -12  341.07   15.08
  -3  -8  12  341.74   14.48
  -8   3  12  358.85   17.06
  -8  -3 -12  346.30   15.61
  -8  -3 -12  348.86   15.04
   8  -3  12  332.22   14.20
  -3   8 -12  374.46   14.90
  -8   3  11  116.35    8.11
  -8  -3 -11   89.24    9.50
  -8   3  11  103.92    9.69
   3  -8 -11   97.46    6.61
   8   3 -11  103.49    7.15
  -8   3  11  129.09    9.00
  -3  -8  11  113.99    7.00
  -8  -3 -11  112.67    7.60
  -8  -3 -11  109.80    7.19
   8  -3  11  102.41    6.63
  -3   8 -11  108.97    6.95
  -8   3  10   73.31    6.35
  -8  -3 -10   70.87    8.05
  -8   3  10   58.99    7.40
   3  -8 -10   69.68    5.40
   8   3 -10   76.96    6.03
  -8   3  10   68.73    6.47
  -8  -3 -10   63.17    5.66
  -3  -8  10   72.71    5.51
  -8  -3 -10   68.73    5.60
   8  -3  10   73.69    5.45
   3  -8 -10   64.13    4.96
  -3   8 -10   79.55    5.80
  -8   3   9   63.34    5.87
   8  -3   9   65.69    9.06
  -8  -3  -9   60.25    7.61
  -8   3   9   58.56    7.38
   3  -8  -9   59.60    5.11
   8   3  -9   57.50    5.26
  -8  -3  -9   63.39    5.54
  -8  -3  -9   63.91    5.33
  -3  -8   9   63.08    5.16
  -8  -3  -9   59.02    5.43
  -8   3   9   63.34    6.18
   3  -8  -9   55.02    4.71
   8  -3   9   66.38    5.18
  -3   8  -9   67.47    5.37
  -8   3   8  109.12    7.85
   8  -3   8  106.38   11.22
  -8  -3  -8  106.34   10.02
  -8   3   8   99.22    9.74
   3  -8  -8  106.56    6.99
   8   3  -8  101.72    7.20
  -8  -3  -8  111.29    7.54
  -8  -3  -8  113.92    7.29
  -8   3   8  123.87    8.57
  -3  -8   8  112.45    7.08
  -8  -3  -8  103.38    7.22
   8  -3   8  116.57    7.11
   3  -8  -8  105.68    6.71
  -8   3   7   16.66    3.14
   8  -3   7   13.85    4.49
  -8   3   7   12.02    3.99
   3  -8  -7   13.80    2.76
  -8  -3  -7   14.17    4.08
  -3  -8   7   14.44    2.65
  -8  -3  -7    9.95    2.63
  -8  -3  -7   12.73    2.61
  -8  -3  -7   17.87    2.94
  -8   3   7   15.97    3.37
   3  -8  -7   12.27    2.44
   8  -3   7   12.03    2.47
  -8   3   6  399.60   17.10
   8  -3   6  403.83   22.86
  -8  -3  -6  356.06   20.44
  -8   3   6  391.41   21.01
   3  -8  -6  400.84   16.17
  -8  -3  -6  353.76   16.14
  -3  -8   6  379.23   15.78
  -8   3   6  395.74   17.60
  -8  -3  -6  385.07   16.07
  -8  -3  -6  364.41   15.45
   3  -8  -6  346.93   15.20
   8  -3   6  377.32   15.89
   3  -8  -6  395.87   17.10
  -8   3   5   86.07    6.68
   8  -3   5   84.11    9.68
  -8  -3  -5   85.50    6.67
  -8   3   5   88.18    9.07
   3  -8  -5   82.94    6.13
  -8  -3  -5   79.38    8.81
  -8  -3  -5   68.27    5.89
  -8  -3  -5   77.72    6.01
  -3  -8   5   76.69    5.86
  -8   3   5   73.43    6.61
  -8  -3  -5   77.72    5.69
   3  -8  -5   82.51    5.90
   8  -3   5   86.55    6.17
   3  -8  -5   84.35    6.59
  -8   3   4   64.51    5.69
   8  -3   4   62.20    8.29
  -8  -3  -4   52.67    5.22
  -8   3   4   51.38    7.29
   3  -8  -4   50.82    4.93
  -8  -3  -4   64.34    7.97
  -8  -3  -4   56.77    5.21
  -8   3   4   55.10    5.64
  -3  -8   4   57.92    4.99
  -8  -3  -4   55.30    4.89
   3  -8  -4   61.89    5.05
   8  -3   4   62.07    5.19
   3  -8  -4   63.34    5.71
  -8   3   3  321.62   14.23
   8  -3   3  305.51   18.89
  -8  -3  -3  257.81   13.51
  -8   3   3  287.24   17.67
  -8  -3  -3  281.90   13.36
  -3  -8   3  291.80   12.99
  -8   3   3  312.21   14.46
  -8  -3  -3  271.06   12.64
  -8   3   3  279.42   12.28
   3  -8  -3  285.55   12.83
   8  -3   3  304.20   13.54
   3  -8  -3  274.68   13.46
  -8   3   2  235.20   11.62
   8  -3   2  235.32   16.01
  -8  -3  -2  213.79   11.50
  -8   3   2  203.40   14.50
  -8  -3  -2  208.05   10.45
  -8   3   2  243.91   12.03
  -8  -3  -2  208.39   10.95
  -3  -8   2  201.80   10.48
  -8   3   2  205.68    9.97
   3  -8  -2  202.09   10.38
   8  -3   2  225.35   11.07
   3  -8  -2  206.12   10.98
  -8   3   1   47.71    4.80
   8  -3   1   43.65    6.69
  -8  -3  -1   40.23    4.60
  -8   3   1   45.95    6.76
   3  -8  -1   35.98    4.08
  -8  -3  -1   40.00    4.19
  -8  -3  -1   36.64    4.26
  -3  -8   1   40.90    4.32
  -8   3   1   41.76    4.63
   3  -8  -1   43.94    4.26
  -8   3   1   41.34    3.96
   3  -8  -1   39.48    4.24
   8  -3   0  143.53   11.87
  -8  -3   0  116.48    8.20
  -8   3   0  137.85    8.41
  -8   3   0  121.74   11.00
   3  -8   0  134.31    8.10
  -8  -3   0  128.86   11.30
  -8  -3   0  124.31    7.67
  -3  -8   0  121.81    7.59
  -8  -3   0  124.75    8.09
  -8   3   0  138.80    8.54
   3  -8   0  139.15    7.97
  -8   3   0  126.83    7.26
   3  -8   0  132.20    8.11
   8  -3  -1   39.27    6.27
   3  -8   1   40.06    5.97
  -8   3  -1   34.19    4.13
  -8  -3   1   31.21    4.20
   3  -8   1   38.86    4.28
  -8  -3   1   42.58    6.57
  -8   3  -1   46.80    4.75
  -8  -3   1   39.71    4.12
  -8  -3   1   34.38    4.21
   3  -8   1   40.03    4.03
  -8   3  -1   41.57    4.00
   3  -8   1   44.07    4.35
  -8  -3   2  206.84   11.38
   8  -3  -2  229.35   15.23
   3  -8   2  226.18   14.54
  -8   3  -2  213.91   11.17
  -8  -3   2  208.23   14.86
   3  -8   2  199.44   10.67
  -8  -3   2  210.23   11.04
  -8   3  -2  219.11   11.24
   3  -8   2  220.62   10.82
   3  -8   2  206.36   10.61
  -8   3  -2  216.79   10.24
  -8  -3   3  292.53   14.05
   8  -3  -3  317.50   18.18
   3  -8   3  287.61   16.99
  -8   3  -3  273.93   13.34
  -8   3  -3  295.02   17.67
   3  -8   3  295.78   13.24
  -8  -3   3  303.34   18.12
  -8  -3   3  262.17   13.17
  -8   3  -3  287.38   13.46
  -8  -3   3  277.21   13.37
  -8   3  -3  274.31   12.38
   3  -8   3  292.01   13.06
   3  -8   3  285.34   12.88
  -8  -3   4   61.81    5.83
   8  -3  -4   69.85    7.99
   3  -8   4   65.02    7.42
  -8   3  -4   62.35    5.45
  -8   3  -4   62.09    7.72
   3  -8   4   57.91    5.10
  -8  -3   4   49.02    7.10
  -8   3  -4   67.37    5.58
  -8  -3   4   49.53    5.00
  -3  -8  -4   56.61    5.03
  -8  -3   4   54.49    5.18
  -8   3  -4   56.51    4.71
   3  -8   4   61.84    5.11
  -3  -8  -4   65.42    6.01
   3  -8   4   60.44    4.97
  -8  -3   5   73.97    6.66
  -8  -3   5   65.53    7.13
   3  -8   5   70.53    7.89
   8  -3  -5   78.52    8.44
  -8   3  -5   82.51    6.31
  -8   3  -5   90.25    9.23
   3  -8   5   84.20    6.16
  -8  -3   5   67.12    8.20
  -3  -8  -5   84.50    6.03
  -8   3  -5   80.72    6.20
  -8  -3   5   80.85    6.45
  -8  -3   5   74.59    6.21
  -8   3  -5   85.04    5.84
   3  -8   5   83.84    6.01
  -3  -8  -5   80.87    6.48
   3  -8   5   76.95    5.63
  -8  -3   6  357.82   16.79
  -8  -3   6  318.78   18.12
   3  -8   6  400.35   20.52
   8  -3  -6  382.00   20.35
  -8   3  -6  369.04   16.35
  -8   3  -6  391.76   20.91
   3  -8   6  385.08   15.96
  -8  -3   6  392.08   21.11
  -8   3  -6  386.57   16.30
  -8  -3   6  356.95   15.87
  -8  -3   6  334.45   15.92
  -3  -8  -6  380.54   15.74
  -8   3  -6  410.29   16.61
  -8  -3   6  379.89   16.67
   3  -8   6  395.92   16.07
  -3  -8  -6  388.02   16.95
  -8   3  -6  393.91   15.59
  -8   3  -7   14.66    2.60
  -8  -3   7   11.50    3.37
  -8  -3   7   17.29    3.30
   3  -8   7   13.28    3.59
  -8   3  -7   14.34    4.14
   3  -8   7   13.13    2.67
  -8  -3   7   15.86    4.10
  -3  -8  -7   15.46    2.80
  -8  -3   7   15.27    3.03
  -8   3  -7   14.67    2.76
  -3  -8  -7   17.09    3.18
  -8  -3   7   12.80    2.97
  -8   3  -7   20.72    3.20
  -8  -3   7   11.69    2.81
   3  -8   7   14.51    2.72
  -3  -8  -7   14.47    3.40
  -8  -3   8  110.98    8.10
  -8  -3   8   93.34    9.03
   3  -8   8  111.73    9.80
  -8  -3   8  105.08    9.94
  -8   3  -8  121.06   10.52
   3  -8   8  108.30    6.97
   8  -3  -8  106.90    7.73
  -8   3  -8  121.19    7.62
  -8   3  -8  109.81    7.29
  -8  -3   8  108.39    7.26
  -8  -3   8  101.84    7.39
  -3  -8  -8  113.82    7.07
  -3  -8  -8  115.51    7.88
  -8  -3   8  112.99    7.81
   3  -8   8  106.67    7.09
  -3  -8  -8   99.32    7.40
  -8   3  -8  108.66    6.84
  -8  -3   9   57.67    5.84
  -8  -3   9   67.68    7.48
   3  -8   9   68.89    7.80
  -8  -3   9   61.27    7.60
  -8   3  -9   73.64    7.96
   3  -8   9   61.15    5.05
   8  -3  -9   57.33    5.63
  -8  -3   9   59.74    5.23
  -8   3  -9   62.26    5.34
  -8   3  -9   59.73    5.31
  -3  -8  -9   61.33    5.69
  -8  -3   9   56.27    5.43
  -3  -8  -9   59.65    5.01
  -8  -3   9   58.19    5.60
   3  -8   9   64.84    5.36
  -8   3  -9   65.06    5.08
  -3  -8  -9   71.26    6.05
  -8  -3  10   65.39    6.35
  -8  -3  10   65.58    7.76
   3  -8  10   67.54    7.67
  -8  -3  10   78.48    8.40
  -8   3 -10   71.76    7.91
   3  -8  10   69.88    5.37
   8  -3 -10   78.87    6.21
  -8   3 -10   71.80    5.90
  -8   3 -10   66.65    5.60
  -3  -8 -10   65.75    5.29
  -8  -3  10   65.92    5.91
  -3  -8 -10   71.30    6.26
  -8  -3  10   69.38    5.75
  -8  -3  10   72.22    6.33
   3  -8  10   73.18    5.71
  -8   3 -10   73.37    5.49
  -3  -8 -10   76.59    6.36
  -8  -3  11   97.23    7.95
  -8  -3  11   95.85    9.58
   3  -8  11  112.90    9.86
  -8  -3  11  101.86    9.58
  -8   3 -11   98.92    9.37
   3  -8  11  104.12    6.70
   8  -3 -11  111.06    7.40
  -8  -3  11  107.22    7.32
  -8   3 -11  112.20    7.35
  -3  -8 -11  103.18    7.68
  -8  -3  11   97.60    7.32
  -3  -8 -11  106.97    6.74
  -8   3 -11  102.49    7.17
  -8  -3  11  110.18    7.91
  -8   3 -11  106.77    6.93
   3  -8  11  108.40    7.08
  -3  -8 -11  105.17    7.55
  -8  -3  12  339.18   16.43
  -8  -3  12  288.90   18.66
   3  -8  12  349.24   19.01
  -8  -3  12  284.06   17.95
  -8   3 -12  310.93   18.22
   3  -8  12  347.89   14.30
   8  -3 -12  352.65   15.22
  -8   3 -12  352.12   15.20
  -3  -8 -12  339.71   15.89
  -3  -8 -12  328.35   14.21
  -8  -3  12  338.55   15.52
  -8  -3  12  350.78   15.27
  -8   3 -12  348.92   15.16
  -8  -3  12  352.29   16.22
   3  -8  12  343.69   14.86
  -8   3 -12  351.58   14.71
  -3  -8 -12  349.66   15.70
  -8  -3  13   44.17    5.30
  -8  -3  13   51.43    7.10
   3  -8  13   49.53    6.50
  -8  -3  13   42.24    6.08
  -8   3 -13   47.24    6.24
   3  -8  13   51.28    4.37
   8  -3 -13   61.16    5.29
  -8   3 -13   41.11    4.47
  -8  -3  13   44.19    4.67
  -8  -3  13   44.24    4.96
  -3  -8 -13   50.11    5.31
  -3  -8 -13   42.41    4.18
  -8   3 -13   48.21    4.81
  -8  -3  13   41.91    5.02
  -8   3 -13   48.34    4.63
  -3  -8 -13   54.42    5.36
  -8  -3  14  338.38   16.18
  -8  -3  14  280.15   17.41
  -8   3 -14  301.78   17.26
   8  -3 -14  346.24   14.84
  -8  -3  14  308.39   14.39
  -3  -8 -14  314.66   15.35
  -8  -3  14  311.53   14.97
  -8   3 -14  329.76   14.71
  -3  -8 -14  336.37   13.71
  -8  -3  14  324.60   15.57
  -8   3 -14  332.01   14.30
  -3  -8 -14  322.38   14.97
  -8  -3  15   36.14    4.88
   8  -3 -15   36.27    4.23
  -8   3 -15   36.28    5.29
  -8  -3  15   41.79    4.59
  -8   3 -15   39.24    4.45
  -3  -8 -15   35.80    4.63
  -3  -8 -15   39.25    3.81
  -8  -3  15   37.64    4.46
  -8  -3  15   35.37    4.74
  -8   3 -15   37.96    4.10
  -3  -8 -15   36.72    4.40
  -8  -3  16  294.22   15.01
   3   8 -16  300.06   14.07
   8  -3 -16  292.13   13.42
  -8  -3  16  270.45   13.67
  -3  -8 -16  285.70   14.45
  -8   3 -16  308.07   13.80
  -8  -3  16  280.36   13.42
  -8   3 -16  285.56   13.12
  -8  -3  16  295.38   14.74
  -3  -8 -16  277.19   13.58
   3   8 -17  285.19   13.55
  -8  -3  17  270.90   14.40
   8  -3 -17  264.51   12.75
   3  -8  17  276.58   12.71
  -8  -3  17  263.55   12.86
  -3  -8 -17  266.25   13.93
  -8  -3  17  273.43   13.35
  -8   3 -17  284.32   12.91
  -8  -3  17  279.20   14.25
  -3  -8 -17  266.76   13.06
  -8   3 -18   12.80    2.66
  -8  -3  18   11.34    3.00
   3   8 -18   11.36    2.84
   8  -3 -18   12.80    2.76
  -8  -3  18   11.08    2.61
  -3  -8 -18    7.07    2.83
  -8  -3  18   12.54    2.71
   3  -8  18   13.44    2.57
  -8  -3  18   10.39    2.92
  -3  -8 -18    8.65    2.45
  -8  -3  19   35.80    4.90
   3   8 -19   45.14    4.81
   8  -3 -19   43.35    4.49
  -8  -3  19   39.87    4.51
  -8  -3  19   44.20    4.56
  -3  -8 -19   43.05    5.12
   3  -8  19   43.70    4.36
  -8  -3  19   46.11    5.27
  -3  -8 -19   36.16    4.15
  -8   3 -19   40.15    4.22
  -8  -3  20   59.57    6.07
   3   8 -20   64.66    5.68
   8  -3 -20   59.57    5.23
   3  -8  20   52.82    4.86
  -8  -3  20   62.77    5.50
  -3  -8 -20   59.25    5.91
  -8  -3  20   65.90    5.43
  -8  -3  20   66.63    6.32
  -3  -8 -20   56.85    5.03
  -8   3 -20   62.12    5.30
  -8   3 -21   16.66    2.85
  -8  -3  21   19.36    3.61
   3   8 -21   21.40    3.49
   8  -3 -21   14.31    2.84
  -8  -3  21   20.25    3.07
  -3  -8 -21   16.71    3.32
  -8  -3  21   14.69    2.70
  -8  -3  21   14.07    3.22
   3  -8  21   16.41    2.84
  -3  -8 -21   18.01    2.82
  -8  -3  22   53.89    5.74
   3   8 -22   45.49    4.87
   8  -3 -22   46.57    4.59
  -3  -8 -22   56.73    5.69
  -8  -3  22   56.08    4.77
   3  -8  22   48.05    4.43
  -8  -3  22   48.69    5.38
  -8  -3  23   51.01    5.54
   3   8 -23   58.19    5.27
   8  -3 -23   47.40    4.59
  -3  -8 -23   42.82    5.03
  -8  -3  23   57.01    4.71
   3  -8  23   54.35    4.57
  -8  -3  23   52.64    5.54
   3  -8  23   46.12    3.94
  -8  -3  24  162.15    9.96
   3   8 -24  169.89    9.39
   8  -3 -24  163.09    8.78
  -8  -3  24  165.78    8.59
  -3  -8 -24  161.47    9.71
   3  -8  24  169.44    8.59
   3  -8  24  151.32    7.92
  -8  -3  25  117.26    7.96
   3   8 -25  113.85    7.30
   8  -3 -25  102.62    6.74
   3  -8  25  122.15    6.80
  -8  -3  25  117.97    6.68
  -3  -8 -25  103.37    7.50
   3  -8  25  104.89    6.17
  -8  -3  26    5.71    2.13
   3   8 -26    7.70    2.21
   8  -3 -26    6.51    2.02
  -8  -3  26    8.19    1.94
  -3  -8 -26    4.72    1.97
   3  -8  26    6.25    1.62
   3  -8  26    5.22    1.67
  -8   3 -27    9.72    2.10
  -8  -3  27   10.11    2.49
   3   8 -27    8.45    2.10
   8  -3 -27    7.58    1.93
  -8  -3  27    9.17    1.87
  -3  -8 -27    8.29    2.22
   3  -8  27    8.09    1.65
   3  -8  27    9.95    1.91
  -8  -3  28   31.80    3.77
   3   8 -28   29.83    3.38
   8  -3 -28   25.95    3.01
  -8  -3  28   29.85    2.80
  -3  -8 -28   27.42    3.53
  -8   3 -28   37.59    3.49
   3  -8  28   28.76    2.76
   3   8 -29   25.75    3.02
  -8  -3  29   25.64    3.24
   8  -3 -29   19.38    2.58
  -3  -8 -29   22.04    2.87
  -8   3 -29   27.82    3.04
   3  -8  29   23.68    2.41
  -8   3 -30    7.94    1.79
  -8  -3  30    5.96    1.78
   3   8 -30    9.69    1.95
   8  -3 -30    5.87    1.70
  -3  -8 -30    7.38    1.78
   3  -8  30    7.11    1.40
  -8  -3  31   55.11    4.09
   3   8 -31   54.30    3.88
  -3  -8 -31   50.55    3.89
  -8  -3  31   60.58    4.54
  -8   3 -31   64.49    4.11
   3  -8  31   47.90    3.28
  -8  -3  32    2.26    1.15
   3   8 -32    2.80    1.19
  -3  -8 -32    1.64    1.02
   3  -8  32    1.34    0.80
  -8  -3  32    3.99    1.48
  -8  -3  33    7.58    1.33
   3   8 -33    8.03    1.31
  -3  -8 -33    5.92    1.17
   3  -8  33    7.40    1.01
  -8  -3  33   10.86    1.84
  -8  -3  34   76.98    4.36
   4  -8 -33   24.74    2.16
   8  -4  33   23.63    1.81
  -8   4  32   88.89    4.91
   4  -8 -32   90.14    4.83
  -8  -4 -31    3.46    1.14
  -8   4  31    3.52    1.50
   4  -8 -31    4.86    1.51
  -8   4  30    3.95    1.23
  -8  -4 -30    4.65    1.42
  -8   4  30    4.97    1.67
  -8   4  29   93.14    5.58
  -8   4  29  102.10    6.59
  -8  -4 -29  110.03    6.07
  -8   4  28    8.10    1.76
  -8  -4 -28    8.42    1.93
  -8   4  28   11.85    2.49
   8   4 -28    6.66    1.57
  -8   4  27   20.27    2.73
  -8  -4 -27   24.05    3.04
  -8   4  27   19.81    3.22
  -4   8 -27   17.13    2.30
   8   4 -27   19.79    2.36
  -8   4  26   73.00    5.42
  -4   8 -26   71.62    4.84
   8   4 -26   64.45    4.59
  -8   4  26   77.32    6.20
  -8  -4 -26   77.72    5.71
  -8   4  25   11.69    2.48
  -4   8 -25   16.57    2.45
   8   4 -25   11.71    2.18
  -8  -4 -25   16.25    2.82
  -8   4  25   14.98    3.06
  -4   8 -25   14.28    1.88
  -4   8 -24    1.52    1.06
  -8   4  24    3.67    1.75
  -4   8 -24    2.32    1.55
   8   4 -24    3.20    1.65
  -8  -4 -24    2.32    1.72
  -8   4  24    1.19    2.02
  -8   4  23  110.35    7.33
  -4   8 -23  100.11    6.45
   8   4 -23  103.42    6.33
  -8   4  23  123.44    8.36
  -8  -4 -23  107.25    7.45
  -4   8 -23   97.26    5.66
  -8   4  22   29.65    3.95
  -4   8 -22   38.18    3.86
   8   4 -22   28.27    3.34
  -8   4  22   40.03    4.83
  -8  -4 -22   29.34    3.99
  -4   8 -22   33.51    3.16
  -4   8 -21   12.98    2.12
  -8   4  21   12.82    2.76
  -8  -4 -21   13.08    2.85
  -8   4  21   12.95    3.20
  -4   8 -21   12.48    2.48
   8   4 -21   14.13    2.56
  -4   8 -20    3.10    1.39
  -8   4  20    2.00    1.72
  -4   8 -20    2.06    1.58
   8   4 -20    3.33    1.74
  -8  -4 -20    2.38    1.79
  -8   4  20    2.71    2.33
  -4   8 -19   30.82    3.67
  -8   4  19   31.21    4.12
   8   4 -19   34.06    3.71
  -8  -4 -19   35.65    4.38
  -8   4  19   31.71    4.73
  -4   8 -19   32.90    3.33
  -4   8 -18   11.88    2.23
  -8   4  18   11.24    2.70
  -4   8 -18   10.28    2.35
   8   4 -18   12.75    2.56
  -8  -4 -18   12.55    2.95
  -8   4  18   10.12    3.04
  -8   4  17  213.31   11.40
  -8   4  17  195.35   14.61
  -4   8 -17  182.42   10.00
   8   4 -17  193.12    9.89
  -4   8 -17  193.23    9.11
  -8   4  17  198.34   11.80
  -8  -4 -17  208.21   11.33
   8  -4  17  204.86    9.37
  -4   8 -17  193.63    9.61
  -8   4  16   82.55    6.70
  -8   4  16   91.55    9.63
  -4   8 -16   75.63    5.88
   8   4 -16   69.50    5.55
  -4   8 -16   80.76    5.39
  -8   4  16   88.05    7.44
  -8  -4 -16   81.94    6.77
   8  -4  16   77.10    5.31
  -4   8 -16   82.93    5.70
  -4   8 -15   94.13    6.66
  -8   4  15  108.61    7.65
  -8   4  15   97.40   10.11
   8   4 -15   94.02    6.53
   4  -8 -15   94.32    6.06
  -4   8 -15   97.60    6.20
  -8  -4 -15  100.60    7.53
  -8   4  15  111.15    8.43
  -4   8 -15   99.18    6.48
   8  -4  15  102.60    6.32
  -8   4  14  140.61    8.90
  -8   4  14  132.94   11.96
  -4   8 -14  131.44    7.97
   8  -4  14  137.94   13.29
   8   4 -14  142.70    8.03
  -8   4  14  125.36   10.55
   4  -8 -14  138.23    7.68
  -8  -4 -14  106.52   10.27
  -8  -4 -14  149.60    9.34
  -8   4  14  131.16    9.41
   8  -4  14  118.84    7.29
  -4   8 -14  139.12    7.92
   4  -8 -14  121.75    7.32
  -8   4  13  501.95   20.39
  -8   4  13  519.71   26.45
   8  -4  13  489.81   27.68
  -8   4  13  479.70   23.83
   4  -8 -13  471.71   18.62
  -8  -4 -13  416.48   23.42
   8   4 -13  469.24   18.81
  -8   4  13  528.62   21.69
  -8  -4 -13  522.10   20.74
   8  -4  13  480.44   18.68
   4  -8 -13  453.44   18.42
  -4   8 -13  519.49   19.23
  -8   4  12  190.97   10.64
   8  -4  12  192.87   16.28
  -8   4  12  196.30   13.50
  -8  -4 -12  152.12   12.73
   4  -8 -12  190.48    9.65
   8   4 -12  184.78    9.67
  -8   4  12  195.79   11.45
  -8  -4 -12  178.51   10.51
  -8  -4 -12  176.04    9.36
  -4   8 -12  192.60    9.75
   8  -4  12  187.71    9.55
   4  -8 -12  160.17    9.08
  -4   8 -11   12.21    2.51
  -8   4  11    6.21    2.36
   8  -4  11    8.54    4.30
   8   4 -11   12.10    2.73
  -8   4  11   10.72    3.42
   4  -8 -11   11.46    2.34
  -8  -4 -11   10.92    3.76
  -8  -4 -11   10.03    2.14
  -8  -4 -11    6.65    2.41
  -8   4  11   14.87    3.20
   8  -4  11    9.51    2.24
   4  -8 -11    7.37    1.96
  -4   8 -10   18.82    2.97
  -8   4  10   12.33    2.86
   8  -4  10   15.34    4.72
   8   4 -10   10.71    2.54
  -8   4  10   15.78    3.97
  -8  -4 -10   13.42    4.03
   4  -8 -10   10.78    2.48
  -8  -4 -10   12.48    2.49
  -8  -4 -10   16.17    2.98
  -8   4  10   10.99    2.99
   8  -4  10   12.57    2.53
   4  -8 -10   13.91    2.59
  -8   4   9  249.84   12.50
   8  -4   9  270.20   18.95
  -8   4   9  231.51   15.47
  -8  -4  -9  202.49   15.22
   4  -8  -9  252.07   11.79
   8   4  -9  246.38   11.63
  -8  -4  -9  262.54   12.75
  -8   4   9  247.06   13.11
  -4  -8   9  246.03   11.68
  -8  -4  -9  219.77   11.04
   8  -4   9  240.02   11.58
   4  -8  -9  219.93   11.29
  -4   8  -9  251.91   11.98
  -8   4   8  173.51   10.11
   8  -4   8  188.54   15.49
  -8   4   8  162.21   12.90
  -8  -4  -8  158.01   13.20
   4  -8  -8  178.52    9.65
   8   4  -8  183.83    9.67
  -8  -4  -8  187.33   10.50
  -4  -8   8  178.71    9.65
  -8   4   8  206.61   11.27
  -8  -4  -8  175.23    9.24
  -4   8  -8  185.78    9.98
   4  -8  -8  185.91    9.78
   8  -4   8  193.53    9.89
  -8   4   8  163.49    9.01
  -8   4   7  106.86    7.53
   8  -4   7  120.26   12.01
  -8   4   7  105.11   10.03
  -8  -4  -7  107.44   10.55
   4  -8  -7  103.12    7.06
   8   4  -7  106.98    7.14
  -4  -8   7  117.35    7.35
  -8   4   7  114.00    8.10
  -8  -4  -7  109.58    6.86
  -8   4   7   90.00    6.48
   4  -8  -7  113.00    7.32
   8  -4   7  115.98    7.32
  -8   4   6  364.46   16.43
   8  -4   6  379.19   22.94
  -8   4   6  366.32   20.77
  -8  -4  -6  374.09   21.19
   4  -8  -6  396.51   16.34
   8   4  -6  364.63   15.97
  -8  -4  -6  358.06   16.00
  -8  -4  -6  369.65   15.55
  -8   4   6  421.03   17.68
  -4  -8   6  395.25   16.24
  -8  -4  -6  371.54   15.58
   4  -8  -6  386.11   16.13
   8  -4   6  389.96   16.42
  -8   4   6  389.00   15.77
   4  -8  -6  376.53   16.73
  -8   4   5   10.41    2.30
  -8   4   5    3.59    1.85
   8  -4   5    9.17    4.16
  -8  -4  -5    2.35    3.11
  -8   4   5    7.42    3.37
   4  -8  -5    6.79    2.16
  -8  -4  -5    4.08    1.76
  -8  -4  -5    6.45    2.11
  -4  -8   5    2.43    2.21
  -8  -4  -5    5.65    1.91
  -8   4   5    3.32    2.26
   4  -8  -5    3.25    1.92
   8  -4   5    6.23    2.12
   4  -8  -5    5.26    2.04
  -8   4   4   56.62    5.24
   8  -4   4   55.55    8.19
  -8   4   4   63.27    7.73
  -8  -4  -4   63.37    8.25
   4  -8  -4   57.27    5.19
  -4  -8   4   56.78    5.09
  -8  -4  -4   52.46    4.91
  -8  -4  -4   59.35    4.95
  -8   4   4   52.52    5.36
  -8  -4  -4   51.48    4.75
  -8   4   4   65.22    5.01
   4  -8  -4   56.20    5.12
   8  -4   4   59.61    5.27
   4  -8  -4   55.11    5.15
  -8  -4  -3   20.63    3.35
   8  -4   3   23.21    5.26
  -8   4   3   24.69    3.50
  -8  -4  -3   20.81    4.96
  -8   4   3   35.81    5.90
  -4  -8   3   20.52    3.31
  -8  -4  -3   21.64    3.16
  -8   4   3   32.20    4.00
  -8  -4  -3   21.57    3.19
  -8  -4  -3   24.73    3.22
   4  -8  -3   25.07    3.45
   8  -4   3   25.78    3.57
  -8   4   3   25.89    3.33
   4  -8  -3   24.86    3.57
   8  -4   2   38.09    6.71
  -8  -4  -2   30.94    4.33
  -8   4   2   45.54    4.74
  -8   4   2   45.86    6.92
  -8  -4  -2   41.52    4.32
  -4  -8   2   44.17    4.72
  -8  -4  -2   44.84    4.53
  -8   4   2   49.09    5.00
   4  -8  -2   40.22    4.43
   8  -4   2   44.50    4.73
  -8   4   2   45.70    4.59
   4  -8  -2   53.18    4.92
   8  -4   1  519.73   26.57
  -8  -4  -1  464.51   19.87
  -8   4   1  553.08   20.48
  -8   4   1  494.70   25.00
   4  -8  -1  501.49   19.77
  -8   4   1  501.15   20.10
  -8  -4  -1  475.48   19.23
  -8  -4  -1  443.79   19.04
  -4  -8   1  500.16   19.63
  -8   4   1  512.57   20.25
   4  -8  -1  510.16   19.88
  -8   4   1  497.98   19.29
   8  -4   1  530.77   20.59
   4  -8  -1  459.37   19.26
   8  -4   0   97.35   10.17
   4  -8   0   86.74    9.28
  -8  -4   0   80.67    6.63
  -8   4   0   83.23    6.37
  -8   4   0  103.98   10.18
  -8  -4   0   61.04    8.63
   4  -8   0   83.48    6.41
  -8   4   0   81.79    6.69
  -8  -4   0   77.57    6.01
  -8  -4   0   77.36    6.06
  -8   4   0   84.60    6.55
  -4  -8   0   86.15    6.50
  -8   4   0   93.54    6.42
   4  -8   0   80.42    6.18
   8  -4   0   97.54    6.99
   4  -8   0   85.53    6.25
   8  -4  -1  545.53   26.52
   4  -8   1  523.47   25.45
  -8   4  -1  499.84   19.92
  -8  -4   1  479.15   19.96
  -8  -4   1  460.62   24.74
   4  -8   1  494.03   19.63
  -8   4  -1  506.83   20.08
  -8  -4   1  481.99   19.27
  -8  -4   1  428.50   18.73
  -8   4  -1  506.06   19.84
  -8   4  -1  496.32   19.13
   4  -8   1  511.55   19.84
   8  -4  -1  502.55   20.29
   4  -8   1  471.39   19.02
   8  -4  -2   42.16    6.72
   4  -8   2   35.43    6.12
  -8   4  -2   39.23    4.26
  -8  -4   2   37.23    4.36
  -8  -4   2   35.24    6.36
   4  -8   2   41.24    4.41
  -8  -4   2   42.45    4.36
  -8  -4   2   40.86    4.28
  -8   4  -2   46.40    4.59
   4  -8   2   37.75    4.20
   4  -8   2   34.43    3.75
  -8   4  -2   44.33    4.28
  -8   4  -3   17.12    2.84
   8  -4  -3   28.32    5.70
   4  -8   3   26.15    5.16
  -8   4  -3   23.55    3.38
  -8  -4   3   26.63    3.71
  -8  -4   3   23.23    4.95
  -8   4  -3   16.28    4.27
   4  -8   3   18.77    3.16
  -8   4  -3   20.14    3.09
  -8  -4   3   23.24    3.32
  -8  -4   3   20.10    3.10
   4  -8   3   16.05    2.84
  -8  -4   4   54.65    5.27
   4  -8   4   64.95    7.94
   8  -4  -4   48.50    7.05
  -8   4  -4   55.03    7.25
  -8  -4   4   60.51    7.93
   4  -8   4   68.18    5.54
  -8   4  -4   60.97    5.25
  -8  -4   4   50.97    4.71
  -8  -4   4   60.20    5.21
  -8   4  -4   53.95    4.94
  -4  -8  -4   56.78    5.14
  -8  -4   4   44.92    4.54
   4  -8   4   57.73    5.09
  -8   4  -4   65.39    5.13
  -8   4  -5   10.00    2.57
  -8  -4   5    4.98    2.52
   4  -8   5    2.32    2.82
   8  -4  -5    7.13    3.58
  -8  -4   5    1.77    3.11
   8  -4  -5    3.88    3.63
  -8   4  -5    2.30    2.54
   4  -8   5    2.49    1.91
  -4  -8  -5    3.66    2.08
  -8  -4   5    3.06    2.20
  -8   4  -5    4.96    2.11
  -8  -4   5    1.15    2.43
  -8   4  -5    7.07    2.29
  -8  -4   5    2.94    1.90
   4  -8   5    5.18    1.94
  -8  -4   6  354.10   16.60
   4  -8   6  404.38   21.64
   8  -4  -6  396.37   21.52
  -8   4  -6  405.02   21.48
  -8  -4   6  387.06   21.55
   4  -8   6  392.84   16.25
   8  -4  -6  389.97   16.40
  -8   4  -6  365.05   15.82
  -8   4  -6  419.07   16.54
  -8  -4   6  320.82   15.22
  -4  -8  -6  394.72   16.17
  -8  -4   6  344.09   16.05
  -8   4  -6  389.45   15.94
   4  -8   6  387.27   16.26
  -8  -4   7  100.74    7.68
   4  -8   7  128.43   11.19
  -8   4  -7  112.21   10.37
  -8  -4   7   98.17   10.13
   4  -8   7  102.31    7.03
   8  -4  -7  118.58    7.63
  -8   4  -7  114.73    7.31
  -8   4  -7  112.22    7.16
  -8  -4   7   85.79    6.63
  -4  -8  -7  111.85    8.12
  -4  -8  -7  113.00    7.30
  -8  -4   7  107.37    7.52
  -8   4  -7  120.97    7.35
   4  -8   7  115.48    7.42
  -8  -4   8  178.09   10.47
   4  -8   8  180.59   13.55
  -8   4  -8  164.53   12.89
  -8  -4   8  172.83   13.42
   4  -8   8  173.46    9.47
   8  -4  -8  199.65   10.15
  -4  -8  -8  180.36    9.60
  -8   4  -8  180.88    9.69
  -8   4  -8  175.95    9.51
  -8  -4   8  153.88    9.04
  -4  -8  -8  198.83   10.99
  -8  -4   8  157.59    9.75
   4  -8   8  182.54    9.89
  -8   4  -8  195.04    9.72
  -8  -4   9  233.24   12.45
   4  -8   9  248.25   16.19
  -8   4  -9  246.62   15.78
  -8  -4   9  246.65   16.21
   4  -8   9  251.03   11.57
   8  -4  -9  243.46   11.65
  -8   4  -9  237.63   11.41
  -8  -4   9  196.07   10.79
  -8  -4   9  247.84   12.02
  -4  -8  -9  245.33   12.78
  -4  -8  -9  241.70   11.52
  -8   4  -9  235.69   11.56
  -8  -4   9  205.85   11.74
   4  -8   9  242.66   11.84
  -8   4  -9  248.47   11.58
  -8   4 -10    9.30    2.38
  -8  -4  10   10.35    2.81
   4  -8  10    9.38    3.47
  -8  -4  10   11.66    3.78
   8  -4 -10   18.37    3.06
  -8   4 -10   18.21    4.20
   4  -8  10   11.56    2.43
  -4  -8 -10   10.85    2.55
  -8  -4  10   12.31    2.91
  -8   4 -10    8.96    2.41
  -8   4 -10   10.67    2.40
  -4  -8 -10   13.28    3.28
  -8  -4  10   16.41    3.18
  -8   4 -11    9.56    2.23
  -8  -4  11    4.44    2.35
   4  -8  11   11.78    3.81
   8  -4 -11    8.48    2.45
   4  -8  11    7.47    2.04
  -8   4 -11   14.09    3.90
  -8  -4  11    5.94    2.99
  -8  -4  11    9.41    2.74
  -8   4 -11    5.48    1.85
  -8   4 -11    8.23    2.05
  -4  -8 -11   10.80    2.87
  -8  -4  11    7.89    2.46
  -8  -4  12  177.04   10.84
   4  -8  12  211.17   14.81
  -8   4 -12  192.00   13.23
  -8  -4  12  182.30   13.37
   4  -8  12  188.31    9.56
   8  -4 -12  198.50   10.11
  -8   4 -12  193.84    9.93
  -8  -4  12  207.15   10.79
  -4  -8 -12  199.51   11.44
  -8   4 -12  181.25    9.96
  -8  -4  12  176.34   10.56
  -8   4 -12  185.54    9.91
  -8  -4  13  484.71   20.72
   4  -8  13  526.53   25.63
   8  -4 -13  508.68   19.42
  -8   4 -13  462.15   23.34
   4  -8  13  478.51   18.56
  -8  -4  13  438.75   23.46
  -8  -4  13  494.82   20.04
  -4  -8 -13  527.99   21.38
  -8   4 -13  497.84   19.55
  -8  -4  13  469.48   20.33
  -8   4 -13  491.02   19.29
  -8  -4  14  130.45    9.07
   4  -8  14  139.92   11.80
   8  -4 -14  145.94    8.34
  -8   4 -14  139.25   10.84
   4  -8  14  125.43    7.32
  -8  -4  14  115.75   10.50
  -4   8  14  140.30    7.95
  -4  -8 -14  143.01    9.56
  -8   4 -14  146.32    8.51
  -8  -4  14  155.82    9.50
  -8   4 -14  140.84    8.33
   4  -8  14  140.09    8.30
  -8  -4  15   91.24    7.44
   4   8 -15  100.58    7.12
   4  -8  15  107.53   10.21
   8  -4 -15   94.71    6.59
  -4   8  15   98.47    6.38
  -4  -8 -15   96.99    7.77
  -8   4 -15  115.03    7.23
  -8  -4  15  105.66    7.90
   4  -8  15  104.03    6.90
  -8   4 -15   94.17    6.67
  -8  -4  16   74.99    6.68
   4   8 -16   85.66    6.45
   8  -4 -16   77.35    5.86
  -4   8  16   78.60    5.45
  -4  -8 -16   83.52    7.24
  -8  -4  16   86.98    7.00
   4  -8  16   81.34    6.01
  -8   4 -16   81.27    6.00
  -8  -4  17  202.50   11.48
   4   8 -17  202.46   10.68
   8  -4 -17  189.58    9.96
  -4  -8 -17  199.50   11.63
   4  -8  17  199.48   10.20
  -8  -4  17  190.07   11.13
  -8   4 -17  207.05   10.36
  -8  -4  18   13.96    3.10
   4   8 -18   13.40    2.79
   8  -4 -18   11.03    2.54
  -4  -8 -18    8.93    2.83
  -8  -4  18    9.81    2.71
   4  -8  18   15.73    2.72
   4   8 -19   32.51    3.97
  -8  -4  19   26.19    3.95
   8  -4 -19   27.61    3.50
  -8  -4  19   32.97    4.00
  -4  -8 -19   31.63    4.52
   4  -8  19   32.33    3.67
  -8  -4  19   28.53    4.26
  -8  -4  20    3.96    2.15
   4   8 -20    1.74    1.76
   8  -4 -20    3.67    1.84
  -8  -4  20    0.98    1.96
  -4  -8 -20    3.19    1.92
  -8  -4  20    2.78    2.09
   4  -8  20    1.53    1.53
  -8  -4  21   12.09    2.82
   4   8 -21   17.39    3.01
   8  -4 -21   12.35    2.41
  -8  -4  21   10.59    2.46
  -4  -8 -21   13.07    3.11
  -8  -4  21    6.97    2.42
   4  -8  21   12.22    2.28
  -8  -4  22   29.17    4.04
   4   8 -22   33.79    3.92
   8  -4 -22   28.92    3.47
  -4  -8 -22   39.11    4.70
  -8  -4  22   39.38    4.16
   4  -8  22   38.31    3.76
  -8  -4  22   30.61    4.09
  -8  -4  23  107.54    7.48
   4   8 -23  100.09    6.70
   8  -4 -23   99.52    6.41
  -8  -4  23  123.22    7.11
  -4  -8 -23  100.25    7.52
   4  -8  23  111.36    6.54
  -8  -4  23  113.28    7.82
  -8   4 -24    1.80    1.51
  -8  -4  24    0.51    1.58
   4   8 -24    1.69    1.50
   8  -4 -24    1.10    1.62
  -8  -4  24    2.60    1.78
  -4  -8 -24    3.29    1.83
  -8  -4  24    4.08    2.15
   4  -8  24    1.95    1.23
   4  -8  24    2.17    1.40
  -8   4 -25   15.47    2.52
  -8  -4  25   14.78    2.66
   4   8 -25   17.80    2.67
   8  -4 -25   12.92    2.30
  -4  -8 -25   14.95    2.83
  -8  -4  25   14.50    2.46
   4  -8  25   13.19    2.03
  -8  -4  25   14.98    2.97
   4  -8  25   15.82    2.29
  -8  -4  26   67.92    5.30
   4   8 -26   70.74    5.00
   8  -4 -26   53.97    4.49
   4  -8  26   76.21    4.83
  -8  -4  26   76.00    5.02
  -4  -8 -26   65.52    5.65
  -8  -4  26   62.93    5.46
  -8   4 -26   86.26    5.37
   4  -8  26   68.21    4.46
  -8  -4  27   16.85    2.63
   4   8 -27   15.50    2.34
   8  -4 -27   15.69    2.28
  -8  -4  27   20.68    2.51
  -4  -8 -27   12.60    2.63
   4  -8  27   21.96    2.48
  -8  -4  27   19.26    3.05
  -8   4 -27   19.78    2.65
   4  -8  27   18.65    2.17
  -8   4 -28    9.88    2.00
   4   8 -28    8.79    1.79
  -8  -4  28    7.96    1.69
  -4  -8 -28    7.82    2.08
   4  -8  28   10.62    1.62
  -8  -4  28    7.73    2.18
   4   8 -29   98.68    5.41
  -8  -4  29   93.21    5.02
  -4  -8 -29  105.26    6.22
  -8  -4  29  103.39    6.37
  -8   4 -29  116.17    5.91
   4  -8  29  105.22    5.18
  -8   4 -30    3.87    1.29
   4   8 -30    1.83    1.01
  -8  -4  30    4.41    1.03
  -4  -8 -30    3.59    1.36
   4  -8  30    3.07    0.98
  -8  -4  30    3.07    1.53
  -8   4 -31    5.79    1.38
   4   8 -31    3.80    1.01
  -4  -8 -31    3.83    1.25
   4  -8  31    4.49    0.95
  -8  -4  31    5.08    1.51
  -4  -8 -32   71.72    4.19
  -8  -4  32   82.60    4.83
  -8  -4  33   20.86    2.12
   8  -5  32    2.90    0.67
  -8   5  31   14.09    1.84
   5  -8 -31   20.32    2.14
  -8   5  30   30.42    2.97
  -8  -5 -30   32.94    2.74
   5  -8 -30   37.54    3.14
  -8  -5 -29   10.85    1.88
  -8   5  29    8.08    1.84
  -8  -5 -28   13.93    2.25
  -8   5  28   13.32    2.35
  -8   5  27   24.83    3.21
  -8  -5 -27   25.95    3.14
  -5   8 -27   22.77    2.01
  -5   8 -26    9.82    1.48
  -8  -5 -26   10.49    2.24
  -8   5  26    9.42    2.26
  -8  -5 -25  110.19    6.90
  -8   5  25  107.12    7.13
  -5   8 -25  100.60    5.28
  -8  -5 -24   72.54    5.71
  -5   8 -24   64.90    4.16
  -8   5  23   37.35    4.46
  -8  -5 -23   35.40    4.09
  -5   8 -23   38.42    3.27
  -8   5  22   78.57    6.33
  -8  -5 -22   61.05    5.65
  -5   8 -22   67.87    4.57
  -8   5  21   48.85    5.07
  -8  -5 -21   43.67    4.75
  -5   8 -21   39.14    3.53
  -8   5  20   20.64    2.95
   8  -5  20   17.43    2.30
  -8  -5 -20   20.07    3.37
  -8   5  20   22.76    3.65
  -5   8 -20   20.58    2.65
  -5   8 -19   10.40    2.07
  -8   5  19    6.46    1.92
  -8  -5 -19    8.36    2.64
  -8   5  19    9.20    2.72
   8  -5  19    6.81    1.63
  -8   5  18   63.22    5.33
  -5   8 -18   60.69    4.72
  -8   5  18   70.88    6.36
  -8  -5 -18   81.87    6.66
   8  -5  18   65.97    4.67
  -5   8 -18   74.22    5.19
  -5   8 -17   16.83    2.57
  -8   5  17   12.19    2.52
  -5   8 -17   12.75    2.29
  -5   8 -17   11.09    1.96
  -8  -5 -17   17.92    3.24
  -8   5  17   12.97    3.10
   8  -5  17   13.94    2.26
   5  -8 -17   13.58    2.26
  -5   8 -16   23.73    2.94
  -8   5  16   24.32    3.33
   5  -8 -16   24.89    2.88
  -5   8 -16   21.88    2.78
  -8  -5 -16   25.96    3.83
  -8   5  16   21.05    3.66
   8  -5  16   21.08    2.81
   5  -8 -16   14.66    2.55
  -5   8 -16   22.96    3.07
  -8   5  15   30.49    3.81
  -5   8 -15   28.62    3.37
   5  -8 -15   30.90    3.42
  -5   8 -15   29.43    3.23
  -8   5  15   41.94    5.02
  -8  -5 -15   37.77    4.62
  -5   8 -15   35.46    3.80
   8  -5  15   30.86    3.42
   5  -8 -15   30.80    3.55
  -8   5  14  523.25   20.99
  -8   5  14  565.27   28.00
  -5   8 -14  489.39   19.82
   8  -5  14  573.68   30.09
   5  -8 -14  525.18   20.03
  -5   8 -14  541.39   20.18
  -8   5  14  570.71   22.63
  -8  -5 -14  579.27   22.62
  -5   8 -14  567.37   20.74
   8  -5  14  576.45   20.59
   5  -8 -14  514.84   20.39
  -8   5  13  104.55    7.04
   8  -5  13  110.01   11.93
  -5   8 -13   83.71    5.99
   8   5 -13   98.88    6.28
  -8   5  13   89.46    9.22
   5  -8 -13  101.04    6.50
  -5   8 -13  102.32    6.51
  -8  -5 -13   68.47    8.74
  -8   5  13  101.78    7.71
  -8  -5 -13  112.56    8.07
  -5   8 -13  109.35    6.87
   5  -8 -13   96.33    6.63
   8  -5  13  101.00    6.55
  -5   8 -12   80.00    5.89
   8  -5  12  104.82   11.58
   8   5 -12   91.05    6.07
  -8   5  12   97.54    9.39
  -5   8 -12  102.83    6.61
  -8  -5 -12   70.15    8.75
   5  -8 -12  102.16    6.55
  -8  -5 -12  102.46    7.66
  -8   5  12   89.82    7.30
   8  -5  12  104.95    6.70
   5  -8 -12   96.10    6.60
  -5   8 -12  100.67    6.69
  -5   8 -11   31.17    3.49
   8  -5  11   34.92    6.91
   8   5 -11   29.64    3.43
   5  -8 -11   30.70    3.68
  -8   5  11   28.27    5.33
  -5   8 -11   36.63    3.90
  -8  -5 -11   27.68    5.37
  -8  -5 -11   31.29    4.39
  -8   5  11   37.70    4.60
   8  -5  11   30.08    3.64
   5  -8 -11   33.05    3.90
  -5   8 -11   31.54    3.82
   8  -5  10   37.86    7.19
  -8   5  10   37.17    5.94
   5  -8 -10   33.49    3.91
  -8  -5 -10   35.02    5.95
  -5   8 -10   41.78    4.31
   8   5 -10   32.50    3.66
  -8  -5 -10   36.76    4.59
  -8   5  10   32.86    4.40
  -5   8 -10   42.58    4.32
   8  -5  10   34.99    3.94
   5  -8 -10   31.42    3.87
   8  -5   9   40.56    7.29
  -8   5   9   38.84    6.19
   5  -8  -9   51.96    4.79
  -5   8  -9   44.56    4.46
  -8  -5  -9   50.25    7.25
   8   5  -9   46.92    4.26
  -8  -5  -9   49.62    5.18
  -8   5   9   56.45    5.49
   5  -8  -9   40.02    4.50
   8  -5   9   49.28    4.70
  -5   8  -9   45.18    4.62
   8  -5   8   63.70    9.07
  -8   5   8   58.80    7.55
   5  -8  -8   64.50    5.37
  -8  -5  -8   54.06    7.75
   8   5  -8   60.83    4.96
  -8   5   8   56.47    5.57
  -5   8  -8   70.89    5.74
   8  -5   8   61.36    5.37
   5  -8  -8   60.12    5.43
   8  -5   7   58.55    8.55
  -8   5   7   47.97    7.02
  -8  -5  -7   36.73    6.42
   5  -8  -7   50.40    4.85
   8   5  -7   45.12    4.22
  -8   5   7   46.81    5.05
   8  -5   7   46.95    4.72
   5  -8  -7   45.43    4.76
   5  -8  -7   52.71    5.01
  -5   8  -7   52.12    5.00
   8  -5   6  119.16   12.18
  -8   5   6  107.30   10.22
   5  -8  -6  109.11    7.25
  -8  -5  -6   94.02   10.01
  -8   5   6  102.68    7.32
   8   5  -6  109.37    6.84
  -8   5   6  105.81    7.59
  -8  -5  -6  108.48    6.73
  -8   5   6  112.62    7.23
   8  -5   6  102.69    7.18
   5  -8  -6  113.50    7.54
  -5   8  -6  109.83    7.51
   5  -8  -6   95.94    7.01
   8  -5   5   41.09    7.31
  -8  -5  -5   35.08    6.20
   5  -8  -5   38.60    4.28
  -8   5   5   39.35    4.42
   8   5  -5   33.94    3.77
  -8   5   5   30.73    5.67
  -8   5   5   31.20    4.12
  -8  -5  -5   31.75    3.67
   5  -8  -5   36.22    4.21
   8  -5   5   34.64    4.20
  -8   5   5   37.77    4.04
   5  -8  -5   36.77    4.13
  -8   5   4   13.17    2.61
   8  -5   4   15.89    4.84
  -8   5   4   17.87    4.46
   8   5  -4   16.20    2.70
   5  -8  -4   17.42    3.14
  -8   5   4   11.26    2.87
  -8  -5  -4   13.05    4.23
  -8  -5  -4   15.42    2.67
  -8   5   4   20.28    3.25
   5  -8  -4   16.54    3.05
   8  -5   4   14.45    2.84
   5  -8  -4   14.21    2.73
   8  -5   3   86.55   10.00
  -8  -5  -3   76.23    9.07
  -8   5   3   96.35    7.11
   8   5  -3   82.80    6.05
  -8   5   3   92.95    9.71
  -8   5   3   82.13    6.40
  -8  -5  -3   85.85    6.11
  -8   5   3   82.36    6.23
   5  -8  -3   98.34    6.91
   8  -5   3   84.69    6.58
   5  -8  -3   86.55    6.22
   8  -5   2   89.99   10.32
  -8   5   2   93.88    6.99
  -8   5   2   78.70    9.09
  -8  -5  -2   88.79    6.32
  -8   5   2   81.23    6.37
  -8   5   2   97.43    6.71
   5  -8  -2   92.25    6.76
   8  -5   2   85.19    6.85
   5  -8  -2   84.68    6.13
   8  -5   1  196.90   15.01
   5  -8  -1  150.37    9.06
  -8   5   1  166.49    9.71
  -8   5   1  156.13   12.83
  -8  -5  -1  153.16    8.83
  -8   5   1  163.26    9.15
   5  -8  -1  161.75    9.40
   8  -5   1  160.66    9.56
  -8   5   1  152.53    8.92
  -8   5   0    7.98    2.48
  -8  -5   0    3.43    1.90
   8  -5   0    4.76    3.59
   5  -8   0    5.00    2.95
  -8   5   0    4.83    3.11
   5  -8   0    5.27    2.27
  -8  -5   0    8.16    3.78
  -8   5   0    6.76    2.80
  -8  -5   0    3.66    1.89
  -8   5   0    7.73    2.23
   5  -8   0    4.63    2.01
   8  -5   0    3.77    2.25
   8  -5  -1  148.03   13.22
   5  -8   1  147.88   12.69
  -8  -5   1  111.83    8.09
  -8  -5   1  141.08   12.72
   5  -8   1  150.00    8.87
  -8   5  -1  159.24    9.53
  -8  -5   1  165.54    9.00
  -8   5  -1  145.78    8.50
  -8   5  -1  152.44    8.64
  -8   5  -1  159.92    8.86
   8  -5  -1  155.02    9.55
   5  -8   1  145.78    8.86
   8  -5  -2   87.09    9.82
   5  -8   2   95.93   10.04
  -8  -5   2   74.81    6.12
  -8  -5   2   85.07    9.65
   5  -8   2   84.95    6.48
   8  -5  -2   76.82    6.26
  -8  -5   2   99.19    6.71
  -8   5  -2   92.64    6.35
  -8   5  -2   82.40    6.14
  -8   5  -2   93.19    6.53
   5  -8   2   87.89    6.64
   8  -5  -2   84.61    6.95
   5  -8   3   93.64   10.09
   8  -5  -3   96.89   10.27
  -8  -5   3   75.58    6.03
  -8  -5   3   71.91    8.91
   5  -8   3   87.59    6.53
   8  -5  -3   81.58    6.23
  -8   5  -3   84.02    9.17
  -8  -5   3   84.33    6.30
  -8   5  -3   84.01    6.03
  -8   5  -3   88.00    6.22
   5  -8   3   86.40    6.58
   8  -5  -3   88.68    7.04
  -8   5  -3   92.45    6.47
  -8   5  -4   13.17    2.70
  -8  -5   4    8.29    2.42
   5  -8   4   12.62    4.23
   8  -5  -4   13.49    4.50
  -8   5  -4    7.74    3.32
   8  -5  -4   16.69    2.99
   5  -8   4   14.15    2.82
  -8  -5   4   11.19    3.83
  -8  -5   4   18.82    3.24
  -8   5  -4   13.36    2.50
  -8   5  -4   13.46    2.65
   5  -8   4   15.16    2.86
   8  -5  -4   18.62    3.49
   5  -8   5   42.88    6.85
   8  -5  -5   35.14    6.05
  -8  -5   5   33.04    4.00
  -8  -5   5   35.18    6.26
  -8   5  -5   33.10    5.80
   5  -8   5   35.89    4.16
  -8   5  -5   34.71    4.27
   8  -5  -5   37.39    3.97
  -8   5  -5   34.07    3.84
  -8   5  -5   34.80    3.79
  -8  -5   5   38.37    4.30
   5  -8   5   34.72    4.11
   8  -5  -5   35.29    4.49
  -8   5  -5   40.07    4.17
   5  -8   6  112.97   10.84
  -8  -5   6   79.17    6.52
  -8   5  -6   99.14    9.99
   5  -8   6  109.47    7.15
  -8  -5   6   93.89   10.05
  -8   5  -6  114.99    7.56
   8  -5  -6  105.09    6.59
  -8   5  -6  110.46    6.76
  -8  -5   6  111.21    7.38
  -8   5  -6  110.47    6.95
  -8  -5   6   81.25    6.34
   5  -8   6  100.16    7.06
  -8   5  -6  103.56    6.99
   5  -8   7   40.93    6.56
  -8  -5   7   43.66    4.62
  -8   5  -7   46.37    6.71
   5  -8   7   44.10    4.46
  -8  -5   7   47.40    7.13
  -8   5  -7   41.74    4.60
   8  -5  -7   47.88    4.35
  -8   5  -7   46.50    4.23
  -8  -5   7   49.55    4.86
  -8   5  -7   46.69    4.46
  -8  -5   7   43.13    4.46
  -8   5  -7   50.83    4.78
  -8  -5   8   55.39    5.25
   5  -8   8   71.17    8.55
  -8   5  -8   56.77    7.35
   5  -8   8   67.28    5.38
  -8  -5   8   64.54    8.15
   8  -5  -8   59.20    4.79
  -8   5  -8   54.97    4.70
  -8  -5   8   64.21    5.59
  -8   5  -8   67.00    5.24
  -8  -5   8   59.59    5.31
  -8   5  -8   60.15    5.13
  -8  -5   9   38.86    4.46
   5  -8   9   50.41    7.23
  -8   5  -9   44.59    6.48
  -8  -5   9   40.69    6.69
   5  -8   9   40.86    4.34
  -5   8   9   49.05    4.66
   8  -5  -9   44.54    4.21
  -8   5  -9   39.20    3.92
  -5  -8  -9   54.42    5.70
  -8   5  -9   49.29    4.51
  -8   5  -9   44.14    4.48
  -8  -5   9   34.50    4.25
  -8  -5  10   30.66    3.90
   5  -8  10   41.59    6.80
   8  -5 -10   29.00    3.46
  -8  -5  10   28.41    5.54
   5  -8  10   37.32    3.94
  -8   5 -10   37.69    5.97
  -5   8  10   39.69    4.15
  -5  -8 -10   39.09    4.86
  -8   5 -10   39.50    4.01
  -8  -5  10   31.17    4.08
  -8   5 -10   39.23    4.14
  -8  -5  11   29.03    3.88
   5  -8  11   39.05    6.54
   8  -5 -11   32.25    3.56
   5  -8  11   30.07    3.55
  -8   5 -11   32.89    5.31
  -8  -5  11   32.17    5.55
  -5   8  11   31.80    3.76
  -8   5 -11   38.39    3.92
  -5  -8 -11   31.93    4.61
  -8  -5  11   26.17    3.76
   5  -8  11   31.40    3.90
  -8   5 -11   38.82    4.11
  -8  -5  12   77.26    6.45
   5   8 -12   95.40    6.55
   5  -8  12  108.78   10.58
   8  -5 -12   89.28    6.02
  -8   5 -12   97.46    9.11
   5  -8  12  100.10    6.39
  -5   8  12   94.68    6.54
  -8  -5  12   85.94    9.27
  -5  -8 -12  103.75    7.92
  -8   5 -12  105.33    6.64
  -8  -5  12   92.32    7.02
   5  -8  12   99.97    6.79
  -8   5 -12   98.86    6.72
  -8  -5  13   91.75    6.98
   5  -8  13   97.50   10.01
   5   8 -13   87.39    6.32
   8  -5 -13   83.86    5.89
  -8   5 -13   92.58    8.80
   5  -8  13   92.61    6.02
  -5   8  13   99.85    6.50
  -8  -5  13   86.24    9.19
  -5  -8 -13  104.80    8.04
  -8  -5  13   89.58    7.07
   5  -8  13  102.47    6.78
  -8   5 -13  104.33    6.87
  -8  -5  14  503.23   21.06
   5   8 -14  518.69   20.41
   8  -5 -14  514.89   19.73
   5  -8  14  532.83   19.71
  -5   8  14  568.65   20.47
  -5  -8 -14  583.58   23.11
  -8  -5  14  495.97   21.25
   5  -8  14  562.07   20.88
  -8   5 -14  575.65   20.98
  -8  -5  15   29.66    3.83
   5   8 -15   28.75    3.57
   8  -5 -15   30.60    3.44
   5  -8  15   33.58    3.31
  -5   8  15   31.56    3.41
  -5  -8 -15   34.25    4.74
  -8  -5  15   28.77    3.98
   5  -8  15   40.73    4.10
   5   8 -16   24.55    3.18
  -8  -5  16   16.95    3.04
   5  -8  16   19.18    2.43
   8  -5 -16   20.98    2.91
  -5  -8 -16   20.15    3.89
   5  -8  16   26.42    3.46
  -8  -5  16   22.66    3.49
  -8  -5  17   14.30    2.73
   5   8 -17   11.71    2.37
   8  -5 -17   10.35    2.09
  -5  -8 -17   19.57    3.73
  -8  -5  17   10.56    2.67
   5  -8  17   12.50    2.55
  -8  -5  18   58.99    5.31
   5   8 -18   66.71    5.09
   8  -5 -18   58.50    4.63
   5  -8  18   67.97    5.20
  -5  -8 -18   77.12    6.72
  -8  -5  18   67.54    5.84
  -8  -5  19   11.54    2.42
   5   8 -19    6.14    1.95
   8  -5 -19   10.25    1.97
  -5  -8 -19   12.08    3.13
   5  -8  19   11.25    2.29
  -8  -5  19    7.20    2.39
   5   8 -20   16.68    2.61
  -8  -5  20   26.11    3.46
  -5  -8 -20   23.78    3.85
   5  -8  20   24.62    3.03
  -8   5 -20   22.62    3.05
  -8  -5  20   21.36    3.33
   5   8 -21   39.49    3.75
  -5  -8 -21   36.66    4.63
  -8  -5  21   46.11    4.48
   5  -8  21   40.76    3.75
  -8  -5  21   34.38    4.19
  -8   5 -21   39.78    3.95
   5   8 -22   62.88    4.73
  -8  -5  22   70.91    5.41
  -5  -8 -22   77.49    6.37
   5  -8  22   72.21    4.95
  -8  -5  22   63.52    5.45
  -8   5 -22   71.35    5.19
  -8  -5  23   38.33    3.83
  -5  -8 -23   35.38    4.40
   5  -8  23   37.32    3.40
  -8  -5  23   32.18    3.94
  -8   5 -23   39.47    3.68
  -8  -5  24   75.92    5.17
   5  -8  24   62.81    4.35
  -5  -8 -24   61.15    5.53
  -8  -5  24   57.15    5.06
  -8   5 -24   69.26    4.83
  -8  -5  25  118.14    6.48
   5  -8  25  110.10    5.77
  -5  -8 -25  102.37    6.99
  -8  -5  25  105.69    6.72
  -8   5 -25  106.30    6.08
   5  -8  25   98.44    5.42
  -8   5 -26   10.93    1.89
  -8  -5  26   11.21    2.06
  -5  -8 -26    7.82    2.11
  -8  -5  26    7.30    2.00
   5  -8  26    7.96    1.47
   5  -8  26   11.06    1.71
  -8  -5  27   25.07    2.71
  -5  -8 -27   23.68    3.07
   5  -8  27   21.66    2.22
  -8  -5  27   22.37    2.87
   8  -5 -27   21.13    2.47
  -8   5 -27   26.51    2.72
   5  -8  27   23.50    2.19
  -8  -5  28   16.76    2.11
  -5  -8 -28   13.93    2.33
  -8  -5  28   13.30    2.16
  -8   5 -28   15.31    2.05
   5  -8  28   14.77    1.65
  -8   5 -29    9.04    1.57
  -8  -5  29   12.08    1.62
  -5  -8 -29    8.17    1.84
  -8  -5  29   13.27    1.95
   5  -8  29   12.47    1.43
  -8  -5  30   30.19    2.18
  -5  -8 -30   32.30    2.88
  -8  -5  30   27.84    2.71
  -8  -5  31   19.30    2.05
  -8   5 -31   26.96    2.02
   6  -8 -30   29.65    2.32
  -6  -8  29   37.08    2.65
   6  -8 -29   34.71    2.79
  -8   6  28   26.11    2.53
   6  -8 -28   39.48    3.18
  -8   6  27   44.90    3.57
  -8  -6 -27   54.22    4.01
  -6   8 -27   51.88    2.89
  -8   6  26  117.52    6.50
  -8  -6 -26  138.34    7.15
  -6   8 -26  128.62    5.63
  -8   6  25   66.42    4.81
  -8  -6 -25   70.80    5.10
  -6   8 -25   75.03    4.12
  -8   6  24  133.99    7.45
  -8  -6 -24  143.59    7.86
  -6   8 -24  128.10    6.19
  -6   8 -23    9.50    1.76
  -8  -6 -23    5.43    2.04
  -8   6  23    8.38    2.06
  -8   6  22   54.14    4.73
  -8  -6 -22   51.75    4.87
   8  -6  22   48.66    3.29
  -6   8 -22   50.84    3.77
  -6   8 -21    1.10    1.21
  -8  -6 -21    0.77    1.81
  -8   6  21    2.08    1.63
   8  -6  21    1.52    0.99
   8  -6  20   45.41    3.45
  -8  -6 -20   49.87    4.96
  -8   6  20   38.10    4.24
  -6   8 -20   43.29    3.71
   8  -6  19  300.86   12.07
  -8   6  19  299.03   13.83
  -8  -6 -19  330.57   14.75
  -6   8 -19  304.65   12.60
  -6   8 -18    0.93    1.48
  -8  -6 -18   -0.29    2.27
  -8   6  18   -0.26    1.66
   8  -6  18    2.31    1.28
  -8   6  17   84.91    6.16
  -8  -6 -17   90.16    6.60
   8  -6  17   88.40    5.11
   6  -8 -17   66.39    4.72
  -6   8 -17   86.15    5.30
   6  -8 -16   92.12    5.59
  -6   8 -16   96.67    5.64
  -8  -6 -16   97.68    7.42
  -8   6  16  100.97    7.15
   8  -6  16   98.91    6.02
   6  -8 -16   86.27    5.97
  -6   8 -16  103.37    6.30
   6  -8 -15  198.40    9.33
   8  -6  15  194.07    9.01
  -6   8 -15  202.05    9.39
  -8   6  15  211.38   11.09
  -8  -6 -15  210.18   11.55
   6  -8 -15  192.09    9.82
   8  -6  15  200.98    9.65
  -6   8 -15  200.68    9.86
   6  -8 -14   87.40    5.77
   8  -6  14   85.72    5.51
  -6   8 -14   87.16    5.74
  -8  -6 -14   95.92    7.38
  -8   6  14   84.64    6.62
   6  -8 -14   82.82    6.09
   8  -6  14   85.64    5.87
  -6   8 -14   97.78    6.28
   6  -8 -13   96.03    6.16
  -6   8 -13  103.44    6.34
  -8  -6 -13  104.16    7.64
  -8   6  13   86.79    6.74
  -6   8 -13   96.00    6.45
   6  -8 -13   86.12    6.45
   8  -6  13   88.37    6.13
   6  -8 -12  165.47    8.79
  -6   8 -12  161.14    8.76
  -8   6  12  167.07    9.69
  -6   8 -12  169.94    9.11
   8  -6  12  177.46    9.14
   6  -8 -12  158.90    9.31
   6  -8 -11  338.53   14.46
  -6   8 -11  332.99   14.48
  -8   6  11  339.19   15.35
   8  -6  11  354.41   14.84
  -6   8 -11  342.44   14.72
   6  -8 -11  342.55   15.17
  -6   8 -10   22.82    3.36
   6  -8 -10   16.70    2.88
  -6   8 -10   23.56    3.26
  -8   6  10   19.32    3.27
   8  -6  10   22.34    3.33
   6  -8 -10   22.70    3.48
   8  -6   9   29.60    6.23
   6  -8  -9   28.67    3.63
  -6   8  -9   31.11    3.82
  -8   6   9   33.08    3.93
  -6   8  -9   29.39    3.73
   8  -6   9   30.63    3.74
   6  -8  -9   26.85    3.78
   6  -8  -9   34.45    3.89
  -6   8  -8    8.67    2.36
   8  -6   8    6.64    3.49
  -6   8  -8    5.40    2.79
  -8   6   8    9.68    3.62
   6  -8  -8   15.17    2.87
  -8  -6  -8    6.03    3.49
  -6   8  -8    9.23    2.39
  -8   6   8   10.56    2.70
  -8   6   8    5.46    2.05
   8  -6   8   10.63    2.46
   6  -8  -8    8.98    2.56
   6  -8  -8   11.18    2.67
   8  -6   7  192.47   15.41
   6  -8  -7  199.04   10.11
  -6   8  -7  180.60    9.86
  -8   6   7  171.94    9.91
  -6   8  -7  165.07   12.92
  -8   6   7  166.06   13.34
  -8  -6  -7  148.75   13.30
  -8   6   7  173.23    9.72
   8  -6   7  193.38   10.18
   6  -8  -7  178.21   10.07
  -6   8  -7  193.64   10.14
   6  -8  -7  174.92    9.49
   8  -6   6  101.23   11.02
   6  -8  -6   93.78    6.78
  -6   8  -6   91.43    6.63
  -8   6   6   93.99    6.89
  -8  -6  -6   74.82    9.47
  -8   6   6   71.46    8.50
  -8   6   6   74.78    6.08
   8  -6   6   93.70    6.79
   6  -8  -6  100.31    7.14
   6  -8  -6   79.16    6.00
  -6   8  -6  106.55    7.25
   8  -6   5  162.45   14.25
   6  -8  -5  172.79    9.59
  -6   8  -5  176.76    9.73
  -8   6   5  168.37    9.77
  -8  -6  -5  148.69   13.30
  -8   6   5  161.38   12.97
  -8   6   5  158.10    9.19
  -8  -6  -5  158.20    8.50
   8  -6   5  173.08    9.69
   6  -8  -5  179.74   10.04
  -6   8  -5  182.84    9.89
  -8   6   5  165.61    9.44
   8  -6   4   80.10    9.77
  -8   6   4   82.18    6.48
  -8  -6  -4   63.99    8.93
  -8   6   4   85.79    9.11
  -8   6   4   74.69    5.80
  -8  -6  -4   78.16    5.60
  -8   6   4   74.93    6.13
   8  -6   4   75.72    6.25
   6  -8  -4   85.93    6.58
  -6   8  -4   83.45    6.65
   8  -6   3  170.46   14.37
  -8   6   3  167.09    9.74
  -8  -6  -3  128.37   12.69
  -8   6   3  160.91   13.04
  -6  -8   3  157.22    8.54
  -8   6   3  166.55    8.98
  -8  -6  -3  161.76    8.71
   6  -8  -3  162.02    9.59
   8  -6   3  171.39    9.73
  -8   6   3  177.74    9.60
   8  -6   2   71.95    9.11
  -8   6   2   67.43    6.00
  -8   6   2   59.18    8.05
  -6  -8   2   58.19    4.77
  -8  -6  -2   60.17    5.07
  -8   6   2   72.99    5.86
   6  -8  -2   74.30    6.04
   8  -6   2   61.21    5.78
   8  -6   1  102.03   10.94
   6  -8  -1   95.63    6.87
  -6   8  -1   86.17    6.76
  -8   6   1   82.89    6.67
  -8   6   1   84.21    9.35
  -8  -6  -1   80.98    6.02
  -6  -8   1   79.30    5.55
   6  -8  -1  100.67    7.19
   8  -6   1   87.27    6.91
  -8   6   1   90.35    6.57
   8  -6   0   50.59    7.65
   6  -8   0   49.71    7.34
  -8   6   0   39.42    6.65
   6  -8   0   43.95    4.70
  -6   8   0   41.77    4.69
  -8   6   0   52.31    5.16
  -8  -6   0   32.61    6.66
  -8  -6   0   54.41    4.82
  -6  -8   0   41.59    3.83
   6  -8   0   53.70    5.22
   8  -6   0   43.12    5.00
  -8   6   0   47.74    4.72
   8  -6  -1   93.11   10.51
   6  -8   1   74.84    9.35
   6  -8   1   95.55    6.91
  -6   8   1   96.95    7.07
  -8   6  -1  104.84    7.25
  -8  -6   1   74.93    9.46
  -8  -6   1   86.90    6.36
   6  -8   1   91.63    6.86
   8  -6  -1   98.31    7.33
  -8   6  -1   81.99    6.36
   8  -6  -2   53.13    8.12
   6  -8   2   49.68    7.71
  -8  -6   2   42.20    7.23
   6  -8   2   61.15    5.52
  -6   8   2   64.79    5.59
  -8  -6   2   60.41    5.28
  -8   6  -2   74.32    5.73
   6  -8   2   63.00    5.64
   8  -6  -2   61.64    5.73
   6  -8   3  172.62   14.04
   8  -6  -3  168.94   14.05
   6  -8   3  174.56    9.73
  -6   8   3  167.83    9.70
  -8  -6   3  138.77   13.19
  -8   6  -3  159.62   13.14
  -8  -6   3  164.21    9.30
  -8   6  -3  188.78    9.89
   6  -8   3  178.52   10.05
   8  -6  -3  174.08   10.29
   6  -8   4   78.21    9.45
   6  -8   4   79.91    6.32
  -6   8   4   80.81    6.46
  -8  -6   4   62.10    8.81
  -8   6  -4   75.00    8.81
  -8  -6   4   84.42    6.28
   8  -6  -4   77.85    6.68
  -8   6  -4   85.72    6.33
   6  -8   5  157.00   13.47
   6  -8   5  157.11    9.23
  -6   8   5  163.91    9.52
  -8   6  -5  179.25   10.00
  -8  -6   5  139.99   12.90
  -8   6  -5  159.74   12.98
  -8  -6   5  169.56    9.41
   8  -6  -5  170.45   10.31
  -8   6  -5  173.63    9.47
   6  -8   6   99.10   10.21
   6  -8   6   94.26    6.65
  -6   8   6   98.07    6.93
  -8   6  -6   97.16    6.97
  -8   6  -6   86.31    9.33
  -8  -6   6   83.51    6.52
  -8   6  -6   97.27    6.65
   6  -8   7  212.53   15.15
  -8   6  -7  158.85   12.82
   6  -8   7  183.85    9.82
  -6   8   7  180.22    9.96
  -8   6  -7  186.32   10.22
  -6   8   7  174.09   13.36
  -8  -6   7  153.20   13.62
  -8  -6   7  192.95   10.23
  -8   6  -7  185.28    9.81
  -8   6  -8   11.67    2.58
   6  -8   8   12.96    4.05
  -6   8   8   13.36    3.84
  -8  -6   8    9.60    3.89
  -8   6  -8    8.87    3.41
   6  -8   8   15.16    2.75
  -6   8   8    8.29    2.26
  -8   6  -8   14.19    2.89
  -8  -6   8    9.45    2.66
   6  -8   8    8.56    2.51
   6  -8   9   25.45    3.41
  -6   8   9   24.80    3.44
  -8   6  -9   30.30    3.74
  -8  -6   9   20.58    3.42
  -8   6  -9   30.54    3.70
   6  -8   9   27.78    3.70
   6  -8  10   23.81    3.27
  -6   8  10   24.60    3.34
  -8  -6  10   17.73    3.49
   8  -6 -10   23.26    3.82
   6  -8  10   26.30    3.54
  -8   6 -10   28.10    3.56
   6  -8  11  320.79   13.74
  -6   8  11  333.47   14.22
  -8  -6  11  342.73   14.90
   6  -8  11  348.92   14.62
   8  -6 -11  345.02   15.59
  -8   6 -11  358.68   14.58
   6  -8  12  169.13    8.59
  -6   8  12  171.01    8.97
   6  -8  12  188.90    9.48
   8  -6 -12  194.23   10.51
   6  -8  13   93.59    5.90
  -6   8  13  104.97    6.50
  -6  -8 -13  100.62    7.76
  -8  -6  13   79.60    6.21
   6  -8  13  103.84    6.79
   8  -6 -13  104.27    7.46
   6  -8  14   86.73    5.49
   8  -6 -14   91.91    5.88
  -6   8  14   88.34    5.80
  -6  -8 -14   95.49    7.51
   6  -8  14   85.21    6.02
   8  -6 -14   96.47    7.12
   6  -8  15  196.59    8.91
   8  -6 -15  190.49    9.28
  -6   8  15  202.23    9.42
  -6  -8 -15  206.55   11.64
   6  -8  15  217.35   10.14
   8  -6 -15  216.30   11.15
   8  -6 -16   87.15    5.51
  -6  -8 -16   98.53    7.66
  -8  -6  16  105.68    7.09
  -8  -6  16   83.83    6.33
   6  -8  16   97.54    6.25
   8  -6 -16   99.52    7.12
  -8  -6  17   90.17    6.48
  -6  -8 -17   89.52    7.16
  -8  -6  17   66.58    5.58
   6  -8  17   83.12    5.67
  -8   6 -17   87.29    5.90
   8  -6 -17   89.02    6.57
  -8   6 -18    2.01    1.68
  -8  -6  18    2.59    2.09
  -6  -8 -18    2.73    2.26
  -8  -6  18    0.90    1.41
   6  -8  18    1.34    1.48
   8  -6 -18    1.99    1.86
  -8  -6  19  332.21   13.76
  -6  -8 -19  318.43   14.78
   6  -8  19  308.50   12.67
  -8   6 -19  306.74   12.91
   8  -6 -19  306.87   13.66
  -8  -6  20   51.37    4.58
  -6  -8 -20   47.64    5.06
   6  -8  20   51.13    4.01
  -8   6 -20   52.45    4.31
  -8  -6  20   45.93    4.34
   8  -6 -20   41.42    4.23
  -8   6 -21    2.29    1.50
  -8  -6  21   -0.20    1.71
  -6  -8 -21    1.61    1.95
  -8  -6  21    1.01    1.12
   6  -8  21    0.64    1.24
   8  -6 -21    3.10    1.71
  -8  -6  22   59.97    4.68
  -6  -8 -22   56.00    5.16
   6  -8  22   55.64    3.92
  -8  -6  22   45.56    4.11
   8  -6 -22   46.05    4.15
  -8   6 -22   52.91    4.11
  -8   6 -23    6.39    1.77
  -8  -6  23    5.37    2.01
  -6  -8 -23    6.63    2.20
  -8  -6  23    3.92    1.52
   6  -8  23    7.99    1.51
   8  -6 -23    2.22    1.34
  -8  -6  24  147.90    7.23
   6  -8  24  141.36    6.34
  -6  -8 -24  127.32    7.67
  -8  -6  24  108.44    6.56
   8  -6 -24  119.32    6.45
  -8   6 -24  145.74    6.83
   6  -8  25   67.46    3.90
  -8  -6  25   67.52    4.55
  -6  -8 -25   67.23    5.15
  -8   6 -25   70.47    4.32
   6  -8  25   69.55    3.81
  -8  -6  26  152.49    6.91
  -6  -8 -26  131.66    7.36
   6  -8  26  128.24    5.83
  -8   6 -26  147.36    6.58
  -8  -6  27   60.65    3.82
  -8   6 -27   61.61    3.68
  -8  -6  28   41.87    2.89
  -8   6 -28   40.95    2.78
  -8  -6  29   31.42    2.28
  -8   6 -29   34.80    2.38
  -7  -8  27    7.88    1.31
  -7   8 -26   53.03    2.88
   7  -8 -26   47.33    3.35
  -7  -8  25   45.60    3.27
  -7   8 -25   47.94    2.84
   7  -8 -25   41.90    3.24
  -7  -8  24   24.71    2.51
  -7   8 -24   22.60    2.08
   7  -8 -24   22.38    2.46
   8  -7  23   16.90    1.56
  -7   8 -23   19.20    1.98
   7  -8 -23   14.93    2.24
   8  -7  22   14.76    1.59
  -8   7  22   12.33    1.81
  -8   7  21   10.68    1.79
   8  -7  21   16.79    1.77
  -7   8 -21   15.59    2.05
  -8   7  20   49.26    3.85
   8  -7  20   55.31    3.59
   8  -7  19   22.72    2.38
  -8   7  19   16.88    2.43
  -7   8 -19   23.49    2.61
   8  -7  18   70.18    4.47
  -8   7  18   64.92    4.68
  -7   8 -18   75.46    4.83
  -7   8 -17    2.04    1.49
  -8   7  17    0.88    1.32
   8  -7  17    3.72    1.40
   7  -8 -17    2.04    1.33
  -8   7  16   69.93    4.95
   7  -8 -16   68.21    4.98
  -7   8 -16   68.56    4.86
   8  -7  16   68.84    4.69
   7  -8 -15   26.20    2.82
   8  -7  15   24.88    2.56
   7  -8 -15   31.43    3.42
  -7   8 -15   30.27    3.25
   8  -7  15   29.03    3.07
   7  -8 -14  174.44    8.43
   8  -7  14  177.14    8.16
  -7   8 -14  179.23    8.52
   8  -7  14  174.89    8.69
   7  -8 -14  169.65    9.04
  -7   8 -14  195.59    9.13
   7  -8 -14  171.15    8.98
   7  -8 -13   89.20    5.80
   8  -7  13   96.31    5.75
  -7   8 -13   96.09    5.96
   8  -7  13   99.16    6.18
   7  -8 -13   91.66    6.34
  -7   8 -13   98.70    6.20
   7  -8 -13   97.75    6.28
   7  -8 -12  179.16    9.01
   8  -7  12  179.61    8.75
  -7   8 -12  188.99    9.15
   8  -7  12  189.39    9.27
   7  -8 -12  181.57    9.63
   7  -8 -12  167.66    8.97
  -7   8 -12  191.27    9.38
   7  -8 -11   87.59    5.95
   8  -7  11   88.47    5.77
  -7   8 -11   98.47    6.18
  -7   8 -11  101.60    6.37
   8  -7  11   93.62    6.22
   7  -8 -11   82.71    6.25
   7  -8 -11   83.30    5.78
   7  -8 -10    6.18    2.05
   8  -7  10    8.63    2.18
  -7   8 -10    9.30    2.10
  -7   8 -10    4.38    1.98
   8  -7  10    7.09    2.13
   7  -8 -10    3.48    2.00
   7  -8 -10    9.16    1.96
   7  -8  -9   28.35    3.50
   8  -7   9   27.75    3.39
  -7   8  -9   29.69    3.51
  -7  -8   9   30.84    3.74
  -7   8  -9   31.08    3.63
   7  -8  -9   30.01    3.86
   8  -7   9   29.33    3.51
   7  -8  -8  157.14    8.64
   8  -7   8  154.09    8.48
  -7   8  -8  163.70    8.87
  -8   7   8  152.46    8.77
  -7  -8   8  140.43    8.33
   8  -7   8  154.71    8.73
   7  -8  -8  152.49    8.95
  -7   8  -8  157.57    8.71
   7  -8  -7   85.10    6.21
   8  -7   7   81.12    5.97
  -7   8  -7   76.05    6.00
  -8   7   7   83.58    6.26
  -7  -8   7   85.83    6.11
   8  -7   7   82.19    6.06
  -8   7   7   78.74    6.02
   7  -8  -7   90.50    6.64
  -7   8  -7   91.00    6.40
   7  -8  -6  149.95    8.69
  -7   8  -6  149.55    8.69
  -8   7   6  164.99    9.22
  -7  -8   6  152.95    8.44
  -7   8  -6  148.49    8.71
   8  -7   6  147.99    8.72
   7  -8  -6  158.24    9.20
  -8   7   6  144.95    8.70
   7  -8  -5   42.96    4.57
  -7   8  -5   40.40    4.49
  -8   7   5   48.02    4.88
  -7  -8   5   49.74    4.50
  -8   7   5   54.87    4.96
   8  -7   5   46.60    4.68
   7  -8  -5   52.05    5.00
  -8   7   4  202.92   10.56
  -7  -8   4  189.40    9.54
   8  -7   4  188.21   10.26
  -8   7   4  180.62    9.98
   7  -8  -4  201.09   10.61
  -8   7   3   19.90    3.35
  -8   7   3   22.07    3.41
  -8  -7  -3   17.45    2.68
  -7  -8   3   17.22    2.75
   8  -7   3   25.37    3.67
   7  -8  -3   19.62    3.36
  -8   7   2  117.18    7.74
  -7  -8   2  105.34    6.50
  -8  -7  -2   93.92    6.26
   8  -7   2  118.44    7.68
   7  -8  -2  114.45    7.62
  -8   7   2  114.58    7.42
  -8   7   1   17.69    3.25
   7  -8  -1   14.07    3.10
  -7   8  -1   12.89    2.94
  -8   7   1   11.89    2.93
  -8  -7  -1   10.54    2.27
  -7  -8   1   11.64    2.34
   7  -8  -1   10.73    2.69
   8  -7   1   15.81    3.05
   7  -8   0  254.74   12.07
  -7   8   0  233.14   11.74
  -8   7   0  236.82   11.95
  -8  -7   0  221.05   10.75
  -7  -8   0  205.16   10.19
   7  -8   0  246.16   12.08
   8  -7   0  249.04   12.18
  -7   8   0  259.65   12.35
  -8   7   0  241.30   11.73
  -8   7  -1   16.04    3.05
  -7   8   1   19.27    3.54
   7  -8   1   13.74    2.95
  -7   8   1   10.05    2.55
  -8   7  -1   11.38    2.85
  -7  -8  -1   12.57    2.24
  -8  -7   1   14.06    2.58
   8  -7  -1   11.73    3.01
   7  -8   2  122.10    7.71
  -7   8   2  115.57    7.69
  -8  -7   2  107.01    7.00
  -8   7  -2  123.23    7.59
  -8   7  -3   20.95    3.25
   7  -8   3   17.44    3.26
  -7   8   3   20.13    3.31
  -8  -7   3   20.81    3.17
   7  -8   4  193.16   10.19
  -7   8   4  192.65   10.26
  -8  -7   4  192.25    9.97
  -8   7  -4  201.27   10.24
   7  -8   5   50.13    4.82
  -7   8   5   55.87    5.05
  -8   7  -5   44.83    4.74
  -8  -7   5   50.43    4.77
   7  -8   5   51.85    4.94
  -8   7  -5   54.77    4.90
   7  -8   6  145.53    8.61
  -7   8   6  146.28    8.76
  -8   7  -6  157.70    9.04
  -8  -7   6  156.57    8.77
   7  -8   6  162.45    9.07
  -8   7  -6  169.06    8.99
   7  -8   7   80.28    6.00
  -7   8   7   76.78    6.05
  -8   7  -7   85.56    6.36
  -8  -7   7   81.71    6.14
   8  -7  -7   88.15    6.77
   7  -8   7   86.31    6.32
  -8   7  -7   88.98    6.19
   7  -8   8  153.17    8.39
   8  -7  -8  156.07    8.58
  -7   8   8  137.98    8.37
  -8   7  -8  134.23    8.31
  -8  -7   8  152.96    8.69
  -8   7  -8  161.01    8.64
   8  -7  -8  154.71    9.23
   7  -8   8  154.21    8.71
   7  -8   9   31.16    3.58
   8  -7  -9   22.88    3.22
  -7   8   9   23.83    3.33
  -8   7  -9   28.30    3.48
  -8  -7   9   29.37    3.74
   8  -7  -9   32.26    4.05
   7  -8   9   32.94    3.80
   7  -8  10    6.62    2.06
   8  -7 -10    7.71    2.21
  -7   8  10   12.26    2.39
  -8  -7  10    6.48    2.24
   7  -8  10    4.77    2.14
   8  -7 -10   10.08    2.55
   7  -8  11   90.27    5.87
   8  -7 -11   86.71    5.99
  -7   8  11   94.93    6.22
  -8  -7  11   92.30    6.59
   7  -8  11   98.42    6.40
   8  -7 -11   94.25    6.86
   7  -8  12  177.44    8.75
   8  -7 -12  184.25    9.13
  -7   8  12  172.16    9.02
  -8  -7  12  197.51   10.01
   8  -7 -12  189.41   10.14
   7  -8  12  187.05    9.39
   7  -8  13   93.06    5.63
   8  -7 -13   92.23    5.91
  -7   8  13   96.20    6.00
  -8  -7  13   95.82    6.59
   7  -8  13   97.91    6.23
   8  -7 -13  104.08    7.01
   7  -8  14  181.76    8.28
   8  -7 -14  166.54    8.41
  -8  -7  14  188.16    9.65
   7  -8  14  181.49    9.00
   8  -7 -14  187.77    9.82
  -8   7 -14  183.45    9.08
   7  -8  15   25.68    2.62
   8  -7 -15   30.43    2.98
   7  -8  15   30.24    3.25
  -8   7 -15   30.49    3.30
   8  -7 -15   29.16    3.60
   7  -8  16   79.88    5.20
  -8   7 -16   78.13    5.22
   8  -7 -16   69.46    5.43
  -8   7 -17    3.36    1.52
   7  -8  17    1.66    1.37
   8  -7 -17    0.41    1.41
   7  -8  18   66.06    4.54
   8  -7 -18   66.90    5.11
   7  -8  19   23.36    2.54
  -8  -7  19   26.19    3.15
  -8   7 -19   26.84    2.84
   8  -7 -19   19.28    2.65
   7  -8  20   55.82    3.83
   8  -7 -20   50.61    4.04
  -8   7 -20   62.26    4.25
  -8  -7  21   15.19    2.45
   7  -8  21   15.60    1.90
   8  -7 -21   14.12    2.06
  -8   7 -21   18.67    2.24
  -8  -7  22   17.39    2.52
   7  -8  22   17.96    1.95
  -8   7 -22   17.67    2.19
  -8  -7  23   18.49    2.39
   7  -8  23   16.99    1.77
  -8   7 -23   18.56    2.07
   7  -8  24   21.52    1.85
  -8  -7  24   24.93    2.54
  -8   7 -24   23.12    2.20
  -8  -7  25   46.59    3.22
  -8   7 -25   41.31    2.89
  -8  -7  26   63.42    3.52
  -8   7 -26   59.26    3.17
  -8   7 -27    4.75    0.93
  -8  -7  27    8.69    1.25
   8  -8   0  291.26   12.91
  -8   8   0  279.59   12.90
  -8   8   0  282.43   12.62
   8  -8   1   23.55    3.35
   8  -8  -1   23.70    3.35
  -8   8  -1   24.30    3.32
  -8   8   1   23.59    3.44
  -8  -8   1   20.66    2.74
  -8   8  -1   25.12    3.35
  -8   8   1   26.80    3.46
   8  -8   2   28.83    3.62
  -8   8   2   29.47    3.60
  -8  -8   2   26.64    3.01
   8  -8   2   26.14    3.50
  -8   8   2   29.22    3.48
  -8   8  -2   30.98    3.49
  -8   8  -3    3.43    1.92
  -8   8   3    1.97    1.81
   8  -8   3    6.56    2.17
  -8   8   3    2.75    1.78
  -8  -8   3    3.46    1.64
   8  -8   3    1.37    1.79
   8  -8  -3    1.89    1.85
   8  -8   4  162.94    8.81
  -8   8  -4  172.39    9.20
  -8   8   4  170.18    9.15
  -8  -8   4  156.35    8.30
   8  -8   4  170.56    9.06
   8  -8  -4  167.81    9.19
  -8   8  -4  176.09    8.93
  -8   8   4  159.41    8.77
   8  -8   5   27.32    3.40
   8  -8  -5   28.58    3.50
  -8   8  -5   27.11    3.43
  -8   8   5   27.56    3.44
  -8  -8   5   27.40    3.22
  -8   8   5   26.00    3.38
  -8   8  -5   21.95    3.08
   8  -8  -5   23.84    3.47
   8  -8   5   23.28    3.21
  -8   8   6    0.64    1.41
   8  -8   6    0.20    1.47
   8  -8  -6    0.42    1.52
  -8   8  -6   -0.87    1.48
  -8   8   6   -0.22    1.36
  -8  -8   6   -1.17    1.77
   8  -8   6    0.21    1.39
   8  -8  -6    1.16    1.57
  -8   8   7    6.43    1.87
   8  -8   7    7.98    2.03
   8  -8  -7    7.13    1.97
  -8   8  -7    6.53    1.90
  -8   8   7    5.71    1.91
  -8  -8   7    4.15    1.90
   8  -8   7    7.10    2.05
   8  -8  -7    8.66    2.27
   8  -8   8   22.35    2.94
   8  -8  -8   30.78    3.40
  -8   8  -8   32.02    3.46
  -8   8   8   29.13    3.37
  -8  -8   8   29.22    3.34
   8  -8   8   27.94    3.30
   8  -8  -8   29.75    3.53
  -8   8   8   24.30    3.08
  -8   8   9    0.20    1.29
   8  -8   9   -0.53    1.33
   8  -8  -9    0.75    1.47
  -8  -8   9   -0.20    1.41
   8  -8   9    2.94    1.62
   8  -8  -9    0.44    1.59
  -8   8  10    0.94    1.39
   8  -8  10    0.83    1.27
   8  -8 -10   -0.18    1.41
  -8  -8  10    2.58    1.77
   8  -8  10   -0.19    1.30
   8  -8 -10    1.70    1.44
   8  -8  11   65.51    4.48
   8  -8 -11   72.61    4.80
  -8  -8  11   73.16    5.20
   8  -8  11   63.62    4.74
   8  -8 -11   71.34    5.19
  -8   8 -11   74.92    4.99
   8  -8  12   50.93    3.74
   8  -8 -12   48.61    3.89
  -8  -8  12   54.38    4.43
   8  -8  12   48.05    3.97
  -8   8  12   40.90    3.77
   8  -8 -12   47.95    4.21
  -8   8 -12   54.06    4.18
  -8   8 -13    3.66    1.63
  -8   8  13    1.59    1.39
   8  -8  13    3.17    1.26
   8  -8 -13    2.58    1.32
  -8  -8  13    1.14    1.70
   8  -8  13    1.95    1.31
   8  -8 -13    2.80    1.43
   8  -8  14  117.94    5.55
   8  -8 -14  114.23    5.80
  -8  -8  14  135.65    7.08
   8  -8  14  124.99    6.32
  -8   8 -14  139.43    6.70
   8  -8 -14  107.66    6.40
  -8  -8  15   29.61    3.33
   8  -8  15   27.41    2.80
  -8   8 -15   35.28    3.15
   8  -8 -15   28.64    3.03
   8  -8  16   86.02    4.89
  -8   8 -16   84.99    5.05
   8  -8 -16   77.46    4.99
  -8   8 -17    9.73    1.78
  -8  -8  17    9.36    2.00
   8  -8  17    7.03    1.46
   8  -8 -17    6.12    1.57
  -8   8 -18    1.67    1.07
  -8  -8  18   -0.77    1.28
   8  -8  18    1.24    0.90
   8  -8  19   28.62    2.28
  -8   8 -19   28.93    2.54
  -8   8 -20    0.33    0.86
   8  -8  20    0.35    0.65
   8  -8 -20    0.47    0.66
  -8   8 -21    9.28    1.42
   8  -8  21    8.50    1.10
   8  -8 -21    5.45    1.09
  -8   8 -22    0.18    0.77
   8  -8  22    0.12    0.50
  -8   8 -23    4.76    0.96
  -8  -8  23    4.92    1.25
  -8  -8  24  101.30    4.55
  -8   8 -24   89.15    4.00
  -9   0   0   -0.42    1.92
  -9   0   0    1.64    1.97
  -9   0   0    0.60    3.37
   0  -9   0    0.49    2.03
   0  -9   0    3.35    2.15
  -9   0   1  123.23    8.69
  -9   0   1   88.26    8.70
  -9   0  -1  111.25    8.24
  -9   0   1   98.82   10.58
   0  -9   1  123.64    7.87
   0  -9  -1  107.15    7.36
   0  -9   1  146.50    9.09
   0  -9  -1  124.68    8.44
  -9   0   2  869.62   32.21
  -9   0  -2  879.37   31.96
  -9   0   2  837.65   36.73
   0  -9   2  852.23   30.25
   0  -9   2  898.16   31.63
   0  -9  -2  930.93   32.28
  -9   0   3   -0.47    2.23
  -9   0  -3    0.64    1.97
  -9   0   3    5.05    2.60
  -9   0   3    2.96    3.41
  -9   0  -3    3.54    3.27
   0  -9   3   -0.97    2.34
   0  -9   3    1.43    1.16
  -9   0   4   16.07    4.14
  -9   0  -4   20.87    3.86
  -9   0   4   20.75    4.22
  -9   0   4   19.39    4.93
  -9   0  -4   18.79    4.92
  -9   0   4   13.86    3.20
   0  -9  -4   19.37    3.13
   0  -9   4   14.63    3.27
   0  -9   4   20.69    2.71
   0  -9  -4   21.90    3.82
  -9   0   5 1122.97   39.06
  -9   0   5  964.88   41.00
  -9   0  -5 1041.10   38.00
  -9   0   5 1062.15   43.28
  -9   0  -5 1096.21   43.56
  -9   0  -5 1101.56   38.06
   0  -9   5 1092.22   36.58
   0  -9  -5 1081.81   36.69
  -9   0   5 1103.26   38.79
   0  -9   5 1037.80   35.28
  -9   0   5 1082.75   36.88
   0  -9  -5 1133.37   38.73
  -9   0   6   91.26    7.74
  -9   0   6   96.91    9.43
  -9   0  -6   88.28    7.23
  -9   0   6   90.87    9.68
  -9   0  -6   86.45    9.62
  -9   0  -6  101.63    7.49
  -9   0   6  110.00    8.41
   0  -9   6  105.55    6.26
   0  -9  -6  101.98    7.09
   0  -9   6  101.10    6.85
  -9   0   6   97.33    6.93
   0  -9  -6   99.95    8.26
  -9   0   7  132.71    9.17
  -9   0   7  123.04   10.80
  -9   0   7  130.43   11.43
  -9   0  -7  115.29   10.79
   0  -9  -7  122.71    7.69
  -9   0  -7  132.62    8.71
  -9   0   7  131.82    9.20
   0  -9   7  119.14    7.00
   0  -9   7  125.87    7.64
  -9   0   7  117.28    7.67
   0  -9  -7  122.78    8.90
  -9   0   8   65.69    6.43
  -9   0   8   50.27    7.05
  -9   0   8   50.42    7.15
  -9   0  -8   67.75    8.03
   0  -9   8   58.89    4.70
  -9   0  -8   57.90    5.70
   0  -9   8   63.07    5.16
  -9   0   8   57.21    6.13
   0  -9  -8   68.29    5.45
  -9   0   8   63.40    5.40
  -9   0   8   52.44    5.68
   0  -9  -8   57.62    6.05
  -9   0   9   46.97    5.52
  -9   0   9   41.97    6.16
  -9   0   9   36.64    5.98
  -9   0  -9   40.58    6.22
   9   0  -9   47.54    5.77
   0  -9   9   46.77    4.13
  -9   0  -9   47.76    5.05
   0  -9   9   40.65    4.17
   0  -9  -9   44.20    4.38
  -9   0   9   42.24    5.22
  -9   0   9   39.94    4.35
  -9   0   9   38.17    4.75
  -9   0  -9   41.40    3.76
  -9   0  10   31.83    4.66
  -9   0  10   28.21    5.25
  -9   0  10   32.60    5.89
  -9   0 -10   35.95    5.71
   9   0 -10   48.35    5.68
  -9   0 -10   40.52    4.67
   0  -9  10   33.66    3.80
   0  -9 -10   31.94    3.76
  -9   0  10   34.07    4.96
  -9   0  10   36.16    4.04
   0  -9  10   36.94    3.73
  -9   0  10   39.24    4.84
  -9   0 -10   31.49    3.38
  -9   0  11   95.64    7.89
  -9   0  11   71.27    8.67
  -9   0  11   84.44    8.86
  -9   0 -11   90.62    8.94
   9   0 -11   94.08    7.26
  -9   0 -11   90.24    7.01
   0  -9 -11   82.11    5.93
   0  -9  11   88.87    6.00
  -9   0  11   88.23    7.65
   0  -9  11   88.63    5.98
  -9   0  11   90.18    6.45
  -9   0  11   80.83    6.93
  -9   0 -11   86.68    5.76
  -9   0 -12    5.93    1.67
  -9   0  12    6.42    3.00
  -9   0  12    5.13    2.52
  -9   0  12    4.15    2.53
  -9   0 -12    7.15    2.76
   9   0 -12    4.69    2.85
   0  -9  12    3.73    1.78
  -9   0 -12    4.11    2.25
   0  -9 -12    2.75    1.73
  -9   0  12    1.09    2.23
  -9   0  12    3.65    2.01
  -9   0  12    3.65    2.35
   0  -9  12    3.28    1.66
  -9   0  13  198.60   11.67
  -9   0  13  163.16   13.38
  -9   0  13  160.01   12.29
  -9   0 -13  158.60   12.16
   9   0 -13  191.32   10.56
  -9   0 -13  181.16   10.36
   0  -9 -13  174.48    8.93
  -9   0  13  188.19   11.39
   0  -9  13  168.97    8.81
   0  -9  13  173.24    9.11
  -9   0  13  167.40    9.33
  -9   0  13  183.89   11.00
  -9   0 -13  169.63    8.92
   0  -9 -13  176.84   11.02
  -9   0  14   77.30    7.04
  -9   0  14   62.68    8.16
  -9   0  14   62.66    7.44
  -9   0 -14   62.27    7.21
   9   0 -14   66.69    6.05
   0  -9  14   71.04    5.09
   0  -9 -14   65.89    5.01
   0  -9  14   64.31    5.18
  -9   0  14   76.59    6.95
  -9   0  14   67.57    5.50
  -9   0  14   65.92    6.35
  -9   0 -14   76.50    5.45
   0  -9 -14   75.61    6.99
  -9   0  15   26.69    5.45
  -9   0  15   31.12    4.66
   9   0 -15   26.85    4.01
   0  -9 -15   26.82    3.16
   0  -9  15   28.76    3.43
  -9   0  15   28.89    4.50
  -9   0  15   27.80    3.42
   0  -9  15   20.62    2.80
  -9   0  15   18.94    3.71
  -9   0 -15   27.95    3.34
   0  -9 -15   28.84    4.37
  -9   0  16   25.68    5.25
  -9   0  16   20.70    4.06
   9   0 -16   25.61    3.92
   0  -9 -16   24.75    2.91
   0  -9  16   22.81    3.10
   0  -9  16   27.76    2.99
  -9   0  16   25.82    4.31
  -9   0  16   28.09    3.43
  -9   0  16   20.84    3.75
  -9   0 -16   26.61    3.33
   0  -9 -16   31.29    4.40
  -9   0  17   35.28    4.97
  -9   0  17   39.84    6.60
   9   0 -17   41.18    4.68
   0  -9 -17   33.16    3.29
   0  -9  17   40.90    4.03
  -9   0  17   40.00    5.13
  -9   0  17   41.33    4.10
  -9   0  17   43.95    5.03
  -9   0 -17   43.02    4.13
   0  -9 -17   35.87    4.73
  -9   0 -18   21.85    3.06
  -9   0  18   22.57    4.12
   0   9 -18   25.71    4.04
   9   0 -18   25.51    3.85
   0  -9 -18   21.05    2.51
   0  -9  18   21.59    3.04
  -9   0  18   22.39    3.03
  -9   0  18   17.72    3.60
  -9   0  18   23.01    3.91
   0  -9 -18   22.94    3.74
  -9   0  19   69.28    6.77
   0   9 -19   83.54    6.72
   9   0 -19   78.42    6.24
  -9   0  19   74.70    6.85
  -9   0  19   76.13    5.30
   0  -9  19   76.53    5.67
  -9   0  19   74.94    6.61
  -9   0 -19   80.87    5.85
   0  -9 -19   82.79    6.85
  -9   0  20   58.71    6.22
   0   9 -20   64.70    5.75
   9   0 -20   56.67    5.28
  -9   0  20   47.06    5.46
   0  -9  20   57.05    4.85
  -9   0  20   65.23    6.01
  -9   0 -20   58.74    4.99
   0  -9 -20   57.77    5.67
  -9   0 -21   12.85    2.54
  -9   0  21   10.63    3.23
   0   9 -21   10.80    2.94
   9   0 -21   11.17    2.62
  -9   0  21   12.12    2.99
  -9   0  21   11.22    2.77
   0  -9 -21   12.44    2.92
  -9   0  22  132.94    9.19
   0   9 -22  124.68    8.26
   9   0 -22  131.28    7.99
  -9   0  22  145.59    9.23
  -9   0  22  120.75    8.40
  -9   0 -22  134.37    7.78
   0  -9 -22  130.24    8.50
  -9   0 -23    6.80    1.94
  -9   0  23   10.21    2.92
   0   9 -23    8.79    2.67
   9   0 -23    6.46    2.29
  -9   0  23    8.35    2.66
  -9   0  23    6.44    2.32
   0  -9 -23    8.25    2.46
  -9   0 -24    1.23    1.53
  -9   0  24    0.91    1.83
   0   9 -24    0.25    1.89
   9   0 -24    0.66    1.51
  -9   0  24    1.97    1.96
  -9   0  24   -0.27    1.66
   0  -9 -24    0.75    1.58
  -9   0  25   32.86    4.22
   0   9 -25   29.34    3.66
   9   0 -25   26.78    3.43
  -9   0  25   32.52    3.97
  -9   0  25   26.81    3.72
  -9   0 -25   32.12    3.50
   0  -9 -25   27.47    3.51
  -9   0  26    0.54    1.66
   0   9 -26    2.65    1.84
   9   0 -26    1.19    1.56
  -9   0  26    3.14    1.83
  -9   0  26    3.51    1.87
   0  -9 -26   -0.21    1.41
  -9   0  27   41.88    4.44
   0   9 -27   42.34    4.12
   9   0 -27   44.97    3.96
  -9   0  27   39.96    4.14
  -9   0  27   47.70    4.41
   0  -9 -27   40.58    3.82
  -9   0  28   46.19    4.47
   0   9 -28   49.45    4.24
   9   0 -28   44.84    3.88
  -9   0  28   43.30    4.11
  -9   0  28   47.08    4.13
   0  -9 -28   40.72    3.53
  -9   0  29   59.02    4.86
   0   9 -29   60.49    4.48
   9   0 -29   53.37    4.15
  -9   0  29   53.10    4.27
  -9   0  29   59.96    4.50
   0   9 -30  114.82    5.99
  -9   0  30  100.68    6.16
   9   0 -30   99.06    5.51
  -9   0  30  109.20    5.84
   0   9 -31   33.60    2.94
  -9   0  31   29.72    3.09
  -9   0  31   24.58    2.41
  -9   0  31   29.09    2.70
  -9   0  32    0.54    0.97
   0   9 -32   -0.67    0.94
  -9   0  33    8.77    1.44
   0   9 -33   10.75    1.39
  -9   1  33   32.08    2.65
  -1   9 -33   38.42    2.51
  -9   1  32   87.97    4.85
  -1   9 -32   97.89    4.70
  -9   1  31   14.19    2.14
  -1   9 -31   11.23    1.84
  -9   1  31   12.10    1.87
  -9   1  30   11.19    2.20
  -1   9 -30   14.75    2.22
  -9   1  30   12.78    2.13
   1  -9 -30   13.22    1.83
  -1   9 -29   18.58    2.55
  -9   1  29   18.96    2.79
   9   1 -29   21.91    2.53
  -9   1  29   20.24    2.80
   1  -9 -29   15.56    2.17
  -1   9 -28   18.60    2.71
  -9   1  28   16.87    2.84
   9   1 -28   17.34    2.46
  -9   1  28   20.73    2.96
  -9   1  28   15.56    2.50
   1  -9 -28   15.42    2.41
  -9   1  27    3.11    1.83
  -1   9 -27    3.16    1.81
   9   1 -27    3.91    1.63
  -9   1  27    2.58    1.81
  -9   1  27    4.76    1.55
   1  -9 -27    4.19    1.67
  -9   1  26   62.09    5.51
  -1   9 -26   58.47    4.97
   9   1 -26   61.67    4.78
  -9   1  26   61.01    5.43
  -9   1  26   64.86    5.11
   1  -9 -26   56.54    4.96
  -9   1  25   82.32    6.65
   9   1 -25   90.52    6.04
  -9   1  25   95.14    7.02
  -9   1  25   92.58    6.50
   1  -9 -25   90.87    6.44
  -9   1  24   22.53    3.68
   9   1 -24   19.29    3.07
  -9   1  24   22.89    3.66
  -9   1  24   17.39    3.05
   1  -9 -24   17.83    3.17
  -9   1  23   38.71    4.73
   9   1 -23   34.83    3.90
  -9   1  23   32.89    4.35
  -9   1  23   29.08    3.89
   1  -9 -23   35.71    4.29
  -9   1  22   38.44    4.89
   9   1 -22   35.34    4.04
  -9   1  22   45.17    5.13
  -9   1  22   38.31    4.42
   1  -9 -22   35.66    4.38
  -9   1  21    3.97    2.44
   9   1 -21    5.55    2.19
  -9   1  21    6.42    2.65
  -9   1  21    4.08    2.12
  -9  -1 -21    4.36    1.75
   1  -9 -21    2.12    2.15
  -9   1  20   43.47    5.04
   9   1 -20   32.56    4.04
  -9   1  20   36.91    4.98
  -9   1  20   33.41    4.41
  -9  -1 -20   37.44    3.92
   1  -9 -20   33.96    4.69
  -9   1  19   64.46    6.39
   9   1 -19   54.78    5.23
  -9   1  19   57.40    6.17
  -9   1  19   56.44    5.77
  -9  -1 -19   63.44    5.15
   1  -9 -19   70.03    6.38
  -9   1  18  127.76    9.22
   9   1 -18  135.86    8.34
  -9   1  18  131.76    9.36
   1  -9 -18  112.61    6.24
  -9   1  18  127.98    8.73
  -9  -1 -18  130.83    7.60
   1  -9 -18  123.90    8.78
  -9  -1 -17    3.28    1.59
  -9   1  17    2.85    2.02
   9   1 -17    4.57    2.63
   1  -9 -17    4.54    1.58
  -9   1  17    7.35    2.74
  -9   1  16   50.54    5.64
  -9   1  16   48.50    7.09
   9   1 -16   54.32    5.30
  -1  -9  16   47.31    4.01
   1  -9 -16   41.78    3.71
  -9  -1 -16   40.99    4.65
  -1  -9  16   46.18    4.28
  -9   1  16   51.01    5.29
  -9  -1 -16   42.27    4.18
  -9  -1 -15   -0.21    1.32
  -9   1  15    0.61    2.02
  -9   1  15    2.16    2.08
   9   1 -15    0.56    2.17
  -1  -9  15    0.57    1.32
   1  -9 -15    0.93    1.32
  -9  -1 -15    0.54    1.72
  -9   1  15    0.65    1.88
  -1  -9  15    0.65    1.31
  -9   1  14   61.11    6.20
  -9   1  14   57.71    7.59
  -9   1  14   63.26    7.08
  -9  -1 -14   38.75    6.17
   9   1 -14   67.03    5.86
  -1  -9  14   60.26    4.74
   1  -9 -14   54.12    4.50
  -9  -1 -14   57.67    5.46
  -1  -9  14   57.44    4.71
  -9   1  14   65.85    6.12
  -9  -1 -14   65.05    4.94
  -9   1  13   53.44    5.87
  -9   1  13   38.81    6.29
  -9   1  13   56.55    6.96
  -9  -1 -13   47.78    6.54
   9   1 -13   60.09    5.63
  -1  -9  13   45.99    4.18
  -1  -9  13   50.59    4.41
   1  -9 -13   40.82    4.10
  -9  -1 -13   49.11    5.00
  -9   1  13   50.24    5.43
  -9  -1 -13   48.00    4.36
   1  -9 -13   50.78    5.76
  -9   1  12  380.17   17.62
  -9   1  12  328.32   20.15
  -9   1  12  348.18   19.68
  -9  -1 -12  341.08   19.55
   9   1 -12  369.85   16.30
  -1  -9  12  350.37   14.63
   1  -9 -12  348.05   14.76
  -1  -9  12  352.44   14.72
  -9  -1 -12  362.05   16.05
  -9   1  12  392.31   17.21
  -9  -1 -12  349.61   14.51
   1  -9 -12  378.40   17.42
  -9   1  11  119.58    8.88
  -9   1  11  109.34   10.56
   9  -1  11  114.57   11.29
  -9   1  11  106.60   10.03
  -9  -1 -11  116.35   10.55
   9   1 -11  145.64    8.91
  -1  -9  11  107.26    6.74
  -1  -9  11  115.98    7.14
   1  -9 -11  128.09    7.46
  -9  -1 -11  120.84    7.97
  -9   1  11  120.79    8.53
   1  -9 -11  119.83    8.87
  -9   1  10   10.38    3.70
  -9   1  10   25.36    4.18
   9  -1  10   11.39    3.77
   9   1 -10   17.64    3.93
  -9  -1 -10   15.76    4.23
  -9   1  10   18.49    4.47
  -1  -9  10   19.32    2.65
  -1  -9  10   17.17    2.83
   1  -9 -10   16.62    2.90
  -9  -1 -10   19.25    3.36
  -9   1  10   21.88    3.64
   1  -9 -10   20.41    3.67
  -9   1   9   18.71    4.30
  -9   1   9    9.08    2.85
   9  -1   9   11.14    3.74
   9   1  -9   17.04    4.08
  -9  -1  -9    8.28    3.70
  -9   1   9   13.83    3.88
  -1  -9   9   14.32    2.74
  -9  -1  -9   15.72    3.11
  -1  -9   9   15.12    2.34
   1  -9  -9   12.14    3.49
  -9   1   8  259.33   13.81
  -9   1   8  221.87   15.74
   9  -1   8  258.64   16.89
  -9   1   8  249.33   16.34
  -9  -1  -8  235.76   15.88
   9   1  -8  251.73   13.26
  -9  -1  -8  278.20   13.03
  -1  -9   8  250.69   11.80
  -1  -9   8  249.29   11.06
   1  -9  -8  263.44   13.70
  -9   1   7   50.08    5.61
  -9   1   7   29.98    5.62
   9  -1   7   49.25    6.88
  -9   1   7   52.00    7.07
  -9  -1  -7   45.98    6.76
  -9  -1  -7   37.82    4.62
  -1  -9   7   36.10    3.51
  -9  -1  -7   47.12    4.93
  -1  -9   7   38.59    4.22
  -9   1   7   43.85    5.35
   1  -9  -7   41.59    5.11
  -9   1   6   69.70    6.59
  -9   1   6   75.24    8.28
   9  -1   6   57.58    7.51
  -9   1   6   76.95    8.78
  -9  -1  -6   70.12    8.48
  -9  -1  -6   76.99    6.46
  -9   1   6   77.39    7.04
  -1  -9   6   78.29    5.82
  -9  -1  -6   79.25    6.38
  -1  -9   6   65.83    4.73
   1  -9  -6   82.93    7.12
  -9   1   5  340.04   16.08
  -9   1   5  313.25   18.47
  -9   1   5  322.75   19.21
  -9  -1  -5  316.00   19.15
  -9  -1  -5  338.22   15.53
  -9   1   5  344.23   16.27
  -1  -9   5  334.48   14.35
  -1  -9   5  312.14   12.90
   1  -9  -5  329.92   15.84
  -9   1   4   13.35    3.73
  -9   1   4   23.89    3.96
  -9  -1  -4   18.65    4.75
  -9   1   4   30.53    5.66
  -1  -9   4   22.27    3.34
  -9  -1  -4   20.11    3.76
  -9   1   4   27.38    4.46
   1  -9  -4   23.14    4.14
  -9   1   3  280.27   13.93
  -9   1   3  249.28   15.74
  -9   1   3  269.63   17.40
  -9  -1  -3  248.84   16.82
  -9  -1  -3  259.23   13.22
  -9   1   3  262.23   13.78
  -1  -9   3  254.07   12.14
   9  -1   3  255.72   12.13
   1  -9  -3  282.58   13.84
  -9   1   2    1.97    2.18
  -9   1   2    3.24    2.03
  -9   1   2    2.97    2.72
  -1  -9   2    3.13    2.43
  -9  -1  -2    6.99    2.51
  -9   1   2    6.47    2.59
   1  -9  -2    4.90    2.37
  -9   1   1    8.18    3.12
  -9   1   1   15.43    3.36
  -9   1   1    7.16    3.60
  -1  -9   1    8.23    2.37
  -9  -1  -1   12.54    2.87
  -9   1   1    8.94    2.90
   1  -9  -1    6.01    2.28
  -9   1   0    0.47    1.66
  -9   1   0    1.92    1.93
  -9  -1   0   -0.59    2.79
  -9   1   0    1.79    2.23
  -1  -9   0    0.49    1.74
  -9  -1   0    0.75    1.72
  -9  -1   0   -0.93    1.99
  -9   1   0   -0.63    2.07
   1  -9   0    0.19    0.85
  -1  -9   0    1.56    1.64
   1  -9   0    1.18    1.87
  -9   1  -1   12.32    3.10
  -9   1  -1    7.33    2.45
  -9  -1   1    4.74    2.97
  -9  -1   1    7.32    2.30
  -1  -9  -1   10.24    2.63
  -9  -1   1   10.58    2.78
  -9   1  -1   11.83    2.88
   1  -9   1    8.39    1.77
  -1  -9  -1   11.03    2.74
   1  -9   1    7.56    2.46
  -9   1  -2    6.22    2.51
  -9   1  -2    3.48    2.15
  -9  -1   2    5.92    3.42
  -9  -1   2    1.27    1.99
  -9   1  -2    8.31    2.79
  -9  -1   2    4.08    2.29
   1  -9   2    4.31    1.55
   1  -9   2    5.45    2.46
  -1  -9  -2    3.18    1.92
  -9  -1   3  214.65   14.37
  -9   1  -3  265.80   13.60
  -9   1  -3  262.51   17.20
  -9  -1   3  266.58   17.28
  -9   1  -3  271.74   13.53
  -9  -1   3  274.01   13.71
  -9  -1   3  259.65   12.61
   1  -9   3  259.33   11.56
   1  -9   3  277.55   13.29
  -1  -9  -3  284.22   13.98
  -9  -1   4   20.67    4.23
  -9   1  -4   21.59    3.73
  -9  -1   4   18.19    4.82
  -9   1  -4   17.75    4.91
  -9  -1   4   17.15    3.20
  -1  -9  -4   18.18    3.32
  -9   1  -4   17.50    3.42
  -9  -1   4   22.50    4.08
   1  -9   4   17.45    2.72
  -9  -1   5  299.45   17.71
  -9   1  -5  315.74   15.55
  -9   1  -5  322.99   19.40
  -9  -1   5  302.72   19.06
  -9   1  -5  366.45   15.96
  -1  -9  -5  328.24   14.51
  -9  -1   5  335.10   15.90
  -9  -1   5  357.10   15.12
   1  -9   5  336.10   13.98
  -9  -1   6   60.50    7.27
  -9   1  -6   69.47    6.32
  -9   1  -6   87.04    9.11
  -9  -1   6   56.75    7.76
  -9  -1   6   73.49    6.68
  -9   1  -6   78.83    6.50
  -9   1  -6   76.32    6.35
   1  -9   6   80.99    5.57
  -1  -9  -6   69.69    5.70
  -9  -1   6   75.11    5.98
  -9  -1   6   78.48    6.56
  -9   1  -6   65.64    4.91
  -9  -1   7   37.39    5.91
  -9  -1   7   43.59    6.59
  -9   1  -7   40.58    6.57
   1  -9   7   45.75    4.20
  -9   1  -7   47.18    5.02
  -1  -9  -7   40.90    4.33
  -9   1  -7   38.05    4.62
  -9  -1   7   33.03    4.80
  -9  -1   7   42.77    4.51
  -9  -1   7   41.28    4.88
  -9   1  -7   37.21    3.66
  -9  -1   8  218.79   15.42
  -9  -1   8  255.45   16.73
  -9   1  -8  261.09   16.68
  -9  -1   8  246.37   12.31
  -9   1  -8  270.31   13.26
  -9  -1   8  265.14   13.81
   1  -9   8  270.43   12.00
  -9   1  -8  263.38   13.01
  -1  -9  -8  277.13   12.39
  -9  -1   8  266.04   13.58
  -1  -9  -8  268.75   13.95
  -9   1  -8  248.31   11.38
  -9   1  -9   14.73    2.43
  -9  -1   9   12.45    3.90
  -9  -1   9   14.52    3.97
  -9   1  -9   15.99    4.28
  -9  -1   9    9.97    2.59
  -1  -9  -9   14.23    2.76
   1  -9   9   16.32    2.87
  -9   1  -9   15.50    3.07
  -9   1  -9   15.07    2.97
  -9  -1   9    8.20    2.76
  -9  -1   9   15.00    3.20
   1  -9   9   14.32    2.55
  -1  -9  -9   14.54    3.61
  -9   1 -10   16.76    2.62
  -9  -1  10    5.56    2.89
  -9   1 -10   20.51    4.34
  -9  -1  10   19.77    4.60
  -1  -9 -10   14.64    2.74
  -9  -1  10   16.54    3.00
   1  -9  10   15.91    2.67
  -9   1 -10   16.01    3.08
  -9   1 -10   19.27    3.42
  -9  -1  10    9.68    3.13
   1  -9  10   16.33    2.71
  -1  -9 -10   20.06    3.68
  -9  -1  11  111.55   10.69
  -9   1 -11  115.01   10.29
  -9  -1  11  119.33   10.58
  -9  -1  11  119.61    7.71
  -9   1 -11  109.11    7.93
  -1  -9 -11  116.82    7.25
  -9  -1  11  116.28    8.70
   1  -9  11  127.67    7.37
   1  -9  11  119.08    7.29
  -9   1 -11  111.64    7.88
  -1  -9 -11  122.91    8.77
  -9   1 -11  123.19    7.17
  -9  -1  12  313.78   19.62
  -9   1 -12  361.98   19.74
  -9  -1  12  330.32   19.21
  -9   1 -12  366.98   16.30
  -9  -1  12  346.55   15.36
  -1  -9 -12  346.05   14.65
   1  -9  12  352.97   14.61
   1  -9  12  360.66   15.05
  -9  -1  12  357.45   17.10
  -9   1 -12  379.08   16.17
  -9   1 -12  348.03   14.66
  -1  -9 -12  374.99   17.34
  -9  -1  13   40.79    6.54
  -9   1 -13   46.89    6.17
  -9  -1  13   41.18    6.04
  -9   1 -13   51.61    5.24
  -9  -1  13   48.26    4.81
  -1  -9 -13   45.11    4.25
   1  -9  13   50.90    4.67
  -9  -1  13   47.29    5.60
   1  -9  13   53.90    4.44
  -9   1 -13   50.59    5.16
  -9   1 -13   53.01    4.55
  -1  -9 -13   47.67    5.61
  -9  -1  14   56.87    7.73
  -9   1 -14   55.02    6.70
  -9  -1  14   54.59    6.95
  -9  -1  14   62.37    5.25
   1  -9  14   57.75    4.93
  -1  -9 -14   56.21    4.53
   1  -9  14   58.95    4.61
  -9  -1  14   62.68    6.26
  -9   1 -14   67.99    5.92
  -9   1 -14   55.88    4.77
  -1  -9 -14   63.00    6.23
  -9   1 -15   -0.45    1.32
  -9  -1  15    0.60    1.75
  -9   1 -15    1.66    1.93
  -9  -1  15    0.72    1.71
  -1  -9 -15   -1.32    1.56
   1  -9  15    0.54    1.39
  -9  -1  15   -1.04    2.21
   1  -9  15    2.08    1.66
  -1  -9 -15   -1.34    2.31
  -9  -1  16   41.48    6.52
  -9  -1  16   53.79    4.78
   1  -9  16   47.81    3.88
  -9  -1  16   56.85    5.84
  -1  -9 -16   48.69    4.08
  -9   1 -16   51.00    4.98
   1  -9  16   52.72    4.66
  -9  -1  16   58.33    5.88
  -9   1 -16   50.29    4.60
  -1  -9 -16   49.20    5.34
  -9   1 -17    5.89    2.11
  -9  -1  17    8.24    2.30
  -1  -9 -17    5.29    1.49
  -9   1 -17    4.87    2.43
  -9  -1  17    2.04    2.41
  -9  -1  17    5.64    2.45
   1  -9  17    5.26    1.91
  -1  -9 -17    4.53    2.33
   1   9 -18  130.12    8.57
  -9  -1  18  131.59    7.71
  -9  -1  18  133.05    9.09
   1  -9  18  139.87    7.96
  -9  -1  18  121.12    8.87
  -9   1 -18  132.63    7.81
  -1  -9 -18  125.50    8.80
   1   9 -19   56.17    5.56
  -9  -1  19   56.48    4.78
  -9  -1  19   51.29    5.51
   1  -9  19   57.72    4.88
  -9  -1  19   55.58    5.77
  -9   1 -19   59.74    4.98
  -1  -9 -19   60.37    5.84
   1   9 -20   43.78    4.78
   1  -9  20   33.70    3.65
  -9  -1  20   28.93    4.16
  -9  -1  20   34.50    3.67
  -9  -1  20   32.91    4.61
  -9   1 -20   29.02    3.63
  -1  -9 -20   35.75    4.37
  -9   1 -21    5.50    1.88
   1   9 -21    4.38    2.33
  -9  -1  21    6.57    1.82
  -9  -1  21    5.12    2.39
  -9  -1  21    8.01    2.79
  -1  -9 -21    3.06    1.89
   1   9 -22   37.33    4.33
  -9  -1  22   31.21    4.12
  -9  -1  22   32.87    3.32
  -9  -1  22   38.93    4.68
  -9   1 -22   37.30    3.94
  -1  -9 -22   33.86    4.10
   1   9 -23   33.12    4.15
  -9  -1  23   40.72    4.38
  -9  -1  23   40.47    4.64
  -9   1 -23   34.35    3.73
  -1  -9 -23   31.93    3.86
  -9   1 -24   18.20    2.72
   1   9 -24   19.45    3.16
   9  -1 -24   19.85    3.13
  -9  -1  24   14.05    2.92
  -9  -1  24   19.25    3.35
  -1  -9 -24   19.62    2.95
   1   9 -25   94.33    6.41
   9  -1 -25   83.36    5.94
  -9  -1  25   85.41    6.21
  -9  -1  25   95.66    6.82
  -9   1 -25   97.40    6.05
  -1  -9 -25   74.23    5.56
   1   9 -26   69.42    5.25
   9  -1 -26   54.37    4.60
  -9  -1  26   58.74    4.84
  -9  -1  26   64.12    5.40
  -9   1 -26   61.38    4.68
  -1  -9 -26   49.05    4.22
   1   9 -27    4.01    1.77
   9  -1 -27    2.86    1.69
  -9  -1  27    3.15    1.55
  -9  -1  27    2.89    1.78
  -9   1 -27    4.48    1.66
   1   9 -28   19.44    2.86
   9  -1 -28   15.81    2.47
  -9  -1  28   18.22    2.42
  -9  -1  28   20.26    2.90
   9  -1 -29   16.35    2.33
   1   9 -29   20.21    2.66
  -9  -1  29   24.46    2.90
   1   9 -30   13.98    2.12
  -9  -1  30   13.50    2.26
  -9  -1  30   14.46    2.22
   1   9 -31   15.14    2.00
  -9  -1  31    8.87    1.86
  -9  -1  31   14.25    2.04
  -9  -1  32   89.12    5.07
   1   9 -32   99.15    4.96
  -9  -1  32   97.26    5.03
  -9  -1  33   32.50    2.61
   1   9 -33   39.70    2.61
  -9   2  32   47.84    3.26
  -9   2  32   50.01    3.39
  -9   2  31   37.99    3.19
  -2   9 -31   47.13    3.11
  -9   2  31   38.88    3.21
   2  -9 -31   41.32    2.96
  -9   2  30    2.70    1.24
  -2   9 -30    1.47    1.03
  -9   2  30    1.60    1.28
   2  -9 -30    1.59    1.02
  -9   2  29    6.38    1.80
  -2   9 -29   10.47    1.88
  -9   2  29   10.51    2.15
   2  -9 -29   10.35    1.91
  -2   9 -28    0.80    1.23
   9   2 -28    1.47    1.23
  -9   2  28   -0.19    1.25
   2  -9 -28    0.72    1.29
   9   2 -27   24.23    2.83
  -9   2  27   26.33    3.34
  -2   9 -27   25.49    3.02
   2  -9 -27   23.94    3.10
   9   2 -26   41.78    3.77
  -9   2  26   48.96    4.62
  -2   9 -26   48.14    4.22
   2  -9 -26   40.96    4.23
  -2   9 -25    8.47    2.25
   9   2 -25    9.33    2.14
  -9   2  25    8.27    2.42
   2  -9 -25    9.37    2.38
  -2   9 -24   20.43    3.03
   9   2 -24   15.01    2.67
  -9   2  24   14.69    2.97
   2  -9 -24   11.35    2.65
   9   2 -23   71.83    5.39
  -9   2  23   85.12    6.58
  -2   9 -23   77.70    5.87
  -9   2  23   73.45    5.82
   2  -9 -23   71.67    6.07
   9   2 -22  115.15    6.97
  -2   9 -22  108.17    7.15
  -9   2  22  105.69    7.77
  -9   2  22  105.05    7.24
  -2   9 -21   23.36    3.44
   9   2 -21   21.93    3.25
  -9   2  21   23.90    3.77
  -9   2  21   15.04    3.01
  -9   2  20   35.36    4.59
  -2   9 -20   37.32    4.32
   9   2 -20   37.63    4.12
  -9   2  20   37.97    5.08
  -9   2  20   32.46    4.24
  -9   2  19  105.07    7.91
  -2   9 -19  102.05    7.12
   9   2 -19  101.82    6.93
  -9   2  19   98.50    8.11
  -9   2  19   97.18    7.40
  -9   2  18   78.41    6.91
  -2   9 -18   75.22    6.12
   9   2 -18   83.92    6.29
  -9   2  18   84.27    7.33
  -9   2  18   63.77    6.12
  -9   2  17  184.87   10.94
  -2   9 -17  184.32   10.26
   9   2 -17  174.76    9.69
  -9   2  17  193.01   11.53
   2  -9 -17  148.03    7.94
  -9   2  17  189.08   10.65
   2  -9 -17  198.76   11.35
  -9   2  16   45.90    5.30
   9   2 -16   45.97    4.83
   2  -9 -16   37.41    3.57
  -2  -9  16   43.86    3.86
  -9   2  16   47.49    5.63
  -9   2  16   33.18    4.55
   2  -9 -16   46.90    5.38
  -9   2  15   49.62    5.67
  -9   2  15   55.78    7.74
   9   2 -15   67.78    5.72
   2  -9 -15   55.78    4.47
  -9   2  15   58.43    6.34
  -9  -2 -15   60.06    5.30
  -2  -9  15   54.66    4.48
  -9   2  15   55.57    5.66
   2  -9 -15   52.97    5.89
  -9   2  14  287.15   14.18
  -9   2  14  247.35   16.92
  -9  -2 -14  220.27   15.29
   9   2 -14  257.08   12.66
  -9   2  14  275.47   14.45
  -2  -9  14  262.06   11.67
   2  -9 -14  253.72   11.44
  -9  -2 -14  267.14   12.67
   2  -9 -14  260.18   13.83
  -2   9 -13   11.90    2.13
  -9   2  13   19.95    4.64
  -9   2  13   15.71    3.46
   9  -2  13   10.55    4.33
   9   2 -13   12.99    3.23
  -9   2  13   16.52    4.11
  -9  -2 -13   15.84    3.97
  -2  -9  13   14.86    2.60
  -9  -2 -13   19.21    3.28
  -9   2  13   11.40    3.49
   2  -9 -13   15.04    3.54
  -9   2  12  217.87   12.39
  -9   2  12  221.97   15.53
   9  -2  12  200.06   15.71
  -9  -2 -12  178.75   13.97
  -9   2  12  202.11   14.14
   9   2 -12  225.16   11.57
  -2  -9  12  225.69   10.60
  -9   2  12  243.50   13.16
  -9  -2 -12  224.72   11.32
  -2   9 -12  209.62    9.96
   2  -9 -12  209.37   12.27
  -9   2  11  139.34    9.56
  -9   2  11  129.27   11.60
   9  -2  11  127.94   12.40
  -9  -2 -11  130.20   11.47
  -9   2  11  131.48   11.22
   9   2 -11  150.21    9.07
  -9   2  11  144.70    9.95
  -2  -9  11  147.53    8.19
  -9  -2 -11  144.84    8.72
  -2   9 -11  145.01    7.80
   2  -9 -11  155.56    9.96
  -9   2  10   47.99    5.42
  -9   2  10   45.11    6.74
   9  -2  10   43.62    7.32
  -9   2  10   54.91    7.04
   9   2 -10   47.76    5.31
  -9  -2 -10   45.31    6.66
  -9  -2 -10   41.96    4.81
  -2  -9  10   57.39    4.85
  -9   2  10   52.23    5.76
  -9  -2 -10   44.96    4.74
  -2   9 -10   46.32    4.19
   2  -9 -10   54.85    5.83
  -9   2   9   58.67    5.94
  -9   2   9   38.98    6.52
   9  -2   9   55.71    7.98
  -9   2   9   57.64    7.56
   9   2  -9   64.82    5.97
  -9  -2  -9   55.25    7.57
  -9  -2  -9   60.99    5.67
  -9  -2  -9   56.11    5.21
  -2  -9   9   64.60    5.22
  -9   2   9   65.58    6.48
  -2   9  -9   58.94    4.91
   2  -9  -9   70.51    6.43
  -9   2   8   78.41    6.79
  -9   2   8   69.28    8.27
   9  -2   8   67.18    8.59
  -9   2   8   70.93    8.29
   9   2  -8   67.58    6.35
  -9  -2  -8   64.09    8.03
  -9  -2  -8   87.96    6.76
  -9  -2  -8   71.77    5.97
  -2  -9   8   69.86    5.55
  -9   2   8   82.14    7.22
   2  -9  -8   70.28    6.55
  -9   2   7   45.52    5.22
  -9   2   7   36.78    6.24
   9  -2   7   42.03    6.69
  -9   2   7   49.14    6.90
  -9  -2  -7   52.10    7.44
  -9  -2  -7   45.75    5.02
  -2  -9   7   53.76    4.74
  -9  -2  -7   40.85    4.60
  -9   2   7   50.75    5.69
   9  -2   7   47.43    4.40
   2  -9  -7   49.66    5.54
  -9   2   6  258.13   13.47
  -9   2   6  231.96   16.05
   9  -2   6  252.95   17.09
  -9   2   6  261.54   16.85
  -9  -2  -6  254.58   16.74
  -9  -2  -6  244.17   12.80
  -9   2   6  258.68   13.71
  -9  -2  -6  266.86   12.80
  -2  -9   6  255.91   12.09
   9  -2   6  258.17   11.95
   2  -9  -6  248.45   13.27
  -9   2   5  117.05    8.23
  -9   2   5  109.62   10.32
   9  -2   5  109.11   10.78
  -9  -2  -5  104.40    7.96
  -9   2   5  109.67   10.53
  -9  -2  -5   99.66   10.31
  -9  -2  -5  103.16    7.71
  -9  -2  -5  120.58    7.91
  -2  -9   5  108.76    7.20
  -9   2   5  124.31    8.71
   9  -2   5  106.06    7.04
   2  -9  -5  112.19    8.29
  -9   2   4  123.42    8.65
  -9   2   4  119.57   10.73
   9  -2   4  105.22   10.56
  -9  -2  -4  118.35    8.48
  -9   2   4  117.21   11.09
  -9  -2  -4  115.34   11.15
  -9  -2  -4  134.92    8.54
  -9   2   4  121.07    8.65
  -2  -9   4  125.80    7.72
   2  -9  -4  115.04    6.76
   9  -2   4  113.80    7.42
   2  -9  -4  121.36    8.58
  -9   2   3  169.44   10.18
   9  -2   3  159.44   12.78
  -9  -2  -3  163.48   10.11
  -9   2   3  167.06   13.26
  -9  -2  -3  155.10   13.20
  -9   2   3  176.80   10.56
  -9  -2  -3  171.59    9.95
  -2  -9   3  160.89    9.09
   2  -9  -3  152.54    8.19
   9  -2   3  156.49    9.05
   2  -9  -3  145.43    9.69
   9  -2   2  229.61   15.83
  -9  -2  -2  257.61   13.38
  -9   2   2  261.74   13.36
  -9   2   2  249.80   16.80
  -9  -2  -2  236.07   12.70
  -9   2   2  280.87   13.73
  -2  -9   2  254.84   12.22
   2  -9  -2  240.42   11.21
   9  -2   2  250.01   12.28
   2  -9  -2  258.43   13.10
   9  -2   1  379.48   20.84
  -9  -2  -1  352.78   17.10
  -9   2   1  371.84   17.10
  -9   2   1  403.39   22.01
  -9  -2  -1  390.73   17.11
  -9   2   1  414.78   17.77
  -2  -9   1  373.64   16.06
   2  -9  -1  375.09   15.29
   9  -2   1  380.32   16.47
   2  -9  -1  378.28   16.98
   9  -2   0  244.77   15.71
  -9  -2   0  231.99   12.81
  -9   2   0  234.55   12.57
  -9   2   0  222.60   15.87
  -9  -2   0  236.35   16.40
  -9  -2   0  238.00   12.62
  -2  -9   0  247.33   11.90
  -9   2   0  261.65   13.13
   2  -9   0  220.63   10.78
   2  -9   0  245.00   12.51
   9  -2  -1  355.92   19.91
  -9   2  -1  379.95   17.16
  -9  -2   1  373.48   17.47
  -9  -2   1  363.62   21.32
  -2  -9  -1  381.24   16.14
  -9  -2   1  387.59   17.07
  -9   2  -1  400.16   17.33
   2  -9   1  370.16   15.42
   2  -9   1  383.60   16.75
   9  -2  -2  233.06   15.17
  -9   2  -2  252.94   13.00
  -9  -2   2  259.60   13.53
  -9  -2   2  231.80   16.47
  -9  -2   2  241.37   12.79
  -9   2  -2  259.57   13.05
  -9  -2   2  256.74   12.29
   2  -9   2  246.85   11.50
   2  -9   2  244.59   12.38
  -9  -2   3  154.81   10.05
  -9   2  -3  150.26    9.54
  -9   2  -3  166.10   13.17
  -9  -2   3  175.23   13.84
  -9   2  -3  165.87    9.88
  -9  -2   3  171.80   10.04
  -9  -2   3  161.14    9.36
   2  -9   3  166.97    8.79
  -9   2  -3  143.22    7.89
  -2  -9  -3  177.77   10.57
   2  -9   3  164.42    9.43
  -9  -2   4  112.05    8.57
  -9   2  -4  120.77    8.36
  -9   2  -4  132.71   11.52
  -9  -2   4  112.27   10.94
  -9  -2   4  126.33    7.99
  -9   2  -4  138.86    8.68
  -9  -2   4  129.50    8.59
  -2  -9  -4  123.29    7.82
   2  -9   4  119.38    7.32
  -9   2  -4  119.14    6.90
   2  -9   4  116.51    7.71
  -2  -9  -4  134.25    9.09
  -9  -2   5  106.39    8.37
  -9   2  -5  108.62    7.98
  -9   2  -5  120.82   11.06
  -9  -2   5  102.35   10.37
  -9  -2   5  112.06    7.48
  -9   2  -5  127.16    8.20
  -9  -2   5  108.24    8.05
  -2  -9  -5  107.89    7.34
  -9   2  -5  118.86    7.96
   2  -9   5  117.15    7.17
  -9   2  -5  106.00    6.54
  -2  -9  -5  125.54    8.63
  -9  -2   6  236.72   13.17
  -9  -2   6  198.13   14.10
  -9   2  -6  237.68   16.20
  -9  -2   6  260.11   16.93
  -9  -2   6  248.36   12.17
  -9   2  -6  254.21   12.64
  -9  -2   6  252.63   12.96
  -9   2  -6  245.16   12.40
  -2  -9  -6  264.52   12.18
  -9  -2   6  253.07   12.89
  -9   2  -6  228.98   10.92
   2  -9   6  243.13   11.45
  -2  -9  -6  262.46   13.32
  -9  -2   7   38.46    5.13
  -9  -2   7   49.16    6.50
  -9   2  -7   53.46    7.09
   9  -2  -7   51.59    6.16
  -9  -2   7   44.91    6.78
  -9  -2   7   48.96    4.98
  -9   2  -7   46.58    4.92
  -9   2  -7   47.98    5.02
  -9  -2   7   45.77    5.26
  -2  -9  -7   52.41    4.91
  -9  -2   7   45.00    5.04
  -9   2  -7   51.42    4.37
   2  -9   7   55.39    4.72
  -2  -9  -7   53.53    5.74
  -9  -2   8   59.34    6.18
  -9  -2   8   57.55    7.16
  -9   2  -8   63.19    7.87
   9  -2  -8   69.03    6.77
  -9  -2   8   65.79    8.24
  -9  -2   8   71.08    5.87
  -9   2  -8   76.82    6.28
  -9   2  -8   75.54    6.19
  -9  -2   8   69.55    6.29
  -2  -9  -8   68.08    5.51
  -9  -2   8   67.09    6.18
  -9   2  -8   69.93    5.16
   2  -9   8   72.70    5.49
  -2  -9  -8   78.33    6.72
  -9  -2   9   68.87    6.58
  -9  -2   9   54.20    6.89
  -9   2  -9   60.78    7.50
   9  -2  -9   65.60    6.44
  -9  -2   9   55.75    7.47
  -9  -2   9   63.80    5.62
  -2  -9  -9   65.78    5.34
  -9   2  -9   58.93    5.57
  -9   2  -9   59.91    5.57
  -9  -2   9   61.77    5.93
  -9  -2   9   67.04    6.23
  -9   2  -9   60.37    4.82
   2  -9   9   60.95    5.11
  -2  -9  -9   67.98    6.39
  -9  -2  10   49.01    5.71
  -9  -2  10   48.76    6.64
  -9   2 -10   48.60    6.71
  -9  -2  10   42.99    6.57
   9  -2 -10   56.46    5.70
  -9   2 -10   56.57    5.29
  -9   2 -10   50.66    5.05
  -9  -2  10   45.45    4.80
  -2  -9 -10   50.06    4.69
  -9  -2  10   43.54    5.11
  -9  -2  10   51.41    5.49
  -9   2 -10   53.95    4.50
   2  -9  10   49.18    4.63
  -2  -9 -10   48.46    5.42
  -9  -2  11  133.45    9.53
  -9  -2  11  112.93   10.82
  -9   2 -11  144.67   11.63
   9  -2 -11  155.63    9.19
  -9  -2  11  124.20   11.16
  -9   2 -11  146.81    8.94
  -9  -2  11  156.39    8.91
  -9  -2  11  118.51    8.79
   2  -9  11  143.39    8.15
  -2  -9 -11  137.64    7.97
  -9   2 -11  148.67    8.82
  -9   2 -11  129.45    7.66
  -9  -2  11  132.00    9.09
  -2  -9 -11  133.44    9.22
  -9  -2  12  224.08   12.73
  -9  -2  12  207.47   15.05
  -9  -2  12  179.03   13.90
  -9   2 -12  187.79   13.70
   9  -2 -12  227.53   11.72
  -9   2 -12  220.56   11.64
  -9  -2  12  221.04   11.34
   2  -9  12  226.53   10.96
  -9  -2  12  210.24   12.00
  -2  -9 -12  233.93   10.89
  -9   2 -12  225.23   11.62
  -9  -2  12  225.98   12.42
  -2  -9 -12  229.74   12.48
  -9   2 -12  232.80   10.87
  -9   2 -13   14.98    2.68
  -9  -2  13   11.01    3.64
  -9  -2  13   13.73    3.51
   9  -2 -13   13.30    3.16
  -9  -2  13   13.87    3.71
  -9   2 -13   12.12    3.45
  -9  -2  13   12.02    2.93
   2  -9  13   13.92    2.51
  -9   2 -13   15.52    3.19
  -9   2 -13   11.74    2.74
  -2  -9 -13   14.86    2.93
  -2  -9 -13   17.11    2.80
  -9  -2  13    9.95    3.03
  -9  -2  13   11.36    3.18
   2  -9  13   14.27    2.66
  -2  -9 -13   16.35    3.45
  -9  -2  14  253.47   13.75
  -9  -2  14  216.56   16.05
  -9   2 -14  218.98   14.40
   9  -2 -14  273.56   12.81
   2  -9  14  266.75   12.08
  -9  -2  14  249.09   13.01
   2  -9  14  260.34   11.17
  -9  -2  14  240.49   12.00
  -2  -9 -14  220.50   11.84
  -9   2 -14  247.65   12.36
  -2  -9 -14  236.95   11.14
  -9  -2  14  257.91   13.50
  -2  -9 -14  269.07   13.44
  -9   2 -14  244.06   11.55
  -9  -2  15   57.22    6.11
  -9  -2  15   47.59    7.19
   9  -2 -15   53.94    5.27
  -2  -9 -15   54.24    4.53
  -9  -2  15   62.47    5.28
   2  -9  15   51.46    4.22
  -2  -9 -15   48.62    4.98
   2  -9  15   62.67    5.11
  -9  -2  15   59.09    5.80
  -9   2 -15   54.20    5.28
  -9  -2  15   48.83    5.65
  -2  -9 -15   56.77    5.63
  -9   2 -15   62.17    5.08
  -9  -2  16   47.17    5.52
   9  -2 -16   54.13    5.11
   2  -9  16   46.11    3.72
  -9  -2  16   47.28    4.59
   2  -9  16   43.63    4.31
  -9  -2  16   36.09    4.70
  -2  -9 -16   43.57    4.61
  -9   2 -16   46.14    4.80
  -2  -9 -16   34.09    3.53
  -9  -2  16   39.21    5.21
  -2  -9 -16   35.40    4.52
  -9   2 -16   46.15    4.32
  -9  -2  17  174.09   10.86
   2   9 -17  174.52   10.07
   9  -2 -17  174.73    9.70
   2  -9  17  173.70    9.21
  -9  -2  17  180.20    9.54
  -9  -2  17  171.07   10.17
  -2  -9 -17  160.50    8.15
  -2  -9 -17  167.28    9.55
  -9   2 -17  177.63    9.33
  -2  -9 -17  172.46   10.22
  -9  -2  18   66.21    6.49
   2   9 -18   77.53    6.33
   9  -2 -18   63.47    5.60
  -9  -2  18   70.51    5.54
  -9  -2  18   67.99    6.07
  -2  -9 -18   68.45    5.67
  -9   2 -18   77.55    5.70
  -2  -9 -18   75.68    6.30
  -9  -2  19   96.33    7.81
   2   9 -19  118.04    7.74
   9  -2 -19  105.69    7.07
  -9  -2  19  100.65    6.57
  -9  -2  19   94.36    7.22
  -2  -9 -19   83.68    6.55
  -9   2 -19  108.40    6.77
  -2  -9 -19  101.97    7.27
  -9  -2  20   35.96    4.66
   2   9 -20   34.76    4.23
   9  -2 -20   35.20    3.98
  -9  -2  20   32.55    3.66
  -9  -2  20   30.48    3.92
  -2  -9 -20   26.12    3.55
  -9   2 -20   37.82    3.93
  -2  -9 -20   36.86    4.11
  -9   2 -21   17.10    2.84
  -9  -2  21   20.64    3.59
   2   9 -21   18.43    3.24
   9  -2 -21   17.99    3.02
  -9  -2  21   24.92    3.45
  -9  -2  21   18.68    2.83
  -2  -9 -21   15.07    2.72
  -2  -9 -21   24.80    3.33
   2   9 -22  108.23    7.23
  -9  -2  22  110.01    8.05
   9  -2 -22  113.23    7.06
  -9  -2  22  110.52    6.45
  -9  -2  22  104.39    6.99
  -2  -9 -22   92.66    6.54
  -9   2 -22  116.74    6.85
  -2  -9 -22   98.84    6.77
  -9  -2  23   60.75    5.82
   2   9 -23   64.35    5.44
   9  -2 -23   67.74    5.27
  -9  -2  23   72.07    4.85
  -2  -9 -23   55.68    4.79
  -9  -2  23   63.18    5.19
   2  -9  23   79.02    5.22
  -9   2 -23   70.05    5.19
  -2  -9 -23   59.33    4.87
  -9   2 -24   18.18    2.66
  -9  -2  24   13.09    2.91
   2   9 -24   10.68    2.54
   9  -2 -24   16.71    2.76
  -9  -2  24   13.63    2.16
  -2  -9 -24   14.42    2.42
  -9  -2  24   15.46    3.05
   2  -9  24   16.65    2.52
  -9   2 -25    9.22    2.05
  -9  -2  25    7.29    2.33
   2   9 -25   10.26    2.37
   9  -2 -25    4.00    1.79
  -9  -2  25    7.61    1.64
  -2  -9 -25    4.30    1.45
  -9  -2  25   10.04    2.52
  -9  -2  26   48.21    4.75
   2   9 -26   51.42    4.33
   9  -2 -26   40.97    3.85
  -9  -2  26   52.32    4.74
  -9   2 -26   48.92    4.01
   9  -2 -27   18.46    2.58
   2   9 -27   23.81    2.99
  -9  -2  27   18.97    3.05
  -9  -2  27   24.67    3.34
  -9   2 -27   22.65    2.73
   2   9 -28    0.50    1.28
   9  -2 -28   -0.60    1.15
  -9   2 -28    0.30    1.16
  -9  -2  28    0.20    1.15
  -9  -2  28   -0.20    1.23
   2   9 -29   11.54    2.05
  -9  -2  29   11.63    2.09
  -9   2 -29   11.75    1.94
  -9  -2  29   13.46    2.21
   2   9 -30    0.26    1.08
  -9  -2  30    1.67    1.15
  -9  -2  30    1.71    1.24
  -9  -2  31   39.13    3.18
   2   9 -31   45.50    3.15
  -9  -2  31   46.30    3.51
   2   9 -32   63.46    3.45
  -9  -2  32   66.89    3.90
  -9   3  31    9.26    1.65
   3  -9 -31   12.91    1.56
  -9   3  30   49.62    3.40
  -3   9 -30   45.79    3.00
  -9   3  30   62.55    4.11
   3  -9 -30   58.73    3.84
  -9   3  29   15.06    2.07
  -3   9 -29   14.75    1.80
  -9   3  29   13.62    2.26
   3  -9 -29   15.92    2.21
  -9   3  28    1.09    1.18
  -3   9 -28    4.22    1.29
  -9   3  28    2.24    1.39
   3  -9 -28    2.71    1.47
  -9   3  27   42.19    3.82
  -3   9 -27   50.03    3.71
   9   3 -27   45.41    3.58
  -9   3  27   50.34    4.41
   3  -9 -27   51.00    4.25
  -9   3  26   31.14    3.35
  -3   9 -26   24.89    2.85
  -9   3  26   30.06    3.75
   9   3 -26   28.28    2.89
  -9   3  25   62.82    5.04
  -3   9 -25   59.15    4.47
  -9   3  25   64.17    5.37
   9   3 -25   56.12    4.29
  -9   3  24   11.50    2.48
  -9   3  24    9.78    2.57
  -3   9 -24   12.35    2.25
   9   3 -24   11.67    2.20
  -3   9 -23   23.19    2.99
  -9   3  23   21.35    3.30
   9   3 -23   20.36    2.76
  -9   3  23   28.62    3.87
  -9   3  22   72.65    5.91
  -3   9 -22   68.56    5.27
   9   3 -22   66.37    5.04
  -9   3  22   74.14    6.38
   3  -9 -22   70.98    5.99
  -9   3  21   47.86    4.99
  -3   9 -21   40.89    4.14
   9   3 -21   43.22    4.11
  -9   3  21   38.90    4.82
  -9  -3 -21   41.58    4.00
   3  -9 -21   47.31    5.05
  -3   9 -20  127.08    7.68
  -9   3  20  124.07    8.31
   9   3 -20  116.53    7.16
  -9   3  20  136.74    9.09
  -9  -3 -20  120.64    7.30
   3  -9 -20  144.38    9.06
  -9   3  19  268.47   13.59
  -3   9 -19  267.70   12.63
   9   3 -19  284.37   12.50
  -9   3  19  285.28   14.33
  -9  -3 -19  261.62   12.35
   3  -9 -19  312.91   14.61
  -9   3  18   47.46    5.03
  -3   9 -18   40.82    4.29
   9   3 -18   34.90    4.03
  -9   3  18   38.65    5.06
  -9  -3 -18   41.52    4.15
  -3   9 -18   34.67    3.22
   3  -9 -18   52.33    5.47
  -9   3  17   26.78    3.92
  -3   9 -17   26.22    3.49
   9   3 -17   27.57    3.54
  -3   9 -17   22.57    2.58
   3  -9 -17   24.41    2.77
  -9   3  17   31.80    4.62
  -9  -3 -17   22.90    3.19
  -3   9 -17   23.47    2.71
   3  -9 -17   31.34    4.40
  -3   9 -16   39.78    4.27
  -9   3  16   30.96    4.33
   9   3 -16   37.11    4.01
   3  -9 -16   34.22    3.45
  -9   3  16   48.52    5.49
  -9  -3 -16   29.68    3.61
  -3   9 -16   34.60    3.34
   3  -9 -16   38.36    4.77
  -9   3  15  165.76   10.27
  -3   9 -15  161.19    9.34
   9   3 -15  172.82    9.32
  -9   3  15  190.02   11.18
  -9  -3 -15  159.57    9.03
  -3   9 -15  153.45    8.07
   3  -9 -15  187.97   11.01
  -9   3  14  151.55    9.52
   9   3 -14  136.87    8.36
  -9   3  14  145.53    9.90
  -9  -3 -14  145.40    8.45
  -9  -3 -14  140.80    8.35
  -3   9 -14  134.66    7.50
   3  -9 -14  161.55   10.04
  -9   3  13   18.72    4.47
  -9   3  13   11.75    2.89
   9  -3  13   18.84    5.00
  -9  -3 -13   13.40    3.73
   9   3 -13   17.39    3.17
  -9   3  13   13.45    3.74
  -3  -9  13   17.68    2.88
  -9  -3 -13   17.48    2.90
  -9  -3 -13   15.45    2.81
  -9   3  13   14.08    3.35
  -3   9 -13   18.52    2.61
   3  -9 -13   16.96    3.45
  -9   3  12   32.45    4.39
  -9   3  12   33.93    5.96
   9  -3  12   26.07    5.92
  -9  -3 -12   20.92    4.90
  -9   3  12   29.35    5.19
   9   3 -12   31.73    3.98
  -3  -9  12   36.44    3.84
  -9  -3 -12   29.73    3.71
  -9   3  12   31.60    4.58
  -3   9 -12   28.07    3.26
   3  -9 -12   39.00    4.82
  -9   3  11   60.44    5.82
  -9   3  11   54.07    7.48
   9  -3  11   53.31    7.91
  -9  -3 -11   39.72    6.51
  -9   3  11   49.89    6.90
   9   3 -11   64.06    5.44
  -3  -9  11   62.57    5.13
  -9   3  11   60.07    6.10
  -9  -3 -11   56.98    5.08
  -3   9 -11   53.30    4.67
   9  -3  11   57.75    4.58
   3  -9 -11   54.09    5.86
  -9   3  10  112.34    8.06
  -9   3  10  117.87   11.12
   9  -3  10   95.61   10.83
  -9  -3 -10   79.08    9.48
  -9   3  10  115.07   10.25
   9   3 -10  106.14    7.35
  -3  -9  10  108.89    7.05
  -9   3  10  110.62    8.39
  -9  -3 -10  110.43    7.30
   9  -3  10  107.46    6.74
  -3   9 -10  113.70    7.02
   3  -9 -10  106.40    8.15
  -9   3   9  129.07    8.82
  -9   3   9  124.43   11.50
   9  -3   9  110.99   11.40
  -9  -3  -9  123.60   11.17
  -9   3   9  110.62   10.46
   9   3  -9  121.51    7.92
  -3  -9   9  136.34    7.96
  -9   3   9  128.79    9.08
  -9  -3  -9  123.98    7.81
  -3   9  -9  132.16    7.78
   9  -3   9  123.85    7.39
   3  -9  -9  133.33    8.95
  -3   9  -8    2.48    1.88
  -9   3   8    6.76    3.16
  -9   3   8    3.45    2.06
   9  -3   8    3.49    3.08
  -9  -3  -8    2.92    2.57
   9   3  -8    4.07    2.37
   3  -9  -8    3.10    1.71
  -9   3   8    2.85    2.42
  -3  -9   8    2.62    2.05
  -9  -3  -8    2.54    2.08
  -9  -3  -8    1.52    1.67
  -9   3   8    1.36    1.96
   9  -3   8    2.52    1.48
   3  -9  -8    0.63    1.83
  -9   3   7    5.28    2.23
   9  -3   7    3.43    3.03
   9   3  -7    1.66    2.19
   3  -9  -7    1.94    1.69
  -9   3   7   -1.16    2.55
  -9  -3  -7    2.36    2.41
  -3  -9   7    0.24    1.56
  -9  -3  -7    0.84    1.63
  -9  -3  -7    2.30    1.71
  -9   3   7    0.33    2.05
   3  -9  -7    0.60    1.10
   9  -3   7    0.71    1.48
   3  -9  -7    1.56    1.80
  -9   3   6   19.11    3.31
   9  -3   6   14.18    4.39
   9   3  -6   12.92    3.15
   3  -9  -6   16.55    3.00
  -9   3   6   19.98    4.73
  -9  -3  -6   16.13    4.31
  -3  -9   6   13.13    2.87
  -9  -3  -6   21.33    3.43
  -9  -3  -6   19.10    3.14
  -9   3   6   21.40    3.84
   3  -9  -6   19.53    2.75
   9  -3   6   18.49    2.97
   3  -9  -6   16.26    3.29
  -9   3   5   68.92    6.22
   9  -3   5   64.64    8.48
  -9  -3  -5   61.50    8.20
  -9   3   5   77.85    9.12
   3  -9  -5   68.36    5.83
  -9  -3  -5   67.73    6.02
  -9   3   5   79.15    6.77
  -9  -3  -5   62.91    5.65
  -3  -9   5   71.69    5.76
   3  -9  -5   64.62    5.16
   9  -3   5   82.90    6.14
   3  -9  -5   71.95    6.57
  -9   3   4  675.44   24.33
   9  -3   4  577.75   29.20
  -9  -3  -4  550.24   23.39
  -9  -3  -4  578.68   28.56
  -9   3   4  586.58   28.72
   3  -9  -4  616.70   22.87
  -9  -3  -4  578.90   23.10
  -9  -3  -4  575.17   22.74
  -9   3   4  670.12   24.72
  -3  -9   4  617.57   22.86
   3  -9  -4  546.57   21.65
   9  -3   4  601.87   22.85
   3  -9  -4  602.39   23.67
  -9  -3  -3   13.89    3.12
   9  -3   3   20.45    5.02
  -9   3   3   31.20    4.12
  -9   3   3   13.91    4.42
  -9  -3  -3    9.19    4.11
  -9  -3  -3   14.59    2.90
  -3  -9   3   13.74    3.35
  -9  -3  -3   15.33    3.28
  -9   3   3   27.12    4.12
  -9  -3  -3   11.26    2.77
   3  -9  -3   15.08    2.68
   9  -3   3   13.67    2.91
   3  -9  -3   13.02    3.25
   9  -3   2   60.52    7.93
  -9  -3  -2   66.09    6.20
  -9   3   2   75.57    6.30
  -9   3   2   69.41    8.48
  -9  -3  -2   66.45    5.89
  -9   3   2   78.73    6.47
  -3  -9   2   67.81    5.74
  -9  -3  -2   66.50    5.62
   3  -9  -2   75.52    5.59
   9  -3   2   66.65    5.73
   3  -9  -2   63.30    5.83
   9  -3   1  120.86   11.17
  -9  -3  -1  125.01    8.51
  -9   3   1  111.15    7.84
  -9   3   1  117.48   11.15
   3  -9  -1  123.11    7.85
  -3  -9   1  107.45    7.36
  -9  -3  -1  111.58    7.74
  -9   3   1  100.45    7.68
  -9  -3  -1  112.93    7.37
   9  -3   1  118.29    7.85
   3  -9  -1  100.10    6.79
   3  -9  -1   99.95    7.42
  -9   3   1   97.94    6.24
   9  -3   0  447.88   23.41
  -9  -3   0  429.18   18.65
  -9   3   0  455.44   18.53
  -9  -3   0  445.18   23.74
  -9   3   0  416.13   23.05
   3  -9   0  438.12   17.86
  -9  -3   0  417.46   17.94
  -3  -9   0  442.69   17.82
  -9   3   0  431.78   18.43
  -9  -3   0  402.62   17.33
   9  -3   0  447.74   18.29
   3  -9   0  426.20   17.83
  -9   3   0  378.57   15.93
   3  -9   0  411.68   16.97
   9  -3  -1  121.02   10.93
  -9   3  -1  104.37    7.53
  -9  -3   1   86.39    7.39
  -9  -3   1  100.04   10.57
   3  -9   1  119.03    7.64
  -9  -3   1  112.27    7.69
  -9   3  -1  113.56    7.84
  -3  -9  -1  117.90    7.65
   3  -9   1  108.56    6.94
   9  -3  -1  105.43    7.57
   3  -9   1  102.13    7.23
  -9   3  -1  100.03    6.30
   9  -3  -2   62.50    7.77
  -9   3  -2   66.52    5.86
  -9  -3   2   57.59    5.83
  -9  -3   2   70.28    8.56
   3  -9   2   68.81    5.77
  -9  -3   2   68.27    5.87
  -9   3  -2   85.18    6.40
   3  -9   2   64.96    5.49
  -9   3  -2   58.86    4.71
   3  -9   2   59.48    5.08
  -9   3  -3   16.52    2.79
  -9   3  -3   13.61    3.06
   9  -3  -3   22.60    5.05
  -9  -3   3   23.29    4.35
   3  -9   3   10.67    2.98
  -9   3  -3   12.21    4.28
  -9  -3   3    9.22    4.42
  -9  -3   3   12.52    3.42
  -9   3  -3   13.56    3.11
   3  -9   3   10.56    2.64
   3  -9   3   12.11    2.75
   9  -3  -4  572.10   27.68
  -9   3  -4  583.44   23.47
  -9  -3   4  604.46   24.24
  -9  -3   4  576.53   28.96
  -9   3  -4  651.66   29.75
   3  -9   4  594.48   22.75
  -9   3  -4  587.33   23.28
  -9  -3   4  574.16   23.13
  -3  -9  -4  618.28   22.96
  -9   3  -4  619.71   23.43
   3  -9   4  623.22   22.76
  -9   3  -4  591.35   21.77
  -9  -3   5   71.71    6.53
  -9  -3   5   55.97    7.88
  -9   3  -5   67.26    8.58
   3  -9   5   71.93    5.74
  -9  -3   5   67.19    5.80
  -9   3  -5   74.15    6.11
  -9  -3   5   65.06    6.00
  -3  -9  -5   74.50    6.08
  -9   3  -5   73.28    6.09
   3  -9   5   65.34    5.37
  -9   3  -5   71.51    5.24
  -9   3  -6   16.60    2.61
  -9  -3   6   15.56    3.24
   9  -3  -6   18.01    4.34
   3  -9   6   19.26    3.07
  -9   3  -6   15.40    4.39
  -9  -3   6   17.46    4.58
  -9  -3   6   15.71    2.89
  -3  -9  -6   23.77    3.41
  -9   3  -6   17.15    3.12
  -9  -3   6   15.93    3.08
  -9   3  -6   18.68    3.22
   3  -9   6   20.43    3.20
  -9   3  -7    1.92    1.43
  -9  -3   7    3.67    2.16
   9  -3  -7    1.43    3.09
   3  -9   7    0.24    1.49
  -9   3  -7    1.16    2.38
  -9  -3   7    1.19    2.22
  -9  -3   7    1.60    1.99
  -3  -9  -7    0.98    1.71
  -9   3  -7    1.62    1.98
  -9  -3   7    2.24    1.65
  -9   3  -7    3.49    2.13
  -9  -3   7    1.51    1.79
   3  -9   7    1.95    1.58
  -9   3  -8    0.87    1.33
  -9  -3   8    1.01    2.18
   9  -3  -8   -0.28    2.67
  -9   3  -8    2.85    2.33
  -9  -3   8   -1.17    2.77
  -3  -9  -8    1.45    1.91
  -9  -3   8    1.33    1.91
  -9   3  -8    3.20    2.02
  -9   3  -8    2.40    1.81
  -9  -3   8   -0.56    1.87
   3  -9   8    3.41    1.84
  -9  -3   8    0.92    1.92
  -9  -3   9  107.65    8.43
  -9  -3   9  105.65   10.58
  -9   3  -9  113.57   10.53
   9  -3  -9  127.97    8.25
  -9   3  -9  136.03    8.23
  -9   3  -9  115.04    7.74
  -9  -3   9  132.67    8.23
  -9  -3   9  110.24    7.86
  -3  -9  -9  133.12    7.88
  -9  -3   9  113.67    8.20
   3  -9   9  121.81    7.57
  -9   3  -9  124.16    7.38
  -3  -9  -9  132.66    8.70
  -9  -3  10  112.97    8.46
  -9  -3  10   88.39    9.83
  -9   3 -10   90.36    9.60
   9  -3 -10  119.01    7.73
  -9   3 -10  114.77    7.56
  -9  -3  10  115.32    7.62
  -9  -3  10  101.54    7.38
  -3  -9 -10  118.78    7.30
  -9   3 -10  104.00    7.25
  -9  -3  10  102.14    7.90
   3  -9  10   99.30    6.87
  -9   3 -10  112.54    6.90
  -3  -9 -10  111.75    8.05
  -9  -3  11   49.29    5.61
  -9  -3  11   54.80    7.35
  -9   3 -11   61.20    7.35
   9  -3 -11   57.75    5.30
  -9   3 -11   56.72    5.19
  -9  -3  11   59.06    5.34
  -9  -3  11   52.68    5.21
  -3  -9 -11   58.86    4.98
  -9   3 -11   45.85    4.93
  -9  -3  11   56.47    5.65
  -9   3 -11   52.85    4.70
   3  -9  11   52.90    4.85
  -3  -9 -11   57.11    5.56
  -9  -3  12   27.75    4.30
  -9  -3  12   25.25    5.22
  -9   3 -12   26.45    5.03
   9  -3 -12   34.71    4.29
  -9   3 -12   32.83    3.93
  -9  -3  12   27.55    3.77
  -3  -9 -12   33.22    3.72
  -9  -3  12   30.50    4.01
  -9   3 -12   27.35    3.77
  -9   3 -12   32.43    3.69
   3  -9  12   29.76    3.53
  -9  -3  12   26.60    4.09
  -3  -9 -12   30.68    4.09
  -9   3 -13   15.36    2.69
  -9  -3  13   17.44    3.57
  -9  -3  13   12.96    3.89
   9  -3 -13   16.45    3.15
  -9   3 -13   13.86    3.46
  -3  -9 -13   15.16    2.67
  -9  -3  13   15.60    3.04
  -9   3 -13   13.98    2.91
  -3  -9 -13   13.56    2.94
  -9  -3  13   19.25    3.27
  -9  -3  13   17.39    3.40
   3  -9  13   13.78    2.68
  -3  -9 -13   14.49    2.99
  -9  -3  14  134.28    9.45
   9  -3 -14  147.76    8.68
   3  -9  14  150.39    8.41
  -9  -3  14  146.89    8.78
  -9  -3  14  129.76    8.41
  -3  -9 -14  147.78    9.17
  -9   3 -14  147.68    8.71
  -9   3 -14  149.15    8.28
  -9  -3  14  141.25    9.48
  -3  -9 -14  136.82    8.80
  -9  -3  15  151.18   10.25
   9  -3 -15  172.26    9.48
  -9  -3  15  170.83    9.54
  -9  -3  15  155.73    9.28
   3  -9  15  177.74    8.37
  -3  -9 -15  163.21    9.81
   3  -9  15  175.41    9.26
  -9   3 -15  170.48    9.56
  -9  -3  15  169.26   10.50
  -3  -9 -15  173.39    9.85
  -9   3 -15  179.51    9.23
  -9  -3  16   40.62    5.00
   3   9 -16   34.71    4.26
   9  -3 -16   39.39    4.33
  -9  -3  16   45.44    4.57
   3  -9  16   35.81    3.30
  -3  -9 -16   32.61    4.32
  -9  -3  16   35.57    4.09
  -9  -3  16   34.80    4.56
  -3  -9 -16   36.31    4.24
  -9   3 -16   38.52    4.02
  -9  -3  17   26.15    4.03
   3   9 -17   30.84    3.95
   9  -3 -17   28.07    3.65
  -9  -3  17   30.49    3.76
  -3  -9 -17   26.24    3.76
  -9  -3  17   25.23    3.45
  -9  -3  17   26.80    4.05
  -9   3 -17   29.25    3.49
  -3  -9 -17   24.55    3.48
  -9  -3  18   46.70    5.10
   3   9 -18   38.71    4.35
   9  -3 -18   36.34    4.08
  -9  -3  18   42.92    4.41
  -9  -3  18   31.61    3.82
  -3  -9 -18   37.44    4.47
  -9  -3  18   44.41    5.12
  -3  -9 -18   39.70    4.19
  -9   3 -18   40.84    4.06
  -9  -3  19  270.09   13.70
   3   9 -19  299.39   13.12
   9  -3 -19  260.68   12.15
  -9  -3  19  273.20   12.30
  -3  -9 -19  252.91   12.72
  -9  -3  19  278.66   13.71
  -3  -9 -19  246.08   12.02
  -9   3 -19  272.69   12.14
  -9  -3  20  136.79    8.82
   3   9 -20  121.57    7.74
   9  -3 -20  116.51    7.31
  -9  -3  20  126.82    7.48
  -3  -9 -20  119.94    7.87
   3  -9  20  124.36    7.21
  -9  -3  20  132.15    8.76
  -9   3 -20  131.38    7.45
   3   9 -21   44.22    4.38
  -9  -3  21   46.93    4.99
   9  -3 -21   38.43    3.90
  -9  -3  21   47.17    4.22
  -3  -9 -21   39.71    4.33
   3  -9  21   45.25    4.07
  -9  -3  21   42.63    4.87
  -9   3 -21   44.17    4.10
  -9  -3  22   68.02    5.90
   3   9 -22   66.08    5.31
   9  -3 -22   60.96    4.95
  -9  -3  22   69.70    5.07
   3  -9  22   70.44    4.97
  -3  -9 -22   62.61    5.29
  -9  -3  22   74.35    6.11
  -9   3 -22   71.34    5.15
  -9  -3  23   21.58    3.45
   3   9 -23   19.95    2.95
   9  -3 -23   19.54    2.87
  -9  -3  23   23.58    2.85
   3  -9  23   26.41    2.92
  -3  -9 -23   24.74    3.23
  -9  -3  23   22.52    3.58
  -9   3 -23   24.49    3.03
  -9   3 -24   12.39    2.28
  -9  -3  24    7.43    2.32
   3   9 -24   12.38    2.40
   9  -3 -24   10.60    2.18
  -9  -3  24   13.01    2.11
  -3  -9 -24    7.82    2.01
  -9  -3  24    9.64    2.51
   3  -9  24   12.10    2.08
  -9  -3  25   56.86    5.04
   3   9 -25   71.99    5.05
   9  -3 -25   55.07    4.45
  -9  -3  25   63.69    4.33
  -3  -9 -25   58.34    4.57
   3  -9  25   71.97    4.58
  -9  -3  25   71.45    5.58
  -9   3 -25   70.08    4.81
  -9  -3  26   24.45    3.13
   3   9 -26   35.53    3.34
   9  -3 -26   24.65    2.85
  -3  -9 -26   27.48    2.99
  -9  -3  26   32.06    2.77
  -9   3 -26   31.50    3.10
  -9  -3  27   41.90    3.86
   3   9 -27   48.47    3.77
  -3  -9 -27   43.79    3.52
  -9  -3  27   40.73    2.93
  -9  -3  28    3.12    1.36
   3   9 -28    2.69    1.20
  -9  -3  29   10.91    1.83
   3   9 -29   16.58    1.95
  -9  -3  30   43.79    3.24
   3   9 -30   54.90    3.25
  -9   4  30   38.84    2.90
  -9   4  29   64.05    4.20
  -9   4  28   38.07    3.41
  -9   4  27   62.30    4.04
  -9   4  27   77.16    5.11
   4  -9 -27   77.36    5.05
  -9   4  26   35.59    3.04
  -9   4  26   35.77    3.63
   4  -9 -26   31.95    3.50
  -9   4  25   91.80    5.57
  -9   4  25  100.52    6.41
   4  -9 -25   94.55    6.23
  -9   4  24   22.16    2.73
  -9   4  24   20.97    3.18
   4  -9 -24   27.93    3.42
  -9   4  23   28.21    3.30
  -4   9 -23   23.93    2.66
   9   4 -23   26.21    2.74
  -9   4  23   29.80    3.70
  -9  -4 -23   24.09    2.97
   4  -9 -23   26.88    3.56
  -9   4  22  122.32    7.26
  -4   9 -22  119.30    6.53
   9   4 -22  117.96    6.42
  -9   4  22  129.03    8.05
  -9  -4 -22  113.16    6.77
   4  -9 -22  127.35    7.94
  -4   9 -22  112.15    5.57
  -4   9 -21    2.91    1.15
  -9   4  21    1.12    1.42
  -4   9 -21    2.13    1.36
   9   4 -21    2.34    1.37
  -9  -4 -21    1.65    1.42
  -9   4  21    1.64    1.93
   4  -9 -21    3.20    1.89
  -9   4  20   75.92    5.74
  -4   9 -20   69.43    5.03
   9   4 -20   74.97    5.11
  -9   4  20   72.18    6.25
  -9  -4 -20   68.97    5.36
  -4   9 -20   67.53    4.35
   4  -9 -20   84.44    6.55
  -9   4  19   65.63    5.47
  -4   9 -19   55.02    4.64
   9   4 -19   64.33    4.80
  -9  -4 -19   57.42    5.06
  -9   4  19   65.88    6.01
  -4   9 -19   68.86    4.43
   4  -9 -19   68.21    6.07
  -9   4  18   53.09    4.93
  -4   9 -18   58.76    4.67
   9   4 -18   50.61    4.37
  -9   4  18   58.97    5.64
  -9  -4 -18   47.92    4.67
  -4   9 -18   50.65    3.96
   4  -9 -18   65.42    5.93
  -4   9 -17   21.65    2.98
  -9   4  17   21.01    3.29
   9   4 -17   22.73    3.04
  -4   9 -17   19.15    2.32
  -9  -4 -17   25.97    3.45
  -9   4  17   17.63    3.42
   4  -9 -17   24.89    3.89
  -4   9 -17   21.18    2.64
  -4   9 -16   22.92    3.19
  -9   4  16   21.49    3.32
   9   4 -16   19.87    2.92
  -4   9 -16   19.31    2.52
  -9  -4 -16   17.62    3.03
  -9   4  16   26.14    4.16
  -4   9 -16   22.59    2.82
   4  -9 -16   22.47    3.79
  -9   4  15   89.19    6.73
  -4   9 -15   80.32    5.95
   9   4 -15   91.12    6.10
  -4   9 -15   95.46    5.84
  -9   4  15   89.95    7.37
  -9  -4 -15   93.85    6.70
   4  -9 -15   97.91    7.47
  -4   9 -15   93.65    5.84
  -4   9 -14  111.92    7.17
  -9   4  14  113.42    7.83
   9   4 -14  125.91    7.37
  -4   9 -14  109.80    6.71
  -9   4  14  134.82    8.99
  -4   9 -14  109.39    6.67
   9  -4  14  128.75    6.85
   4  -9 -14  126.92    8.61
  -9   4  13   26.18    3.75
  -4   9 -13   26.02    3.34
   9   4 -13   25.97    3.35
  -4   9 -13   25.12    3.10
  -9   4  13   32.03    4.48
  -4   9 -13   26.14    3.15
   9  -4  13   22.63    2.91
   4  -9 -13   25.57    3.94
  -4   9 -12   16.49    2.67
  -9   4  12   19.29    3.25
   9   4 -12   14.21    2.68
  -9   4  12   16.20    3.43
   9  -4  12   16.62    2.59
   4  -9 -12   22.33    3.78
  -9   4  11   55.00    5.30
   4  -9 -11   56.46    4.78
   9   4 -11   62.08    5.12
  -9   4  11   53.38    5.72
  -9  -4 -11   51.74    4.58
   9  -4  11   56.39    4.69
   4  -9 -11   45.32    4.01
   4  -9 -11   60.34    5.80
  -4   9 -11   54.93    4.77
  -9   4  10   67.01    5.92
  -9   4  10   66.79    8.54
   9  -4  10   75.27    9.52
  -9   4  10   72.60    8.08
   4  -9 -10   68.42    5.36
  -9  -4 -10   66.09    8.02
   9   4 -10   68.94    5.52
  -9   4  10   72.09    6.59
  -9  -4 -10   76.33    5.58
  -4   9 -10   70.68    5.50
   4  -9 -10   57.24    4.74
   9  -4  10   75.82    5.53
   4  -9 -10   73.11    6.37
  -9   4   9   52.13    5.08
   9  -4   9   47.49    7.48
  -9   4   9   55.36    7.15
   4  -9  -9   52.24    4.74
  -9  -4  -9   39.02    6.68
   9   4  -9   51.79    4.78
  -9   4   9   52.67    5.57
  -9  -4  -9   43.70    4.24
   4  -9  -9   42.45    4.09
   9  -4   9   53.96    4.78
  -4   9  -9   53.62    4.79
   4  -9  -9   50.54    5.33
  -9   4   8   85.19    6.50
   9  -4   8   86.73    9.89
  -9   4   8   75.87    8.41
  -9  -4  -8   62.67    8.05
   4  -9  -8   67.69    5.63
   9   4  -8   73.05    5.80
  -9   4   8   84.56    6.92
  -9  -4  -8   66.04    5.26
  -4   9  -8   75.13    5.87
   4  -9  -8   69.75    5.24
   9  -4   8   65.71    5.43
   4  -9  -8   70.24    6.20
  -9   4   7  100.73    7.24
   9  -4   7  105.25   11.03
  -9   4   7  112.45   10.43
  -9  -4  -7   75.41    9.25
   4  -9  -7   94.37    6.68
   9   4  -7   97.20    6.82
  -4  -9   7   94.21    6.75
  -9   4   7   99.45    7.63
  -9  -4  -7   86.62    6.16
  -4   9  -7  107.32    7.12
   4  -9  -7   98.97    6.46
   9  -4   7  102.35    6.83
   4  -9  -7   99.57    7.38
   9  -4   6  158.62   13.71
  -9   4   6  178.87    9.92
  -9   4   6  158.42   12.64
  -9  -4  -6  148.41   12.86
   4  -9  -6  155.47    9.06
   9   4  -6  166.55    9.29
  -4  -9   6  173.99    9.47
  -9   4   6  175.14   10.18
  -9  -4  -6  147.11    8.53
   9  -4   6  160.78    9.11
   4  -9  -6  149.71    8.57
   4  -9  -6  161.81    9.75
   9  -4   5  109.96   11.28
  -9   4   5  120.33    7.92
  -9   4   5  104.62   10.48
  -9  -4  -5   93.82   10.55
   4  -9  -5  103.87    7.21
   9   4  -5  114.64    7.50
  -9  -4  -5  108.05    6.98
  -4  -9   5  122.45    7.74
  -9   4   5  117.27    8.10
   4  -9  -5  122.64    7.35
  -9   4   5   96.19    6.15
   9  -4   5  110.71    7.39
   4  -9  -5  114.05    7.75
  -9   4   4   12.63    2.25
  -9   4   4   15.46    3.01
   9  -4   4   17.67    4.96
  -9  -4  -4   14.94    4.72
   9   4  -4   18.32    3.35
  -9   4   4   13.77    4.14
  -4  -9   4   11.97    3.09
  -9  -4  -4   16.56    2.88
  -9  -4  -4   11.55    2.50
  -9   4   4   17.13    3.33
   4  -9  -4   14.64    2.69
   9  -4   4   18.27    3.11
   4  -9  -4   13.43    2.81
   9  -4   3   36.75    6.31
  -9   4   3   27.83    3.73
  -9  -4  -3   34.59    6.35
  -9   4   3   21.74    4.96
  -9  -4  -3   33.86    3.90
  -9  -4  -3   27.82    3.54
  -9   4   3   31.04    4.11
  -4  -9   3   31.53    3.93
  -9  -4  -3   31.03    3.75
  -9   4   3   23.34    2.99
   4  -9  -3   39.05    3.97
   9  -4   3   35.98    4.20
   4  -9  -3   30.22    3.91
   9  -4   2   23.71    5.20
  -9   4   2   26.50    3.63
  -9   4   2   21.28    5.02
  -9   4   2   30.49    4.10
  -4  -9   2   25.00    3.75
  -9  -4  -2   23.22    3.38
  -9  -4  -2   21.35    3.19
  -9  -4  -2   27.14    3.69
  -9   4   2   27.82    3.12
   4  -9  -2   25.71    3.44
   9  -4   2   26.11    3.76
   4  -9  -2   29.27    3.68
  -9  -4  -1   13.23    3.21
  -9   4   1   23.63    3.49
   9  -4   1   16.87    4.93
   4  -9  -1   17.90    3.38
  -9   4   1   15.89    4.42
  -9   4   1   27.71    3.87
  -9  -4  -1   20.97    3.30
  -9  -4  -1   18.68    3.22
  -4  -9   1   15.32    3.21
  -9  -4  -1   20.82    3.57
  -9   4   1   22.81    3.01
   4  -9  -1   18.87    3.13
   9  -4   1   16.10    3.22
   4  -9  -1   15.30    3.14
   9  -4   0  373.08   21.71
  -9  -4   0  338.90   16.25
  -9   4   0  356.74   16.08
  -9   4   0  371.83   21.29
  -9  -4   0  345.23   21.23
   4  -9   0  391.66   16.26
  -9  -4   0  344.84   15.60
  -9   4   0  396.30   16.57
  -4  -9   0  412.33   16.51
  -9  -4   0  367.00   15.88
  -9   4   0  354.75   14.84
   4  -9   0  391.66   15.97
   9  -4   0  379.97   16.64
   4  -9   0  351.31   15.49
  -9   4  -1   18.62    2.76
  -9   4  -1   16.62    3.04
  -9  -4   1   11.04    2.93
   9  -4  -1   29.67    5.74
  -9  -4   1    7.63    4.07
   4  -9   1   16.31    3.05
  -9  -4   1   17.80    3.23
  -4  -9  -1   24.51    3.98
  -9  -4   1   14.95    2.99
  -9   4  -1   17.57    3.08
   4  -9   1   17.40    2.93
   9  -4  -1   20.04    3.34
   4  -9   1   18.46    2.93
  -9   4  -2   20.79    3.26
  -9  -4   2   23.66    3.64
   9  -4  -2   24.16    5.16
  -9  -4   2   23.47    5.38
   4  -9   2   21.36    3.39
  -9  -4   2   26.31    3.61
  -9  -4   2   21.54    3.26
  -9   4  -2   28.97    3.77
  -9   4  -2   25.38    3.59
  -9   4  -2   25.20    3.19
   4  -9   2   29.71    3.68
   9  -4  -2   21.94    3.65
   4  -9   2   19.20    2.85
   9  -4  -3   43.57    6.53
  -9  -4   3   30.12    4.08
  -9  -4   3   31.59    6.17
   4  -9   3   31.88    3.99
  -9   4  -3   33.36    5.97
  -9  -4   3   33.95    4.17
  -9  -4   3   31.03    3.69
  -9   4  -3   33.43    4.07
  -9   4  -3   34.04    4.01
   4  -9   3   32.54    3.88
   9  -4  -3   32.29    4.35
   4  -9   3   33.57    3.59
  -9   4  -3   33.23    3.55
  -9   4  -4   17.69    2.83
  -9  -4   4   15.51    3.19
   9  -4  -4   12.36    3.63
  -9  -4   4   12.56    4.64
   9  -4  -4   17.57    4.17
   4  -9   4   16.16    3.09
  -9   4  -4   16.90    4.79
  -9  -4   4   13.29    3.08
  -4  -9  -4    9.54    2.84
  -9  -4   4   11.04    2.57
  -9   4  -4   19.00    3.06
  -9   4  -4   18.64    3.13
   4  -9   4   14.80    2.82
   9  -4  -4   15.51    3.08
   4  -9   5  129.98   10.79
  -9  -4   5   90.33    7.55
  -9   4  -5   94.83   10.06
  -9  -4   5   97.47   10.51
   4  -9   5  112.34    7.48
   9  -4  -5  125.15    8.15
  -9  -4   5  107.28    7.16
  -9   4  -5  118.49    7.54
  -9   4  -5  118.73    7.64
  -4  -9  -5  115.42    7.66
   4  -9   5  126.48    7.68
  -9   4  -5  121.14    7.19
   4  -9   6  161.70   12.49
  -9  -4   6  145.05    9.49
  -9   4  -6  154.93   12.82
  -9  -4   6  153.02   13.07
   4  -9   6  163.57    9.14
   9  -4  -6  168.40    9.42
  -9   4  -6  156.62    9.06
  -9   4  -6  164.41    9.09
  -9  -4   6  142.71    8.62
  -4  -9  -6  165.70    9.38
   4  -9   6  170.47    9.27
  -9   4  -6  166.06    8.75
   4  -9   7   95.03    9.28
  -9  -4   7   97.08    7.46
  -9   4  -7   85.10    9.20
  -9  -4   7   91.21    9.82
   4  -9   7   95.59    6.62
   9  -4  -7  100.04    7.02
  -9   4  -7   94.52    6.69
  -9   4  -7  107.09    6.95
  -9  -4   7   81.64    6.17
  -4  -9  -7  112.50    7.24
   4  -9   7  103.01    6.89
  -9   4  -7   96.85    6.44
  -9  -4   8   71.83    6.40
  -9   4  -8   77.44    8.55
  -9  -4   8   63.95    8.40
   4  -9   8   74.20    5.68
   9  -4  -8   79.57    6.03
  -9   4  -8   71.05    5.64
  -9  -4   8   60.16    5.15
  -4  -9  -8   75.11    5.89
  -9   4  -8   79.37    6.05
  -9  -4   8   70.07    6.02
   4  -9   8   69.69    5.67
  -9   4  -8   75.61    5.62
  -9  -4   9   44.18    5.08
  -9   4  -9   52.28    7.16
   4  -9   9   49.51    4.61
  -9  -4   9   47.90    7.14
   9  -4  -9   53.38    4.90
  -9   4  -9   51.16    4.73
  -9  -4   9   43.97    4.79
  -9  -4   9   40.66    4.24
  -9   4  -9   50.50    4.75
  -9  -4   9   47.35    5.02
   4  -9   9   49.40    4.61
  -9   4  -9   55.60    4.69
  -9  -4  10   76.68    6.48
  -9   4 -10   69.69    8.07
   4  -9  10   60.23    5.00
  -9  -4  10   53.99    7.61
   9  -4 -10   71.39    5.59
  -9   4 -10   71.98    5.59
  -9  -4  10   68.80    6.00
  -9  -4  10   58.55    5.02
  -9   4 -10   73.33    5.75
  -9  -4  10   63.11    5.99
   4  -9  10   79.05    5.78
  -9   4 -10   66.47    5.26
  -9  -4  11   53.20    5.44
   9  -4 -11   51.57    4.81
  -9   4 -11   55.14    4.82
  -9  -4  11   56.36    5.32
  -9   4 -11   56.63    5.12
  -9  -4  11   45.82    5.00
   4  -9  11   55.81    4.90
  -9   4 -11   50.04    4.58
  -9   4 -12   18.62    2.85
  -9  -4  12   18.59    3.47
   9  -4 -12   17.78    3.04
  -9  -4  12   15.57    3.21
  -9   4 -12   18.32    3.02
  -9  -4  12   16.83    3.10
   4  -9  12   18.68    3.01
  -9  -4  13   17.25    3.51
   9  -4 -13   23.05    3.27
  -4   9  13   27.92    3.29
  -9  -4  13   23.69    3.70
  -9   4 -13   28.30    3.69
  -9   4 -13   25.24    3.32
  -9  -4  13   26.30    3.88
  -9  -4  14  127.04    8.50
   4   9 -14  127.07    7.87
   9  -4 -14  114.02    7.26
  -4   9  14  129.51    7.31
  -9  -4  14  134.46    8.19
  -4  -9 -14  108.39    7.99
  -9   4 -14  122.88    7.64
  -9  -4  14  108.92    8.08
  -9   4 -14  127.45    7.50
  -9  -4  15   97.30    7.30
   4   9 -15   93.81    6.58
   9  -4 -15   87.10    6.16
  -4   9  15   94.27    5.97
  -9  -4  15  107.26    7.12
  -4  -9 -15   94.45    7.31
  -9  -4  15   88.57    6.97
  -9   4 -15   96.25    6.39
  -9  -4  16   18.51    3.29
   4   9 -16   22.19    3.22
   9  -4 -16   19.77    3.00
  -9  -4  16   23.08    3.40
  -4  -9 -16   20.99    3.67
  -9   4 -16   20.51    3.00
  -9  -4  16   19.16    3.46
   4   9 -17   24.37    3.23
  -9  -4  17   19.66    3.35
   9  -4 -17   21.15    3.07
   4  -9  17   22.26    3.07
  -9  -4  17   22.37    3.50
  -4  -9 -17   20.26    3.41
  -9  -4  17   20.60    3.56
  -9   4 -17   21.62    3.01
  -9  -4  18   54.92    5.18
   4   9 -18   56.21    4.82
   9  -4 -18   54.21    4.51
  -9  -4  18   53.54    4.90
  -4  -9 -18   48.72    5.10
   4  -9  18   55.26    4.59
  -9  -4  18   56.22    5.39
  -9   4 -18   58.83    4.73
  -9  -4  19   64.24    5.60
   4   9 -19   64.95    5.18
   9  -4 -19   59.45    4.79
  -9  -4  19   80.03    5.66
   4  -9  19   67.90    5.06
  -4  -9 -19   62.12    5.68
  -9  -4  19   72.73    6.06
  -9   4 -19   77.29    5.35
  -9  -4  20   76.35    6.05
   4   9 -20   79.48    5.58
   9  -4 -20   67.61    5.04
  -9  -4  20   84.32    5.68
  -4  -9 -20   69.26    5.89
   4  -9  20   74.64    5.16
  -9  -4  20   75.64    6.11
  -9   4 -20   79.78    5.43
  -9   4 -21    2.62    1.61
  -9  -4  21    1.64    1.61
   4   9 -21    2.34    1.61
   9  -4 -21    0.51    1.39
  -9  -4  21    1.97    1.74
  -4  -9 -21   -0.48    1.48
  -9  -4  21    3.79    2.15
   4  -9  21    1.59    1.30
  -9  -4  22  107.54    7.10
   4   9 -22  122.41    6.85
   9  -4 -22  103.04    6.30
  -9  -4  22  139.08    7.15
   4  -9  22  126.70    6.64
  -4  -9 -22  108.41    7.16
  -9  -4  22  115.64    7.53
  -9   4 -22  129.10    6.91
  -9  -4  23   27.07    3.22
   4   9 -23   30.88    3.15
   9  -4 -23   24.13    2.68
  -9  -4  23   30.72    3.20
  -4  -9 -23   25.69    3.39
   4  -9  23   33.28    3.05
  -9  -4  23   24.93    3.48
  -9  -4  24   20.33    2.61
   4   9 -24   20.75    2.51
   4  -9  24   19.61    2.34
  -9  -4  24   19.88    2.52
  -4  -9 -24   15.47    2.68
  -9  -4  24   18.45    2.92
   4   9 -25   83.59    5.08
  -9  -4  25  102.40    5.47
  -4  -9 -25   84.42    5.57
   4  -9  25   97.90    5.23
  -9  -4  25   94.14    6.11
   4   9 -26   30.56    2.71
  -9  -4  26   32.41    2.79
  -9  -4  26   27.30    3.18
   4   9 -27   67.59    3.94
  -9  -4  27   65.41    3.84
  -9  -4  27   75.10    4.94
  -9  -4  28   25.60    2.04
   9  -4 -28   27.18    2.56
  -9  -4  29   67.79    4.22
   9  -4 -29   47.58    3.34
  -9  -4  30   38.07    2.83
   5  -9 -29    1.98    0.80
  -9   5  28    1.89    0.92
   5  -9 -28    2.62    0.99
  -9   5  27   55.22    3.82
   5  -9 -27   66.63    4.15
  -9   5  26   82.19    5.06
   5  -9 -26   94.23    5.39
  -9   5  25   17.63    2.55
   5  -9 -25   22.89    2.78
  -9   5  24   72.64    5.02
  -5   9 -24   65.66    3.50
   5  -9 -24   71.67    5.08
  -5   9 -23    5.90    1.26
   5  -9 -23    6.55    2.08
  -5   9 -22   11.20    1.60
  -9   5  22   11.15    2.32
   5  -9 -22    8.50    2.28
  -9   5  21   42.50    4.45
  -5   9 -21   50.67    3.47
   5  -9 -21   57.60    4.92
  -9   5  20  275.23   12.73
  -5   9 -20  268.05   10.81
   5  -9 -20  290.49   13.00
  -9   5  19   48.04    4.83
  -5   9 -19   53.02    3.89
   5  -9 -19   56.96    5.16
  -9   5  18  103.06    7.18
  -5   9 -18   97.58    5.69
   5  -9 -18  108.63    7.33
  -9   5  17   59.80    5.34
   9  -5  17   51.68    3.76
  -5   9 -17   57.76    4.24
   5  -9 -17   55.96    5.26
  -5   9 -16   16.23    2.15
  -9   5  16   19.97    3.46
   9  -5  16   22.07    2.53
  -5   9 -16   21.98    2.67
   5  -9 -16   16.62    3.13
  -9   5  15   40.04    3.90
  -5   9 -15   35.55    3.33
  -9   5  15   39.09    4.51
   9  -5  15   37.31    3.40
  -5   9 -15   41.81    3.75
   5  -9 -15   49.11    4.83
  -5   9 -14    3.29    1.77
  -9   5  14    2.37    1.39
  -5   9 -14    2.54    1.39
  -9   5  14    4.19    2.14
   9  -5  14    2.68    1.40
   5  -9 -14    0.82    1.86
  -9   5  13  171.51    9.26
  -5   9 -13  176.74    8.92
  -9   5  13  189.42   10.50
  -5   9 -13  182.00    9.09
   9  -5  13  183.68    8.93
   5  -9 -13  184.65   10.30
  -5   9 -12   29.55    3.38
  -9   5  12   35.02    3.85
   5  -9 -12   43.61    3.96
  -5   9 -12   29.51    3.44
  -9   5  12   38.55    4.47
  -5   9 -12   41.44    3.92
   9  -5  12   35.64    3.59
   5  -9 -12   31.69    3.36
   5  -9 -12   34.74    4.26
  -5   9 -11   88.36    5.92
  -9   5  11  112.41    7.10
   5  -9 -11  112.41    6.79
  -5   9 -11  105.68    6.66
  -9   5  11  117.74    7.88
   9  -5  11  105.01    6.52
   5  -9 -11   92.30    6.16
  -5   9 -11  111.88    6.87
   5  -9 -11  108.82    7.52
  -5   9 -10   28.69    3.35
  -9   5  10   32.85    3.79
   5  -9 -10   31.98    3.71
  -5   9 -10   41.00    4.07
  -9   5  10   36.75    4.46
   9  -5  10   37.83    3.85
   5  -9 -10   36.71    3.73
  -5   9 -10   34.37    3.81
   5  -9 -10   31.56    4.09
  -9   5   9   59.73    5.19
   5  -9  -9   77.60    5.72
  -5   9  -9   68.87    5.53
  -9   5   9   77.99    6.30
  -5   9  -9   79.64    5.80
   9  -5   9   72.57    5.51
   5  -9  -9   68.84    5.31
   5  -9  -9   66.03    5.74
  -9   5   8   36.13    3.97
   5  -9  -8   44.12    4.36
  -5   9  -8   48.65    4.61
  -9   5   8   31.97    4.24
   5  -9  -8   36.17    3.94
   9  -5   8   43.53    4.33
  -5   9  -8   43.04    4.38
   5  -9  -8   41.40    4.36
  -9   5   8   28.20    3.18
  -9   5   7   14.67    2.42
  -5   9  -7   21.12    3.20
  -9   5   7   21.79    3.12
   5  -9  -7   19.29    3.14
  -5   9  -7   18.66    3.06
  -9   5   7   23.91    3.47
   9  -5   7   20.68    3.17
   5  -9  -7   20.92    3.05
   5  -9  -7   19.02    3.10
  -9   5   6   70.34    5.48
   5  -9  -6   66.10    5.50
  -5   9  -6   74.53    5.77
  -9   5   6   71.07    5.88
  -5   9  -6   71.06    5.78
   5  -9  -6   65.88    5.35
   9  -5   6   66.07    5.46
   5  -9  -6   62.42    5.42
  -9   5   6   44.57    4.27
  -9   5   5   30.18    3.66
   5  -9  -5   34.34    4.06
  -9   5   5   32.83    4.09
  -5   9  -5   31.55    4.11
   5  -9  -5   27.39    3.55
   9  -5   5   29.52    3.72
  -9   5   5   26.70    3.17
   5  -9  -5   31.36    3.81
  -9   5   4   45.32    4.45
  -9  -5  -4   42.83    7.02
  -9   5   4   37.73    6.23
  -9   5   4   44.13    4.62
   5  -9  -4   47.23    4.62
   9  -5   4   48.52    4.70
  -9   5   4   41.73    4.00
   5  -9  -4   43.09    4.31
   9  -5   3   68.43    8.78
  -9   5   3   65.34    5.37
  -9   5   3   63.10    8.11
  -9  -5  -3   58.21    8.14
  -9   5   3   74.11    5.93
  -9  -5  -3   68.88    5.47
   5  -9  -3   64.66    5.44
   9  -5   3   75.00    6.04
  -9   5   3   66.06    5.15
   5  -9  -3   61.44    5.25
   9  -5   2  121.09   12.00
  -9   5   2  123.37    7.67
  -9   5   2  113.66   10.99
  -9   5   2  138.11    8.17
  -9  -5  -2  111.48    7.42
   5  -9  -2  122.15    7.78
   9  -5   2  129.05    8.26
  -9   5   2  129.90    7.47
   5  -9  -2  123.20    7.45
   9  -5   1  391.72   22.31
  -9   5   1  335.88   20.44
   5  -9  -1  370.74   16.01
  -9   5   1  398.65   16.11
  -9   5   1  364.81   15.59
  -9  -5  -1  391.14   15.91
   5  -9  -1  383.57   16.03
  -9   5   1  361.76   15.03
   9  -5   1  376.41   16.43
   5  -9  -1  328.40   14.74
   9  -5   0  100.36   10.72
  -9   5   0   99.31   10.22
   5  -9   0   96.19    6.91
  -9  -5   0   70.70    9.76
   9  -5   0   79.10    6.59
  -9   5   0   89.67    6.51
  -9   5   0   89.13    6.45
  -9  -5   0   91.85    6.55
  -9   5   0   89.33    6.23
   5  -9   0   93.89    6.70
   9  -5   0   90.62    6.94
   9  -5  -1  374.87   21.98
   5  -9   1  383.39   16.24
  -9  -5   1  359.67   21.84
   9  -5  -1  354.99   15.40
  -9   5  -1  366.68   15.64
  -9   5  -1  372.27   15.72
  -9  -5   1  387.84   16.09
  -9   5  -1  366.40   15.28
   5  -9   1  378.61   16.07
   9  -5  -1  374.65   16.65
   9  -5  -2  126.63   11.81
  -9  -5   2  100.47    7.26
   5  -9   2  124.58    7.94
  -9  -5   2  121.21   11.77
   9  -5  -2  116.17    7.54
  -9  -5   2  128.58    7.94
  -9   5  -2  130.01    7.76
  -9   5  -2  134.20    7.81
  -9   5  -2  130.69    7.59
   5  -9   2  124.10    7.85
   9  -5  -2  130.03    8.55
  -9  -5   3   51.78    5.12
  -9   5  -3   58.84    7.94
   5  -9   3   69.63    5.79
  -9  -5   3   58.43    8.47
   9  -5  -3   63.70    5.24
  -9  -5   3   60.38    5.46
  -9   5  -3   62.39    5.18
  -9   5  -3   71.91    5.45
  -9   5  -3   73.85    5.45
   5  -9   3   83.03    6.03
   9  -5  -3   72.84    6.18
  -9  -5   4   37.05    4.17
  -9  -5   4   43.02    7.00
   5  -9   4   45.81    4.59
  -9   5  -4   32.91    5.88
   9  -5  -4   42.10    4.21
  -9   5  -4   42.23    4.26
  -9  -5   4   46.33    4.72
  -9   5  -4   43.72    4.21
  -9   5  -4   40.97    4.10
   5  -9   4   40.59    4.35
   9  -5  -4   46.98    5.03
  -9  -5   5   21.05    3.36
   5  -9   5   29.95    3.80
   9  -5  -5   27.91    3.34
  -9  -5   5   31.00    3.96
  -9   5  -5   29.19    3.46
  -9   5  -5   29.47    3.55
   5  -9   5   31.57    3.82
   9  -5  -5   29.12    4.03
  -9   5  -5   33.18    3.70
  -9  -5   6   53.75    5.11
   5  -9   6   71.81    5.59
  -5   9   6   66.35    5.54
   9  -5  -6   54.39    4.70
  -9   5  -6   67.47    5.15
  -9  -5   6   66.18    5.66
  -9   5  -6   68.59    5.35
   5  -9   6   74.89    5.69
   9  -5  -6   61.78    5.93
  -9   5  -6   72.09    5.37
  -9   5  -7   20.63    3.07
  -9  -5   7   20.02    3.14
   5  -9   7   14.37    2.91
  -5   9   7   23.10    3.27
   9  -5  -7   22.85    2.98
  -9  -5   7   25.16    3.72
  -9   5  -7   19.46    2.81
  -9   5  -7   22.24    3.19
   5  -9   7   15.54    2.85
   9  -5  -7   20.99    3.60
  -9  -5   8   28.86    3.95
   5  -9   8   38.42    4.08
  -5   9   8   36.67    4.12
   9  -5  -8   33.10    3.63
  -9   5  -8   42.49    3.94
  -9   5  -8   46.97    4.32
   5  -9   8   38.21    4.18
   9  -5  -8   39.24    4.68
  -9   5  -8   40.70    4.06
  -9  -5   9   56.66    5.30
   9  -5  -9   60.14    4.86
   5  -9   9   67.08    5.26
  -5   9   9   78.77    5.79
  -9   5  -9   64.41    4.94
  -9   5  -9   66.50    5.30
   5  -9   9   71.96    5.55
   9  -5  -9   61.59    5.94
  -9   5  -9   77.98    5.52
  -9  -5  10   22.86    3.55
   5  -9  10   34.81    3.73
   9  -5 -10   25.93    3.20
  -5   9  10   35.01    3.88
  -9   5 -10   37.55    3.86
  -9   5 -10   39.86    3.93
   9  -5 -10   36.53    4.49
   5   9 -11  106.53    6.72
  -9  -5  11   95.30    6.92
   9  -5 -11  105.65    6.39
   5  -9  11  110.52    6.66
  -5   9  11  113.18    6.99
  -9   5 -11  110.79    6.84
  -9  -5  11  104.54    7.17
  -9   5 -11  125.88    7.24
  -9  -5  12   29.23    3.68
   5   9 -12   34.16    3.71
   9  -5 -12   32.31    3.41
   5  -9  12   41.80    3.76
  -5   9  12   39.05    3.84
  -9  -5  12   40.01    4.55
  -9  -5  12   23.49    3.63
  -9   5 -12   41.18    4.04
   5   9 -13  160.06    8.59
  -9  -5  13  155.00    9.04
   9  -5 -13  155.29    8.12
  -5   9  13  180.06    8.87
  -9  -5  13  200.53   10.06
  -9  -5  13  154.75    9.21
  -9   5 -13  187.61    9.14
  -9   5 -14    2.52    1.60
   5   9 -14    0.39    1.32
   9  -5 -14    2.02    1.27
  -5   9  14    3.41    1.48
  -9  -5  14    3.70    2.12
  -9  -5  14    2.24    1.81
   5  -9  14    2.99    1.82
   5   9 -15   37.87    3.57
  -5   9  15   43.47    3.57
  -9  -5  15   44.85    4.43
   5  -9  15   41.72    3.90
  -9  -5  15   36.83    4.11
  -9   5 -15   42.11    3.82
   5   9 -16   18.20    2.60
  -9  -5  16   23.41    3.33
  -9   5 -16   26.46    3.25
  -9  -5  16   14.36    2.92
   5  -9  16   17.75    2.72
   5   9 -17   45.67    4.00
  -9  -5  17   61.85    5.07
   5  -9  17   60.71    4.65
  -9   5 -17   63.33    4.78
  -9  -5  17   47.33    4.72
  -9  -5  18  110.71    6.82
   5  -9  18  104.27    6.18
  -9  -5  18   85.96    6.37
  -9   5 -18  100.07    6.13
  -9  -5  19   56.49    4.83
   5  -9  19   62.89    4.52
  -9   5 -19   65.20    4.68
  -9  -5  20  282.59   12.01
   5  -9  20  273.69   11.29
  -9  -5  20  249.92   11.99
  -9  -5  21   46.67    4.11
   5  -9  21   54.56    3.91
  -9  -5  22   10.31    2.11
  -9  -5  22    7.54    1.94
   5  -9  22   12.48    1.92
   9  -5 -22   10.48    2.36
  -9  -5  23    8.36    1.91
  -9  -5  23    3.83    1.61
   5  -9  23   10.31    1.69
   9  -5 -23   10.98    2.14
   5  -9  24   67.60    4.05
  -9  -5  24   79.87    4.71
  -9  -5  24   65.63    4.63
   9  -5 -24   64.28    4.59
  -9  -5  25   21.69    2.35
   5  -9  25   23.48    2.18
  -9  -5  25   17.33    2.32
   9  -5 -25   16.29    2.23
  -9   5 -25   23.03    2.44
  -9  -5  26   87.35    4.47
  -9  -5  26   70.11    4.48
  -9   5 -26   95.28    4.70
   9  -5 -26   69.29    4.31
  -9  -5  27   55.83    3.19
  -9  -5  27   47.72    3.31
  -9   5 -27   65.98    3.55
   9  -5 -27   39.03    2.86
  -9   5 -28    3.59    0.94
  -9   5 -29    2.73    0.78
   6  -9 -26    2.89    1.03
   6  -9 -25    2.87    1.07
  -9   6  24   13.29    1.79
  -6   9 -24   13.75    1.37
   6  -9 -24   16.88    2.14
  -9   6  23   29.01    2.65
  -6   9 -23   28.50    2.13
   6  -9 -23   28.10    2.85
  -9   6  22   13.95    2.05
  -6   9 -22   16.97    1.72
   6  -9 -22   14.50    2.20
  -9   6  21   38.74    3.50
   6  -9 -21   42.79    3.80
  -6   9 -21   43.10    2.97
  -9   6  20   15.30    2.40
  -6   9 -20   20.55    2.18
   6  -9 -20   20.22    2.72
  -9   6  19   98.43    6.09
   9  -6  19   95.77    4.74
  -6   9 -19  105.37    5.42
   6  -9 -19   99.50    6.24
  -9   6  18   52.40    4.41
   9  -6  18   49.81    3.41
  -6   9 -18   57.99    3.94
   6  -9 -18   53.86    4.53
  -6   9 -17   14.50    2.14
  -9   6  17   14.96    2.45
   9  -6  17   15.65    1.94
   6  -9 -17   14.82    2.61
  -6   9 -16    8.95    1.88
  -9   6  16    8.05    1.92
   9  -6  16    8.39    1.61
   6  -9 -16   10.56    2.20
  -6   9 -15    0.51    1.19
   9  -6  15    0.88    0.97
  -6   9 -15    0.14    1.10
  -9   6  15    0.64    1.37
   9  -6  15    0.46    1.16
   6  -9 -15   -0.86    1.56
   9  -6  14   88.62    5.29
  -6   9 -14   99.46    5.70
  -9   6  14  100.43    6.51
   9  -6  14  110.72    6.01
  -6   9 -14  108.14    6.16
   6  -9 -14   97.08    6.47
  -6   9 -13    5.19    1.77
   6  -9 -13    6.63    1.82
   9  -6  13    5.46    1.54
  -6   9 -13    7.03    1.77
  -9   6  13    3.53    1.83
   9  -6  13    4.88    1.49
   6  -9 -13    3.76    1.46
   6  -9 -13    3.72    1.81
   6  -9 -12   50.13    4.20
   9  -6  12   55.98    4.23
  -6   9 -12   54.07    4.29
  -9   6  12   55.55    4.87
  -6   9 -12   59.36    4.58
   9  -6  12   58.71    4.46
   6  -9 -12   49.92    4.23
   6  -9 -12   52.05    4.63
   6  -9 -11   18.60    2.76
  -6   9 -11   20.54    2.76
  -9   6  11   19.32    2.98
  -6   9 -11   23.23    3.02
   9  -6  11   20.93    2.82
   6  -9 -11   15.68    2.53
   6  -9 -11   19.81    2.96
  -6   9 -10    8.12    2.12
   6  -9 -10    5.38    1.90
  -6   9 -10    8.63    2.01
  -9   6  10    4.28    2.05
   9  -6  10    7.51    1.89
   6  -9 -10    4.95    1.83
   6  -9 -10    4.96    1.89
   6  -9  -9  270.04   11.96
  -6   9  -9  265.46   11.98
  -9   6   9  264.43   12.11
   9  -6   9  268.19   11.98
   6  -9  -9  243.45   11.62
  -6   9  -9  277.41   12.08
   6  -9  -9  248.57   11.74
   6  -9  -8   95.98    6.31
  -6   9  -8   91.23    6.29
  -9   6   8   84.92    6.10
   9  -6   8  100.12    6.44
   6  -9  -8   88.35    6.21
  -6   9  -8   99.17    6.43
   6  -9  -8   90.14    6.05
   6  -9  -7   35.46    4.04
  -6   9  -7   41.05    4.11
  -9   6   7   40.60    4.02
  -6  -9   7   39.09    3.84
  -9   6   7   34.96    3.59
  -6   9  -7   43.68    4.27
   9  -6   7   35.07    3.88
   6  -9  -7   35.46    3.99
   6  -9  -7   37.58    3.78
   6  -9  -6   53.01    4.81
  -6   9  -6   57.38    4.98
  -6  -9   6   53.93    4.39
  -9   6   6   51.72    4.62
  -9   6   6   46.91    4.13
  -6   9  -6   55.56    4.99
   6  -9  -6   52.16    4.74
   9  -6   6   53.74    4.86
   6  -9  -6   46.99    4.21
  -9   6   5   11.39    2.41
  -6   9  -5   11.97    2.65
   6  -9  -5   19.47    3.14
  -6   9  -5   13.68    2.70
  -6  -9   5   13.60    2.34
  -9   6   5   15.81    2.76
   6  -9  -5   11.43    2.68
   9  -6   5   10.72    2.63
  -9   6   4  246.96   11.51
  -6  -9   4  225.20   10.59
   6  -9  -4  269.24   12.24
   9  -6   4  254.44   12.04
  -9   6   4  248.91   11.35
  -6   9  -4  274.18   12.56
  -9   6   3   55.71    4.77
   6  -9  -3   66.58    5.49
   9  -6   3   61.57    5.46
  -6   9  -3   74.59    6.01
  -9   6   3   59.64    4.99
  -9   6   2  265.80   12.26
  -9  -6  -2  297.69   12.71
   6  -9  -2  284.17   13.20
   9  -6   2  287.21   13.35
  -6   9  -2  319.61   14.00
  -9   6   2  274.90   12.40
  -9   6   1   17.22    2.92
   6  -9  -1   14.48    3.14
  -6   9  -1   16.49    3.19
  -9  -6  -1   17.39    3.01
  -9   6   1   13.05    2.57
   6  -9  -1   14.29    2.89
   9  -6   1   15.14    3.09
   6  -9   0  229.59   11.21
  -6   9   0  213.02   10.99
  -9  -6   0  191.68   10.18
   6  -9   0  236.23   11.26
  -9   6   0  215.51   10.36
   9  -6   0  217.51   11.19
  -9   6  -1   19.58    3.01
   6  -9   1   14.42    3.18
  -6   9   1   15.75    3.07
  -9  -6   1   17.72    3.03
   6  -9   1   15.99    2.98
   9  -6  -1   13.42    2.93
   6  -9   2  315.30   13.85
  -6   9   2  289.30   13.59
  -9  -6   2  291.51   13.30
  -9   6  -2  301.84   13.11
   6  -9   2  309.21   13.77
   9  -6  -2  306.79   14.09
   6  -9   3   62.80    5.32
  -6   9   3   62.19    5.51
  -9  -6   3   59.14    5.18
  -9   6  -3   56.55    4.93
   6  -9   3   57.47    5.12
   9  -6  -3   54.44    5.43
   6  -9   4  267.68   12.47
  -6   9   4  271.75   12.70
  -9  -6   4  269.96   12.53
  -9   6  -4  263.56   12.01
   6  -9   4  271.09   12.58
   9  -6  -4  276.32   13.23
  -9   6  -5   14.25    2.66
   6  -9   5   18.34    3.00
  -6   9   5   19.27    3.11
  -9  -6   5   12.75    2.85
   6  -9   5   18.38    3.03
   9  -6  -5   16.94    3.43
   6  -9   6   46.39    4.54
  -6   9   6   51.40    4.80
  -9  -6   6   56.55    5.05
   6  -9   6   55.60    4.79
   9  -6  -6   55.99    5.42
  -9   6  -6   52.23    4.54
   6  -9   7   39.74    4.05
  -6   9   7   36.37    4.00
  -9  -6   7   34.86    4.21
   9  -6  -7   35.76    4.54
  -9   6  -7   45.34    4.14
   6  -9   8   90.43    6.16
  -6   9   8   82.10    6.07
  -9  -6   8   99.34    6.90
   9  -6  -8  101.31    7.18
  -9   6  -8   96.09    6.31
   6  -9   9  260.56   11.62
  -6   9   9  248.22   11.77
  -9  -6   9  267.70   12.46
  -9   6  -9  268.37   11.84
  -9   6 -10    6.72    1.97
   6  -9  10    5.65    1.79
  -6   9  10    5.46    1.83
  -9  -6  10    5.01    2.36
   6  -9  11   22.16    2.87
  -6   9  11   20.95    2.91
   6  -9  11   22.95    3.07
  -9   6 -11   22.42    2.94
   6  -9  12   58.21    4.31
  -6   9  12   57.51    4.55
   6  -9  12   58.79    4.75
  -9   6 -12   56.22    4.58
   9  -6 -13    7.55    1.82
  -6   9  13    4.81    1.61
  -9   6 -13    5.97    1.87
   6  -9  13    5.11    1.91
   9  -6 -13    6.24    2.31
   9  -6 -14   96.09    5.82
  -6   9  14  105.61    5.96
  -9   6 -14   98.22    6.19
   6  -9  14  113.90    6.50
   9  -6 -14  108.61    7.16
  -9   6 -15    2.00    1.44
   9  -6 -15   -1.03    1.27
  -9  -6  15    1.73    1.73
   6  -9  15    1.27    1.32
   9  -6 -15    1.65    1.66
  -9   6 -16   11.94    2.16
  -9  -6  16    7.93    2.34
   6  -9  16   11.05    2.11
   9  -6 -16    7.91    2.13
   6  -9  17   17.73    2.40
  -9  -6  17   13.57    2.54
   9  -6 -17    9.91    2.48
  -9  -6  18   57.08    4.66
   6  -9  18   58.11    4.15
   9  -6 -18   59.13    4.88
  -9  -6  19  104.50    6.21
   6  -9  19  103.76    5.62
   9  -6 -19   93.21    6.15
  -9  -6  20   19.58    2.66
   6  -9  20   23.02    2.35
   9  -6 -20   16.21    2.54
  -9  -6  21   45.59    3.72
   6  -9  21   48.91    3.33
   9  -6 -21   39.63    3.54
  -9  -6  22   19.15    2.33
   6  -9  22   14.98    1.80
   9  -6 -22   10.66    1.90
  -9   6 -22   15.56    2.03
  -9  -6  23   28.68    2.70
   6  -9  23   30.73    2.42
   9  -6 -23   25.28    2.49
  -9   6 -23   29.65    2.57
  -9  -6  24   15.83    1.92
   6  -9  24   18.47    1.71
  -9   6 -24   16.13    1.83
  -9   6 -25    5.80    1.17
  -9  -6  25    3.41    1.03
  -9   6 -26    6.18    1.08
  -9  -6  26    6.04    1.06
  -7  -9  23   10.44    1.42
  -7  -9  22   70.91    3.76
  -7   9 -22   62.76    3.09
  -7  -9  21   21.57    2.28
  -7   9 -21   20.41    1.83
   7  -9 -21   18.63    1.95
  -7  -9  20   74.98    4.32
  -7   9 -20   67.80    3.74
  -7   9 -19    4.25    1.16
  -7  -9  19    4.70    1.46
   9  -7  19    1.97    0.81
   7  -9 -19    3.97    1.25
  -7   9 -18    0.58    1.01
  -7  -9  18    0.86    1.22
   9  -7  18    1.45    0.82
   7  -9 -18    1.41    0.96
  -7  -9  17   74.20    4.80
   9  -7  17   72.91    3.95
  -7   9 -17   75.73    4.38
   7  -9 -17   61.50    4.24
  -7   9 -16    6.05    1.50
  -7  -9  16    3.51    1.73
   9  -7  16    4.95    1.23
   7  -9 -16    3.61    1.30
  -7   9 -15    0.43    1.02
  -7  -9  15    0.17    1.22
   9  -7  15    1.39    1.04
   7  -9 -15   -0.14    0.98
   9  -7  14   29.87    2.49
  -7  -9  14   33.50    3.30
   9  -7  14   31.72    2.85
  -7   9 -14   33.43    3.05
   7  -9 -14   25.70    2.74
   7  -9 -13  110.00    5.94
   9  -7  13  121.67    5.88
  -7  -9  13  135.72    6.95
   9  -7  13  118.05    6.22
   7  -9 -13  106.16    6.06
  -7   9 -13  134.46    6.61
   7  -9 -13  109.38    6.04
  -7   9 -12   13.42    2.21
   7  -9 -12   10.72    1.93
   9  -7  12   11.37    1.88
  -7   9 -12   15.32    2.10
  -7  -9  12    8.98    2.24
   9  -7  12   14.14    2.14
   7  -9 -12   13.72    2.15
   7  -9 -12    5.07    1.48
   7  -9 -11   70.90    4.75
   9  -7  11   66.14    4.47
  -7   9 -11   72.89    4.80
  -7  -9  11   70.87    4.95
   9  -7  11   72.53    4.81
   7  -9 -11   60.89    4.61
  -7   9 -11   74.75    4.95
  -7   9 -10   16.28    2.44
   9  -7  10   19.90    2.47
   7  -9 -10   14.25    2.29
  -7   9 -10   14.49    2.29
  -7  -9  10   11.72    2.37
   9  -7  10   14.56    2.32
   7  -9 -10   12.46    2.27
   7  -9  -9   60.00    4.44
   9  -7   9   51.21    4.09
  -7   9  -9   47.51    4.11
  -7  -9   9   51.51    4.22
  -7   9  -9   51.12    4.21
   9  -7   9   45.83    4.05
   7  -9  -9   44.73    4.05
   7  -9  -8   90.46    5.83
   9  -7   8   91.84    5.75
  -7   9  -8   97.06    5.95
  -7  -9   8   90.12    5.67
  -7   9  -8   93.19    5.90
   9  -7   8   92.66    5.90
   7  -9  -8   87.36    5.84
  -9   7   8   73.71    5.03
   7  -9  -7  135.51    7.37
   9  -7   7  125.25    7.04
  -7   9  -7  131.92    7.34
  -7  -9   7  114.96    6.68
   9  -7   7  124.02    7.12
   7  -9  -7  126.33    7.24
  -7   9  -7  133.06    7.32
  -9   7   7  101.61    6.29
   7  -9  -6   70.01    5.25
   9  -7   6   67.21    5.01
  -7   9  -6   68.70    5.13
  -7  -9   6   53.09    4.36
   9  -7   6   65.66    5.03
   7  -9  -6   62.25    4.99
  -7   9  -6   71.30    5.26
  -9   7   6   57.74    4.46
   7  -9  -5   32.86    3.71
   9  -7   5   33.17    3.61
  -7   9  -5   33.74    3.68
   9  -7   5   32.21    3.59
   7  -9  -5   30.79    3.61
  -7   9  -5   43.21    4.08
  -9   7   5   28.58    3.21
   9  -7   4   97.74    6.36
  -7   9  -4  102.35    6.57
  -7   9  -4   95.18    6.36
   7  -9  -4  110.28    6.75
   9  -7   4   95.21    6.40
  -9   7   4   85.36    5.72
  -7   9  -3   40.98    4.18
   7  -9  -3   35.98    3.85
   9  -7   3   40.53    4.12
  -9   7   3   34.90    3.61
   7  -9  -2   65.54    5.20
   9  -7   2   69.70    5.38
  -9   7   2   58.90    4.67
   7  -9  -1   31.46    3.72
  -7   9  -1   28.81    3.59
   7  -9  -1   30.94    3.62
   9  -7   1   28.16    3.56
  -9   7   1   36.03    3.54
   7  -9   0   41.59    4.13
  -7   9   0   40.30    3.98
  -9  -7   0   29.73    3.31
   7  -9   0   36.71    3.90
  -9   7   0   37.63    3.67
   9  -7   0   33.95    3.81
   7  -9   1   37.41    3.98
  -7   9   1   31.73    3.61
  -9  -7   1   32.30    3.45
  -9   7  -1   31.61    3.42
   7  -9   1   32.60    3.69
   9  -7  -1   32.64    3.88
   7  -9   2   68.35    5.26
  -7   9   2   55.78    4.87
  -9  -7   2   59.77    4.78
  -9   7  -2   65.77    4.88
   7  -9   2   67.67    5.24
   9  -7  -2   63.31    5.33
   7  -9   3   32.10    3.77
  -7   9   3   37.86    3.92
  -9  -7   3   40.45    3.93
  -9   7  -3   39.99    3.76
   7  -9   3   36.88    3.92
   9  -7  -3   38.98    4.22
  -7   9   3   38.56    4.32
   7  -9   4   99.71    6.49
  -7   9   4   97.89    6.52
  -9  -7   4  108.04    6.54
  -9   7  -4  105.73    6.32
  -7   9   4  105.05    6.98
   9  -7  -4   97.35    6.69
   7  -9   5   34.16    3.69
   9  -7  -5   32.49    3.76
  -7   9   5   34.33    3.65
  -9  -7   5   32.52    3.60
  -9   7  -5   31.98    3.46
   7  -9   6   71.35    5.17
   9  -7  -6   63.94    5.08
  -7   9   6   70.71    5.24
  -9  -7   6   60.13    5.05
  -9   7  -6   62.64    4.78
   7  -9   7  131.13    7.28
   9  -7  -7  126.24    7.29
  -7   9   7  126.46    7.29
  -9  -7   7  125.84    7.44
  -9   7  -7  124.72    7.02
   7  -9   8   94.98    5.90
   9  -7  -8   90.78    5.97
  -7   9   8   91.79    6.00
  -9  -7   8   99.45    6.35
   7  -9   8   95.27    6.11
  -9   7  -8   95.32    5.90
   7  -9   9   50.32    4.02
   9  -7  -9   51.44    4.26
  -7   9   9   44.49    4.00
  -9  -7   9   53.21    4.56
   7  -9   9   50.65    4.25
  -9   7  -9   52.69    4.22
  -9   7 -10   13.55    2.28
   7  -9  10   14.90    2.21
   9  -7 -10   13.86    2.36
  -7   9  10   12.37    2.26
  -9  -7  10   15.02    2.71
   7  -9  10   12.77    2.23
   9  -7 -10   15.69    2.76
   7  -9  11   60.71    4.34
   9  -7 -11   68.75    4.75
  -7   9  11   67.11    4.74
  -9  -7  11   75.29    5.38
   7  -9  11   74.03    4.98
  -9   7 -11   74.83    4.97
   9  -7 -11   77.94    5.59
  -9   7 -12   15.53    2.35
   7  -9  12   11.20    1.84
   9  -7 -12   11.51    2.01
  -7   9  12   10.98    1.95
  -9  -7  12   10.97    2.48
   7  -9  12   12.95    2.21
   9  -7 -12   12.77    2.43
   9  -7 -13  116.03    6.24
  -9  -7  13  140.99    7.44
   7  -9  13  136.21    6.89
  -9   7 -13  125.26    6.73
   9  -7 -13  127.72    7.35
   9  -7 -14   30.18    2.80
  -9  -7  14   34.57    3.61
   7  -9  14   35.71    3.21
   9  -7 -14   33.34    3.56
   7  -9  15    0.73    1.10
   9  -7 -15    2.33    1.45
   7  -9  16    4.66    1.42
   9  -7 -16    4.87    1.53
   7  -9  17   73.53    4.32
   9  -7 -17   66.59    4.61
   7  -9  18    0.12    0.95
   9  -7 -18    0.14    1.07
  -9   7 -19    4.47    1.21
  -9  -7  19    3.10    1.50
   7  -9  19    3.61    1.06
   9  -7 -19    1.87    1.23
  -9  -7  20   75.60    4.40
   7  -9  20   64.91    3.62
  -9   7 -20   73.23    3.96
  -9  -7  21   26.95    2.50
   7  -9  21   24.58    1.95
  -9   7 -21   24.14    2.13
  -9  -7  22   63.86    3.80
   7  -9  22   60.36    3.16
  -9   7 -22   66.19    3.52
  -9  -7  23   10.31    1.46
  -9   7 -23   10.39    1.31
  -9  -7  24   35.40    2.35
  -9   7 -24   35.19    2.21
  -8   9 -19    4.65    0.89
  -8  -9  19    3.09    0.97
  -8  -9  18   78.15    4.15
  -8   9 -18   79.51    3.91
  -8   9 -17    0.09    0.77
  -8  -9  17    1.04    0.91
   9  -8  17    1.04    0.57
  -8  -9  16   16.00    1.98
   9  -8  16   16.60    1.62
  -8   9 -15    6.95    1.34
  -8  -9  15    7.62    1.53
   9  -8  15    7.22    1.23
  -8   9 -14    3.02    1.09
  -8  -9  14    4.49    1.41
   9  -8  14    4.09    1.08
   9  -8  13   54.83    3.04
  -8  -9  13   58.99    3.97
   9  -8  13   55.43    3.54
  -8   9 -13   64.03    3.86
   8  -9 -13   48.28    3.39
  -8   9 -12    9.72    1.74
   9  -8  12    7.95    1.32
  -8  -9  12   12.04    1.99
   9  -8  12   10.72    1.65
   8  -9 -12    8.58    1.57
   8  -9 -11   18.88    2.13
   9  -8  11   17.96    1.98
  -8  -9  11   20.09    2.43
   9  -8  11   20.49    2.24
   8  -9 -11   17.93    2.25
  -8   9 -11   21.29    2.36
  -8   9 -10    5.93    1.54
   8  -9 -10    5.79    1.42
   9  -8  10    4.26    1.25
  -8  -9  10    4.36    1.55
   9  -8  10    6.45    1.56
   8  -9 -10    8.19    1.62
   8  -9  -9   28.40    2.82
   9  -8   9   30.85    2.79
  -8  -9   9   22.09    2.66
   9  -8   9   29.98    2.87
   8  -9  -9   30.60    2.95
  -8   9  -9   34.63    3.08
   8  -9  -8   54.40    3.90
   9  -8   8   45.57    3.59
   9  -8   8   53.32    3.85
   8  -9  -8   42.74    3.71
  -9   8   8   38.29    3.13
  -8   9  -8   57.83    4.02
   8  -9  -7   62.99    4.37
   9  -8   7   60.80    4.24
   9  -8   7   70.89    4.59
   8  -9  -7   63.94    4.51
  -9   8   7   52.18    3.79
   8  -9  -6   16.50    2.43
   9  -8   6   13.04    2.28
  -9   8   6   11.15    1.89
   9  -8   6   13.94    2.18
   8  -9  -6   12.29    2.16
   9  -8   5   17.29    2.46
   8  -9  -5   17.06    2.46
  -8   9  -5   19.42    2.54
   9  -8   5   18.44    2.49
   8  -9  -5   19.23    2.58
  -9   8   5   15.29    2.14
   9  -8   4   16.01    2.37
  -8   9  -4   17.79    2.48
  -9   8   4   14.61    2.13
   9  -8   4   17.20    2.53
   8  -9  -4   16.88    2.50
   9  -8   3    4.80    1.81
  -9   8   3    3.48    1.41
   9  -8   3    7.29    1.91
   8  -9  -3    5.22    1.66
   9  -8   2   18.34    2.65
  -9   8   2   16.17    2.26
   9  -8   2   17.19    2.49
  -8   9  -2   17.93    2.55
   8  -9  -2   11.61    2.29
   8  -9  -1    0.18    1.46
   9  -8   1    2.66    1.63
  -8   9  -1   -0.19    1.38
  -9   8   1    0.47    1.14
  -8   9  -1    0.35    1.32
   8  -9  -1   -0.36    1.20
   9  -8   1    0.18    1.22
   8  -9   0    8.41    1.96
   9  -8   0    8.58    2.03
  -8   9   0    7.35    1.88
  -9   8   0    7.72    1.82
  -8   9   0   11.23    2.05
   8  -9   0    9.10    1.98
   9  -8   0   10.21    2.06
   8  -9   1   -0.89    1.55
   9  -8  -1   -0.18    1.32
  -8   9   1    0.56    1.15
  -9   8  -1    0.16    1.22
  -8   9   1    0.35    1.28
   9  -8  -1    0.37    1.34
   8  -9   2   19.25    2.67
  -8   9   2   15.66    2.43
  -9   8  -2   15.66    2.33
  -8   9   2   18.41    2.57
   8  -9   3    2.57    1.57
  -8   9   3    4.41    1.50
  -9   8  -3    3.47    1.47
  -8   9   3    3.83    1.52
  -9   8  -4   15.56    2.28
   8  -9   4   17.51    2.47
  -8   9   4   17.13    2.52
  -9  -8   4    9.85    1.94
  -8   9   4   16.66    2.43
   8  -9   5   17.90    2.52
   9  -8  -5   19.13    2.56
  -8   9   5   19.68    2.55
  -9  -8   5   15.17    2.32
  -8   9   5   19.92    2.52
   8  -9   5   14.99    2.38
  -9   8  -5   20.37    2.51
  -9   8  -6   15.63    2.25
  -8   9   6   13.04    2.26
   8  -9   6   15.43    2.33
   9  -8  -6   13.97    2.32
  -9  -8   6   12.42    2.28
   8  -9   6   15.92    2.33
   9  -8  -6   16.45    2.51
   8  -9   7   64.40    4.34
   9  -8  -7   56.44    4.26
  -9  -8   7   61.24    4.37
   8  -9   7   63.87    4.43
   9  -8  -7   68.26    4.76
  -8   9   7   56.52    4.32
  -9   8  -7   59.83    4.24
   8  -9   8   50.00    3.68
   9  -8  -8   46.82    3.75
  -9  -8   8   52.35    4.01
   8  -9   8   55.24    4.00
   9  -8  -8   47.55    4.02
  -9   8  -8   57.44    3.94
  -8   9   8   39.52    3.59
   8  -9   9   31.05    2.83
   9  -8  -9   32.34    2.98
  -9  -8   9   35.33    3.29
   8  -9   9   31.28    2.96
   9  -8  -9   30.18    3.13
  -9   8  -9   33.08    2.99
  -8   9   9   23.75    2.81
  -9   8 -10    6.40    1.53
  -8   9  10    2.54    1.23
   8  -9  10    5.03    1.35
   9  -8 -10    6.21    1.60
  -9  -8  10    5.45    1.73
   8  -9  10    7.67    1.64
   9  -8 -10    5.97    1.68
  -8   9  11   13.20    2.01
   8  -9  11   19.26    2.05
   9  -8 -11   20.65    2.25
  -9  -8  11   18.17    2.50
   8  -9  11   22.57    2.41
   9  -8 -11   19.43    2.51
  -8   9  12    7.44    1.51
   9  -8 -12    8.54    1.53
  -9  -8  12   10.30    1.99
   8  -9  12   13.41    1.83
   9  -8 -12   10.78    1.96
  -9  -8  13   61.69    4.06
   8  -9  13   61.87    3.70
   9  -8 -13   62.28    4.01
  -8   9  14    0.68    0.81
  -9  -8  14    4.99    1.48
   8  -9  14    3.57    1.18
   9  -8 -14    3.12    1.19
  -9  -8  15    6.65    1.54
   8  -9  15    5.15    1.15
   9  -8 -15    5.06    1.24
  -9  -8  16   21.20    2.26
   8  -9  16   16.95    1.75
  -9   8 -16   20.23    2.02
  -9   8 -17    1.14    0.87
  -9  -8  17   -0.33    1.00
   8  -9  17    0.75    0.70
   9  -8 -17    0.24    0.66
  -9  -8  18   74.47    4.16
   8  -9  18   75.00    3.58
  -9   8 -18   75.64    3.88
  -9   8 -19    3.06    0.90
  -9  -8  19    3.13    1.05
   8  -9  19    3.26    0.71
  -9   8 -20    1.72    0.67
   9  -9   0   11.85    1.87
  -9   9   0    9.58    1.57
   9  -9   1   -1.13    1.24
   9  -9  -1   -0.26    1.15
  -9   9  -1    0.35    0.89
  -9   9   1    0.56    0.94
   9  -9   2    5.68    1.50
  -9   9  -2    6.23    1.51
  -9   9   2    4.51    1.27
   9  -9  -2    8.41    1.62
   9  -9   3  123.59    5.87
  -9   9   3  104.26    5.28
   9  -9   3  113.00    5.73
   9  -9  -3  108.88    5.71
  -9   9  -3  125.00    5.74
   9  -9   4   16.53    2.06
  -9   9   4   18.65    2.01
   9  -9   4   15.98    2.05
   9  -9  -4   18.75    2.20
  -9   9  -4   19.68    2.09
   9  -9   5    4.07    1.29
   9  -9  -5    1.88    1.22
  -9   9  -5    4.59    1.28
  -9   9   5    2.56    1.05
   9  -9   5    3.67    1.21
   9  -9  -5    2.83    1.24
   9  -9   6    3.83    1.22
   9  -9  -6    4.26    1.23
  -9   9  -6    6.81    1.38
  -9   9   6    2.96    1.01
   9  -9   6    4.22    1.28
   9  -9  -6    4.64    1.27
   9  -9   7   58.44    3.41
   9  -9  -7   62.24    3.63
   9  -9   7   57.05    3.50
   9  -9  -7   57.37    3.67
  -9   9  -7   63.40    3.66
   9  -9   8   42.43    2.79
   9  -9  -8   45.45    2.98
   9  -9   8   51.12    3.11
   9  -9  -8   43.76    3.06
   9  -9  -9  195.94    7.71
   9  -9  -9  186.26    7.92
   9  -9  10    5.40    1.17
   9  -9 -10    6.64    1.22
   9  -9  11   60.93    3.16
   9  -9 -11   39.87    2.83
   9  -9  12    5.23    0.96
   9  -9 -12    2.57    0.78
   9  -9  13   11.65    1.24
  -9   9 -13   11.71    1.36
  -9   9 -14    0.64    0.55
   9  -9  14   -0.23    0.44
  -9   9 -15    3.67    0.78
 -10   0   0    2.34    2.30
 -10   0   0   -0.62    2.65
   0 -10   0    2.03    1.97
 -10   0  -1   23.58    4.04
 -10   0   1   16.87    3.87
 -10   0   1   23.61    5.22
   0 -10   1   26.10    3.87
   0 -10  -1   19.35    3.42
   0 -10  -1   24.12    3.96
 -10   0  -2  252.34   13.77
 -10   0   2  259.76   13.93
 -10   0   2  266.64   17.71
   0 -10   2  269.46   12.70
   0 -10  -2  277.39   13.89
 -10   0  -3   16.45    3.72
 -10   0   3   25.63    4.37
 -10   0   3   18.42    4.83
 -10   0  -3   10.47    3.81
   0 -10   3   18.19    3.25
   0 -10  -3   24.70    4.16
 -10   0  -4   86.47    7.36
 -10   0   4   90.46    7.52
 -10   0   4   72.94    9.12
 -10   0  -4   77.48    8.89
   0 -10   4   90.88    6.51
   0 -10   4   73.27    4.95
   0 -10  -4   93.80    7.41
 -10   0   5  160.91   10.55
 -10   0   5  159.95   13.21
 -10   0  -5  173.70   13.73
 -10   0   5  174.12   10.58
   0 -10   5  168.71    9.37
   0 -10  -5  169.78    9.50
   0 -10   5  158.92    8.02
   0 -10  -5  186.31   10.84
 -10   0   6  257.70   13.46
 -10   0   6  190.65   14.22
 -10   0   6  222.67   15.96
 -10   0  -6  216.65   15.91
 -10   0   6  250.85   13.04
 -10   0  -6  249.61   12.68
   0 -10  -6  232.00   11.48
   0 -10   6  237.46   11.49
   0 -10   6  222.39   10.19
   0 -10  -6  253.20   13.19
 -10   0   7    3.63    2.37
 -10   0   7    5.90    2.81
 -10   0   7    7.00    3.30
 -10   0  -7    5.25    3.08
  10   0  -7    5.05    3.74
   0 -10   7    7.23    2.35
   0 -10  -7    2.86    2.15
 -10   0  -7    5.08    2.47
 -10   0   7    4.33    2.81
   0 -10   7    6.41    1.68
   0 -10  -7    0.66    2.75
 -10   0   8   89.99    7.67
 -10   0   8   84.69    9.53
 -10   0  -8   99.80    9.88
  10   0  -8  102.12    7.96
 -10   0  -8  102.35    7.43
 -10   0   8   94.62    7.59
   0 -10   8   95.37    6.54
   0 -10  -8   97.95    6.66
   0 -10   8   91.59    5.82
   0 -10  -8  100.93    7.91
 -10   0   9    6.64    2.74
  10   0  -9    2.70    3.15
   0 -10   9    4.67    2.02
   0 -10  -9    5.01    2.11
 -10   0  -9    6.44    2.45
 -10   0   9    6.70    2.88
   0 -10   9    8.02    1.78
   0 -10  -9    6.93    2.81
 -10   0  10   67.07    6.38
  10   0 -10   52.13    5.57
 -10   0 -10   55.52    5.39
 -10   0  10   52.56    5.64
   0 -10  10   55.62    4.72
   0 -10 -10   49.27    4.60
   0 -10  10   58.19    4.45
 -10   0  11   -0.70    2.70
  10   0 -11    1.70    2.53
   0 -10  11    0.21    1.57
   0 -10 -11   -0.21    1.63
 -10   0 -11    1.43    1.97
 -10   0  11    0.33    2.12
   0 -10  11   -0.20    1.20
 -10   0  12  210.28   12.29
  10   0 -12  237.53   11.92
   0 -10  12  211.17   10.12
 -10   0  12  212.94   12.17
   0 -10 -12  218.11   10.39
   0 -10  12  229.91   10.48
 -10   0  13  329.61   16.03
  10   0 -13  347.20   15.16
   0 -10  13  321.36   13.39
   0 -10  13  314.22   13.24
   0 -10 -13  328.72   13.50
 -10   0  13  315.67   15.56
 -10   0 -13  307.38   12.99
 -10   0  14   81.13    7.02
  10   0 -14   70.77    6.07
   0 -10  14   66.41    5.00
   0 -10  14   63.53    4.74
 -10   0  14   65.57    6.27
   0 -10 -14   66.76    4.90
 -10   0 -14   72.62    4.94
   0 -10 -14   62.80    6.33
 -10   0  15   96.78    7.63
  10   0 -15   94.88    6.84
   0 -10  15   86.38    5.42
 -10   0  15   89.04    7.24
   0 -10 -15   85.37    5.46
   0 -10  15   80.37    5.61
 -10   0 -15   89.14    5.70
   0 -10 -15   89.91    7.11
 -10   0  16   36.11    4.85
   0  10 -16   48.50    4.85
  10   0 -16   43.06    4.51
   0 -10  16   37.70    3.35
   0 -10 -16   28.47    3.04
 -10   0  16   34.00    4.61
   0 -10  16   42.18    3.84
 -10   0  16   37.50    4.56
 -10   0 -16   41.50    3.73
   0 -10 -16   43.60    4.88
 -10   0  17  114.27    8.32
   0  10 -17  114.78    7.71
  10   0 -17  108.84    7.33
 -10   0  17  125.20    8.37
 -10   0  17  126.59    8.33
 -10   0 -17  112.82    6.59
   0 -10 -17  108.46    7.75
 -10   0 -18    3.94    1.51
 -10   0  18    2.49    1.95
   0  10 -18    6.62    2.50
  10   0 -18    3.29    1.98
 -10   0  18    3.22    2.05
 -10   0  18    3.89    2.15
   0 -10 -18    3.63    2.21
 -10   0  19   69.27    6.32
   0  10 -19   71.56    5.84
  10   0 -19   71.64    5.63
 -10   0  19   81.20    6.50
 -10   0  19   84.40    6.52
 -10   0 -19   71.32    5.06
   0 -10 -19   75.13    6.20
 -10   0  20   70.35    6.13
   0  10 -20   68.44    5.56
  10   0 -20   67.49    5.27
 -10   0  20   64.27    5.65
 -10   0  20   65.11    5.60
 -10   0 -20   65.80    4.76
   0 -10 -20   65.67    5.57
 -10   0  21   64.63    5.71
   0  10 -21   72.42    5.46
  10   0 -21   56.70    4.81
 -10   0  21   58.69    5.27
 -10   0  21   65.71    5.37
   0 -10 -21   51.59    4.85
   0  10 -22   50.36    4.49
 -10   0  22   48.02    4.86
  10   0 -22   41.21    4.06
 -10   0  22   43.91    4.41
 -10   0  22   59.32    4.96
   0 -10 -22   48.36    4.44
 -10   0  23   52.32    4.92
   0  10 -23   46.66    4.26
  10   0 -23   45.46    4.04
 -10   0  23   50.93    4.54
   0 -10 -23   48.86    4.27
 -10   0  24   90.78    6.32
   0  10 -24   97.43    5.94
  10   0 -24   84.45    5.48
 -10   0  24   81.06    5.63
   0 -10 -24   82.42    5.46
 -10   0  25    5.42    1.84
   0  10 -25    2.59    1.57
  10   0 -25    2.21    1.41
 -10   0  25    3.65    1.46
   0 -10 -25    2.02    1.25
 -10   0  26    5.49    1.69
   0  10 -26    4.39    1.56
  10   0 -26    4.02    1.47
 -10   0  26    3.63    1.40
   0 -10 -26    4.34    1.29
 -10   0  27   49.75    4.12
 -10   0  27   40.83    3.34
   0 -10 -27   41.12    3.07
 -10   0  28    8.37    1.73
 -10   0  28    5.73    1.31
   0  10 -28   11.27    1.74
 -10   0  29    0.37    0.91
   0  10 -29   -0.21    0.94
 -10   0  30    5.82    1.20
   0  10 -30    7.15    1.15
 -10   1  29    8.84    1.51
  -1  10 -29    8.56    1.36
 -10   1  29    8.49    1.37
 -10   1  28    5.07    1.32
  -1  10 -28    5.96    1.37
 -10   1  28    3.34    1.17
   1 -10 -28    5.43    1.14
 -10   1  27   22.88    2.68
  -1  10 -27   20.11    2.39
 -10   1  27   20.72    2.42
   1 -10 -27   21.23    2.28
 -10   1  26   45.31    3.94
  -1  10 -26   46.54    3.67
  10   1 -26   46.51    3.53
 -10   1  26   47.37    3.89
   1 -10 -26   42.97    3.52
 -10   1  25    7.73    2.11
  -1  10 -25   13.04    2.17
  10   1 -25    7.87    1.81
 -10   1  25   10.55    2.19
   1 -10 -25    9.62    1.90
 -10   1  24    3.02    1.61
  -1  10 -24    4.32    1.80
  10   1 -24    3.12    1.50
 -10   1  24    1.67    1.60
   1 -10 -24    2.84    1.40
 -10   1  23   -1.17    1.87
  -1  10 -23   -0.97    1.77
  10   1 -23    0.35    1.33
 -10   1  23    0.68    1.54
   1 -10 -23    0.21    1.35
 -10   1  22   44.67    4.62
  -1  10 -22   39.99    4.00
  10   1 -22   42.25    3.87
 -10   1  22   40.28    4.32
   1 -10 -22   34.66    3.94
 -10   1  21   10.85    2.69
  10   1 -21   13.50    2.49
 -10   1  21   13.87    2.92
   1 -10 -21    9.47    2.52
 -10   1  20   31.95    4.21
  10   1 -20   29.42    3.53
 -10   1  20   30.47    4.16
   1 -10 -20   28.14    3.81
 -10   1  19    4.34    2.22
  10   1 -19    7.23    2.32
 -10   1  19    7.54    2.57
   1 -10 -19    6.79    2.36
 -10   1  18   26.35    3.90
 -10   1  18   22.90    3.77
  10   1 -18   23.50    3.37
 -10   1  17  107.24    8.00
 -10   1  17  118.36    8.36
  10   1 -17  121.57    7.52
 -10   1  16    2.21    2.18
  -1 -10  16    3.23    1.37
   1 -10 -16    3.24    1.45
  10   1 -16    5.14    2.22
 -10   1  15  179.53   10.52
  -1 -10  15  162.30    8.06
   1 -10 -15  148.33    7.85
 -10  -1 -15  165.08    9.28
  10   1 -15  189.34    9.81
 -10   1  14    0.98    2.15
  10   1 -14    2.62    2.11
  -1 -10  14   -0.54    1.70
   1 -10 -14    1.08    1.47
 -10  -1 -14    0.25    1.80
 -10   1  13    1.00    2.11
  10   1 -13    1.07    2.12
  -1 -10  13    1.73    1.76
   1 -10 -13    1.91    1.66
 -10  -1 -13    3.60    1.97
   1 -10 -13    1.93    2.11
 -10   1  12   15.45    3.41
  10   1 -12   14.13    3.20
  -1 -10  12   13.36    2.52
   1 -10 -12   13.45    2.49
 -10  -1 -12   16.22    3.11
   1 -10 -12   19.82    3.66
 -10   1  11   21.24    3.84
  10   1 -11   23.78    3.78
  -1 -10  11   20.66    2.97
   1 -10 -11   21.87    3.09
 -10  -1 -11   27.60    3.82
   1 -10 -11   16.67    3.73
 -10   1  10  197.58   11.47
  10   1 -10  209.46   11.02
  -1 -10  10  189.45    9.66
  -1 -10  10  175.03    8.79
   1 -10 -10  195.20    9.74
 -10  -1 -10  189.46   10.45
   1 -10 -10  189.44   11.26
 -10   1   9  107.80    8.22
  10   1  -9  114.64    7.99
  -1 -10   9   97.96    6.65
   1 -10  -9  104.42    6.83
  -1 -10   9   95.01    5.92
 -10  -1  -9  120.83    7.82
   1 -10  -9  105.50    8.10
 -10   1   8   37.20    4.95
 -10   1   8   33.99    5.98
 -10  -1  -8   27.07    5.52
  10   1  -8   40.75    5.33
 -10  -1  -8   38.83    4.47
  -1 -10   8   36.15    4.05
   1 -10  -8   35.10    4.01
 -10  -1  -8   32.91    4.34
  -1 -10   8   32.73    3.21
   1 -10  -8   28.98    4.35
 -10   1   7    3.71    1.98
 -10   1   7   -0.34    1.86
 -10   1   7    0.58    2.04
  10   1  -7    0.92    3.07
 -10  -1  -7    1.17    1.96
  -1 -10   7    0.47    1.71
   1 -10  -7    3.57    2.08
 -10  -1  -7    0.59    1.85
 -10  -1  -7    2.25    2.07
  -1 -10   7    0.50    1.10
   1 -10  -7    2.59    2.35
 -10   1   6   40.24    4.93
 -10   1   6   36.54    5.90
 -10   1   6   45.78    6.71
 -10  -1  -6   40.73    6.77
  10   1  -6   45.65    5.65
 -10  -1  -6   47.45    5.07
 -10  -1  -6   42.44    4.80
  -1 -10   6   47.44    4.64
   1 -10  -6   42.95    4.44
 -10   1   6   31.70    4.75
   1 -10  -6   43.64    5.11
 -10   1   5   45.18    5.31
 -10   1   5   32.79    5.62
 -10   1   5   31.55    5.86
 -10  -1  -5   27.36    5.71
 -10  -1  -5   42.37    4.85
 -10  -1  -5   36.72    4.47
 -10   1   5   47.02    5.26
  -1 -10   5   43.32    4.45
   1 -10  -5   41.64    4.52
   1 -10  -5   39.39    4.97
 -10   1   4   39.05    6.11
 -10   1   4   48.60    5.59
 -10   1   4   42.82    6.97
 -10  -1  -4   46.11    7.21
 -10  -1  -4   52.58    5.45
 -10   1   4   65.28    6.23
 -10  -1  -4   54.30    5.43
  -1 -10   4   45.13    4.70
   1 -10  -4   60.61    6.21
 -10   1   3  350.45   16.83
 -10   1   3  339.73   20.61
 -10  -1  -3  337.80   20.87
 -10  -1  -3  380.30   16.77
 -10   1   3  363.76   16.92
  -1 -10   3  355.79   15.56
   1 -10  -3  387.21   17.06
 -10   1   2  292.63   14.93
 -10  -1  -2  310.00   14.76
 -10   1   2  307.52   15.03
  -1 -10   2  298.81   13.76
   1 -10  -2  330.52   15.22
 -10   1   1  775.99   29.20
 -10   1   1  650.74   32.99
 -10  -1  -1  797.43   28.87
 -10   1   1  760.15   28.90
  -1 -10   1  774.16   27.68
   1 -10  -1  755.92   27.58
  10  -1   1  742.99   27.30
   1 -10  -1  780.03   28.69
 -10   1   0   58.39    6.28
 -10   1   0   47.69    7.74
 -10  -1   0   58.36    8.76
 -10  -1   0   83.31    7.21
 -10   1   0   67.46    6.43
  -1 -10   0   68.38    5.99
   1 -10   0   57.72    5.59
  10  -1   0   57.68    5.34
   1 -10   0   82.14    6.93
 -10   1  -1  758.48   28.56
   1 -10   1  686.69   25.08
 -10  -1   1  757.57   28.34
 -10   1  -1  771.15   28.56
  -1 -10  -1  784.33   27.46
   1 -10   1  782.61   27.39
 -10  -1   1  708.11   33.70
 -10   1  -2  278.39   14.20
   1 -10   2  250.21   11.50
 -10   1  -2  309.95   14.60
 -10  -1   2  319.24   14.79
   1 -10   2  285.40   13.32
 -10  -1   2  294.08   18.89
 -10   1  -3  361.35   16.75
 -10   1  -3  346.36   20.94
 -10  -1   3  328.13   20.69
 -10   1  -3  377.61   16.73
 -10  -1   3  394.91   17.12
   1 -10   3  378.12   15.79
   1 -10   3  337.70   14.11
 -10   1  -4   52.10    5.56
 -10  -1   4   48.03    7.52
 -10   1  -4   53.53    7.57
 -10   1  -4   54.75    5.56
 -10  -1   4   51.38    5.62
 -10   1  -4   52.28    5.34
   1 -10   4   49.08    4.88
   1 -10   4   49.47    4.09
  -1 -10  -4   54.38    6.22
 -10   1  -5   35.47    6.01
 -10  -1   5   24.99    5.47
 -10   1  -5   39.57    4.61
 -10  -1   5   42.06    5.00
  -1 -10  -5   35.86    4.21
   1 -10   5   29.90    3.99
   1 -10   5   33.36    3.38
 -10   1  -5   36.57    4.58
 -10   1  -6   37.25    6.32
 -10  -1   6   40.25    6.61
 -10   1  -6   44.18    4.90
 -10   1  -6   40.06    4.70
 -10  -1   6   52.75    5.34
   1 -10   6   41.65    3.84
  -1 -10  -6   46.43    4.69
   1 -10   6   39.62    4.26
 -10   1  -7    4.65    2.74
 -10  -1   7   -0.59    1.84
 -10  -1   7    1.77    1.87
  -1 -10  -7   -1.21    1.97
   1 -10   7   -0.70    1.99
 -10   1  -7    0.29    1.73
 -10  -1   7   -2.89    2.51
 -10   1  -7   -0.85    2.05
   1 -10   7    1.20    1.15
 -10   1  -8   36.16    6.13
 -10  -1   8   43.53    6.65
 -10   1  -8   36.52    4.44
 -10   1  -8   44.96    4.76
   1 -10   8   31.18    3.44
  -1 -10  -8   40.17    4.28
 -10  -1   8   32.40    4.63
   1 -10   8   37.77    4.11
 -10  -1   8   36.94    4.39
 -10   1  -9  105.33    7.44
   1 -10   9   99.46    6.33
 -10   1  -9   95.79    7.39
 -10  -1   9  117.72    8.30
  -1 -10  -9  111.70    7.00
   1 -10   9  110.70    6.92
 -10  -1   9   94.73    6.93
 -10   1  -9   99.07    5.97
  -1 -10  -9  107.28    8.08
 -10   1 -10  182.40   10.37
 -10  -1  10  182.89   10.83
  -1 -10 -10  185.85    9.59
   1 -10  10  194.40    9.60
   1 -10  10  193.93    9.37
 -10  -1  10  195.90   10.10
 -10   1 -10  190.82   10.44
 -10   1 -10  164.92    8.55
  -1 -10 -10  191.02   11.28
 -10   1 -11   23.89    3.70
 -10  -1  11   23.62    3.36
  -1 -10 -11   23.70    3.26
   1 -10  11   23.21    3.09
 -10   1 -11   23.63    3.58
 -10  -1  11   19.66    3.66
   1 -10  11   23.92    2.93
 -10   1 -11   20.83    2.69
  -1 -10 -11   19.26    3.88
 -10   1 -12   15.55    2.40
 -10  -1  12   18.62    3.04
  -1 -10 -12   13.02    2.58
   1 -10  12   14.00    2.54
 -10   1 -12   18.80    3.26
 -10  -1  12   15.69    3.36
   1 -10  12   12.78    2.32
  -1 -10 -12   16.48    3.35
 -10   1 -13    3.89    1.52
 -10  -1  13    4.82    1.90
  -1 -10 -13    3.92    1.78
   1 -10  13    2.21    1.60
 -10   1 -13    1.56    1.85
 -10  -1  13    2.48    1.93
   1 -10  13    3.29    1.49
  -1 -10 -13   -0.62    1.76
 -10   1 -14    1.12    1.34
 -10  -1  14   -0.22    1.82
  -1 -10 -14    1.84    1.48
   1 -10  14    1.21    1.40
 -10   1 -14   -0.26    2.22
 -10  -1  14    2.13    2.15
   1 -10  14    2.24    1.54
  -1 -10 -14    2.13    2.00
   1 -10  15  160.28    7.82
 -10  -1  15  168.61    9.87
  -1 -10 -15  155.17    7.99
 -10   1 -15  173.29    9.49
   1 -10  15  166.06    8.53
 -10  -1  15  162.91    8.75
 -10   1 -15  148.13    8.10
  -1 -10 -15  180.36   10.24
 -10   1 -16    3.18    1.50
   1  10 -16    4.53    2.36
 -10  -1  16    7.36    2.09
  -1 -10 -16    2.05    1.38
   1 -10  16    3.77    1.47
 -10  -1  16    0.58    2.13
   1 -10  16    5.37    1.77
  -1 -10 -16    5.74    2.25
   1  10 -17  117.43    7.69
   1 -10  17  122.45    6.94
 -10  -1  17  107.12    7.69
 -10  -1  17  114.34    6.77
 -10  -1  17  117.29    8.12
 -10   1 -17  115.30    6.75
  -1 -10 -17  117.86    7.89
 -10   1 -18   17.57    2.60
   1  10 -18   20.50    3.30
 -10  -1  18   14.31    2.49
 -10  -1  18   19.73    3.23
   1 -10  18   20.94    2.71
 -10  -1  18   20.54    3.46
  -1 -10 -18   15.47    3.07
 -10   1 -19    6.10    1.79
   1  10 -19    7.48    2.39
  10  -1 -19    6.18    2.17
 -10  -1  19    3.29    1.82
 -10  -1  19    4.90    2.11
   1 -10  19    8.12    1.91
  -1 -10 -19    7.42    2.19
   1  10 -20   33.34    3.77
  10  -1 -20   28.44    3.52
 -10  -1  20   23.77    3.44
   1 -10  20   30.36    3.12
 -10  -1  20   30.80    3.97
 -10   1 -20   29.83    3.19
  -1 -10 -20   26.83    3.51
 -10   1 -21   13.65    2.21
   1  10 -21   12.37    2.55
  10  -1 -21   10.82    2.35
 -10  -1  21   10.61    2.28
 -10  -1  21   11.65    2.73
  -1 -10 -21   11.76    2.36
   1  10 -22   44.05    4.16
  10  -1 -22   43.01    3.98
 -10  -1  22   39.32    3.89
 -10  -1  22   43.27    4.36
 -10   1 -22   40.02    3.54
  -1 -10 -22   40.40    3.87
 -10   1 -23   -0.31    1.17
   1  10 -23    0.39    1.46
  10  -1 -23   -0.89    1.69
 -10  -1  23    0.73    1.26
 -10  -1  23   -0.22    1.46
  -1 -10 -23    0.52    1.16
   1  10 -24    3.83    1.76
  10  -1 -24    1.32    1.37
 -10  -1  24    3.40    1.42
 -10   1 -24    3.45    1.35
 -10  -1  24    3.85    1.69
  -1 -10 -24    2.87    1.24
   1  10 -25   10.74    2.06
  10  -1 -25   13.74    2.18
 -10  -1  25   10.04    1.77
 -10  -1  25   13.89    2.35
   1  10 -26   49.97    3.84
  10  -1 -26   43.26    3.45
   1  10 -27   27.00    2.64
 -10  -1  27   19.39    2.66
 -10  -1  28    3.75    1.32
   1  10 -28    4.55    1.27
   1  10 -29   11.01    1.55
 -10  -1  29    6.52    1.45
 -10   2  29   12.54    1.59
  -2  10 -28   23.76    2.15
 -10   2  28   22.66    2.26
 -10   2  28   27.01    2.48
   2 -10 -28   21.94    2.14
 -10   2  27   18.70    2.15
  -2  10 -27   16.81    1.93
 -10   2  27   14.80    2.12
   2 -10 -27   14.84    1.94
  -2  10 -26    5.64    1.47
 -10   2  26    4.46    1.46
   2 -10 -26    6.37    1.63
  10   2 -25   32.84    2.91
 -10   2  25   26.13    3.15
  -2  10 -25   33.68    3.06
   2 -10 -25   31.44    3.17
  -2  10 -24   12.78    2.13
  10   2 -24   13.66    2.11
 -10   2  24   12.44    2.36
   2 -10 -24    9.23    2.21
  10   2 -23   35.42    3.32
 -10   2  23   39.52    3.94
  -2  10 -23   35.72    3.47
   2 -10 -23   36.34    3.96
 -10   2  22   28.23    3.58
  -2  10 -22   34.68    3.51
  10   2 -22   35.71    3.41
 -10   2  21   32.49    3.93
  -2  10 -21   36.10    3.62
  10   2 -21   28.24    3.28
 -10   2  20   21.22    3.27
  -2  10 -20   20.55    2.98
  10   2 -20   13.77    2.48
 -10   2  19   36.98    4.28
  -2  10 -19   35.80    3.84
  10   2 -19   36.02    3.75
 -10   2  19   34.94    4.49
 -10   2  18   14.82    3.05
  -2  10 -18   14.19    2.71
  10   2 -18   16.61    2.83
 -10   2  18   16.40    3.36
   2 -10 -18   12.82    2.84
 -10   2  17   43.96    4.81
  -2  10 -17   35.08    4.02
  10   2 -17   36.98    3.97
 -10   2  17   39.61    4.79
   2 -10 -17   37.84    4.66
 -10   2  16   89.49    6.89
  -2  10 -16   74.53    5.97
  10   2 -16   76.09    5.83
   2 -10 -16   73.47    4.78
 -10   2  16   90.35    7.11
   2 -10 -16   91.77    6.99
 -10   2  15   12.26    3.13
  -2  10 -15   12.64    2.83
  10   2 -15   11.94    2.68
   2 -10 -15   10.68    2.04
 -10   2  15    6.67    2.87
   2 -10 -15   14.87    3.18
 -10   2  14   24.71    3.89
  10   2 -14   29.26    3.77
  -2 -10  14   30.06    3.22
   2 -10 -14   29.85    3.20
 -10  -2 -14   28.35    3.62
 -10   2  14   38.07    4.82
   2 -10 -14   35.26    4.54
 -10   2  13   67.76    6.19
  10   2 -13   59.28    5.50
  -2 -10  13   69.46    5.07
 -10   2  13   70.24    6.43
   2 -10 -13   62.11    4.83
 -10  -2 -13   70.43    5.64
   2 -10 -13   68.85    6.31
 -10   2  12   32.48    4.57
  10   2 -12   37.81    4.36
  -2 -10  12   36.50    3.79
   2 -10 -12   38.26    3.78
 -10  -2 -12   37.34    4.13
 -10   2  12   34.90    4.77
   2 -10 -12   35.37    4.81
 -10   2  11  131.77    8.83
  10   2 -11  119.93    7.93
  -2 -10  11  119.42    7.29
 -10   2  11  134.13    9.13
   2 -10 -11  123.27    7.26
 -10  -2 -11  120.54    7.72
   2 -10 -11  113.75    8.51
 -10   2  10  169.16   10.20
  10   2 -10  165.88    9.53
  -2 -10  10  159.86    8.76
 -10   2  10  179.18   10.74
   2 -10 -10  170.50    8.83
 -10  -2 -10  164.93    9.30
   2 -10 -10  177.74   10.52
  -2  10 -10  148.56    7.90
  -2  10  -9   17.09    2.50
 -10   2   9   16.82    3.46
  10   2  -9   15.14    3.25
  -2 -10   9   14.61    2.93
   2 -10  -9   12.01    2.60
 -10  -2  -9   14.42    3.00
 -10   2   9   14.20    3.38
   2 -10  -9   12.36    3.31
 -10   2   8  235.20   12.79
  10   2  -8  251.34   12.54
 -10  -2  -8  248.15   12.54
  -2 -10   8  265.34   11.92
 -10   2   8  255.67   13.29
   2 -10  -8  228.31   11.45
 -10  -2  -8  236.54   11.99
   2 -10  -8  244.85   13.02
  -2  10  -8  240.01   11.03
 -10   2   7   30.52    4.47
  10   2  -7   40.20    4.94
 -10  -2  -7   47.47    4.98
 -10  -2  -7   40.91    4.47
  -2 -10   7   32.56    4.05
 -10   2   7   35.67    4.89
  -2  10  -7   38.62    3.89
   2 -10  -7   37.42    4.82
 -10   2   6   72.88    6.66
 -10  -2  -6   74.39    9.03
 -10   2   6   76.89    8.66
  10   2  -6   86.60    7.03
 -10  -2  -6   78.34    6.46
 -10  -2  -6   80.56    6.36
 -10   2   6   78.91    6.94
  -2 -10   6   77.91    6.01
   2 -10  -6   73.79    6.61
 -10   2   5   95.89    7.51
 -10   2   5   78.77    9.04
  10   2  -5   95.86    7.62
 -10  -2  -5   82.84    9.78
 -10  -2  -5  106.53    7.48
 -10  -2  -5  107.37    7.33
 -10   2   5   97.67    7.64
  -2 -10   5   94.65    6.64
  10  -2   5   82.74    6.00
   2 -10  -5  101.48    7.63
 -10   2   4   64.94    7.96
 -10   2   4   79.95    6.76
 -10   2   4   75.11    8.76
 -10  -2  -4   66.73    8.56
 -10  -2  -4   82.25    6.66
 -10   2   4   89.96    7.29
  -2 -10   4   85.19    6.36
 -10  -2  -4   84.37    6.64
  10  -2   4   85.35    6.02
   2 -10  -4   76.54    6.60
 -10   2   3  103.18    9.87
 -10  -2  -3  128.70    8.84
 -10   2   3  123.66    8.64
 -10   2   3  111.22   11.08
 -10  -2  -3  109.21   11.37
 -10  -2  -3  125.12    8.42
  -2 -10   3  124.83    7.93
 -10  -2  -3  126.53    8.33
 -10   2   3  134.98    8.97
  10  -2   3  130.70    7.85
   2 -10  -3  134.11    8.73
 -10   2   2  181.79   13.56
 -10  -2  -2  231.32   12.49
 -10   2   2  248.10   12.52
 -10   2   2  201.75   15.07
 -10  -2  -2  212.23   11.58
 -10   2   2  230.44   12.28
  -2 -10   2  222.19   11.28
 -10  -2  -2  224.65   11.71
   2 -10  -2  196.76    9.48
  10  -2   2  233.83   11.33
   2 -10  -2  232.38   12.06
 -10   2   1  164.08   12.88
 -10  -2  -1  189.48   11.43
 -10   2   1  207.42   11.43
 -10   2   1  186.01   14.45
 -10  -2  -1  207.20   11.30
 -10   2   1  207.88   11.58
  -2 -10   1  217.80   10.95
   2 -10  -1  184.60    9.06
  10  -2   1  221.78   10.90
   2 -10  -1  212.36   11.26
 -10  -2   0  110.71    8.27
 -10   2   0  117.53    8.11
 -10   2   0  100.92   10.44
 -10  -2   0   96.17   10.52
 -10  -2   0   97.94    7.53
 -10   2   0  110.54    7.90
  -2 -10   0  107.60    7.41
   2 -10   0   92.57    5.95
  10  -2   0  103.44    7.23
   2 -10   0  105.51    7.56
 -10   2  -1  192.86   11.28
 -10  -2   1  196.52   11.62
 -10  -2   1  200.41   15.34
 -10  -2   1  212.59   11.52
 -10   2  -1  228.85   11.87
  -2 -10  -1  218.65   11.05
   2 -10   1  196.77    9.55
  10  -2  -1  209.44   10.99
   2 -10   1  211.64   11.20
 -10   2  -2  224.67   12.15
 -10  -2   2  245.02   12.91
 -10  -2   2  198.46   15.53
 -10  -2   2  223.21   12.00
 -10   2  -2  243.48   12.37
   2 -10   2  218.16   10.34
  10  -2  -2  241.84   11.99
 -10   2  -3  126.46    8.52
 -10  -2   3  140.16    9.27
 -10   2  -3  131.52   11.69
 -10  -2   3  119.61   11.52
 -10   2  -3  130.89    8.56
 -10  -2   3  117.59    8.30
 -10   2  -3  132.36    8.46
 -10  -2   3  110.59    7.62
   2 -10   3  118.36    6.93
 -10  -2   4   87.10    7.31
   2 -10   4   83.47    5.63
 -10   2  -4   90.06    6.98
 -10  -2   4   80.41    6.71
 -10   2  -4   76.82    6.44
  -2 -10  -4   83.95    6.41
 -10  -2   4   81.58    6.38
 -10   2  -4   68.10    8.66
 -10  -2   4   85.07    9.64
 -10  -2   5   91.83    7.59
 -10   2  -5   85.99    9.39
  10  -2  -5   92.44    7.97
 -10  -2   5   78.59    9.45
 -10   2  -5   87.61    6.87
 -10  -2   5   97.52    7.32
 -10   2  -5   98.80    7.15
   2 -10   5   94.49    6.07
  -2 -10  -5   89.90    6.64
 -10  -2   5   97.20    6.95
 -10  -2   6   69.47    6.48
 -10   2  -6   65.40    8.04
  10  -2  -6   70.60    6.81
 -10  -2   6   64.65    8.43
 -10   2  -6   78.80    6.36
 -10   2  -6   72.36    6.04
 -10  -2   6   65.38    6.04
  -2 -10  -6   75.23    5.93
   2 -10   6   78.79    5.41
 -10  -2   6   65.68    5.73
 -10   2  -6   67.65    4.73
 -10  -2   7   29.29    4.47
  10  -2  -7   41.93    5.30
 -10   2  -7   38.16    4.44
 -10   2  -7   40.09    4.62
 -10  -2   7   31.75    4.46
  -2 -10  -7   40.50    4.43
   2 -10   7   30.75    3.96
   2 -10   7   37.06    3.72
 -10  -2   7   37.28    4.38
 -10   2  -7   33.37    3.33
 -10  -2   8  232.81   12.97
  10  -2  -8  248.79   12.53
 -10   2  -8  244.46   12.12
 -10   2  -8  234.16   12.14
 -10  -2   8  240.92   12.47
  -2 -10  -8  247.98   11.78
   2 -10   8  242.43   11.47
   2 -10   8  247.08   11.23
 -10  -2   8  248.77   12.04
 -10   2  -8  237.33   10.59
 -10   2  -9   12.52    2.24
 -10  -2   9   11.12    3.30
  10  -2  -9   11.36    3.22
 -10  -2   9   13.89    3.05
  -2 -10  -9   10.82    2.58
   2 -10   9   14.96    2.78
 -10   2  -9   11.61    2.71
 -10   2  -9   14.24    2.98
 -10  -2   9   16.73    3.32
   2 -10   9   19.02    2.79
  -2 -10  -9   14.07    3.44
 -10  -2  10  157.59   10.23
  10  -2 -10  165.58    9.62
 -10   2 -10  163.70    9.50
 -10  -2  10  169.65    9.95
  -2 -10 -10  166.19    8.98
   2 -10  10  163.67    8.66
   2 -10  10  167.85    8.78
 -10   2 -10  167.54    9.56
 -10  -2  10  170.77    9.39
  -2 -10 -10  170.66   10.32
 -10   2 -10  162.16    8.25
 -10  -2  11  111.79    8.51
  10  -2 -11  125.47    8.05
 -10   2 -11  120.13    7.93
 -10  -2  11  111.80    7.92
  -2 -10 -11  118.57    7.26
   2 -10  11  128.79    7.25
   2 -10  11  122.31    7.15
 -10   2 -11  118.65    7.77
 -10  -2  11  120.40    7.73
  -2 -10 -11  119.46    8.48
 -10   2 -11  127.15    6.99
 -10  -2  12   32.83    4.57
  10  -2 -12   43.68    4.74
   2 -10  12   35.97    3.69
 -10  -2  12   37.73    4.45
  -2 -10 -12   40.71    3.98
   2 -10  12   36.68    3.64
 -10   2 -12   44.52    4.57
 -10  -2  12   40.09    4.36
  -2 -10 -12   36.18    4.56
 -10   2 -12   33.39    3.47
 -10  -2  13   64.22    6.18
  10  -2 -13   59.40    5.41
   2 -10  13   62.04    4.87
  -2 -10 -13   65.40    4.89
 -10  -2  13   62.05    5.63
   2 -10  13   57.63    4.51
 -10   2 -13   66.63    5.51
 -10  -2  13   64.94    5.45
 -10  -2  13   59.17    5.81
 -10   2 -13   61.95    4.67
  -2 -10 -13   64.81    5.93
 -10  -2  14   35.20    4.58
  10  -2 -14   33.41    4.08
   2 -10  14   28.76    3.08
  -2 -10 -14   34.57    3.50
 -10   2 -14   36.00    4.10
 -10  -2  14   20.12    3.52
   2 -10  14   30.53    3.46
 -10  -2  14   36.90    4.01
 -10  -2  14   32.85    4.36
 -10   2 -14   30.76    3.31
  -2 -10 -14   32.02    4.26
 -10   2 -15   13.22    2.32
 -10  -2  15   14.87    3.29
   2  10 -15   12.18    2.84
  10  -2 -15   13.90    2.82
 -10  -2  15   12.74    2.59
  -2 -10 -15   12.37    2.13
 -10   2 -15   11.62    2.56
   2 -10  15   10.42    2.00
 -10  -2  15   14.27    2.78
 -10  -2  15   10.01    2.80
   2 -10  15   13.25    2.33
  -2 -10 -15   10.94    2.66
 -10  -2  16   75.19    6.57
   2  10 -16   86.08    6.36
  10  -2 -16   80.60    5.99
 -10  -2  16   70.05    5.85
   2 -10  16   90.30    5.73
 -10  -2  16   83.98    5.84
 -10  -2  16   74.19    6.48
 -10   2 -16   84.46    5.51
  -2 -10 -16   74.01    6.23
 -10  -2  17   46.16    5.03
   2  10 -17   43.60    4.43
  10  -2 -17   35.58    3.98
 -10  -2  17   30.10    3.84
   2 -10  17   39.71    3.73
 -10  -2  17   36.84    3.81
 -10  -2  17   40.59    4.75
 -10   2 -17   42.33    3.80
  -2 -10 -17   36.98    4.17
 -10   2 -18   14.79    2.36
 -10  -2  18   14.49    2.96
   2  10 -18   12.47    2.66
  10  -2 -18   13.32    2.49
 -10  -2  18   10.61    2.17
 -10  -2  18   12.06    2.45
   2 -10  18    9.26    2.08
  -2 -10 -18   12.12    2.56
 -10  -2  19   35.33    4.38
   2  10 -19   40.67    4.13
  10  -2 -19   31.15    3.54
   2 -10  19   35.04    3.47
 -10  -2  19   33.09    3.62
 -10  -2  19   33.13    3.41
 -10   2 -19   37.26    3.56
  -2 -10 -19   33.50    3.67
 -10  -2  20   15.92    3.09
   2  10 -20   17.71    2.85
  10  -2 -20   16.59    2.74
   2 -10  20   22.10    2.68
 -10  -2  20   16.99    2.46
 -10  -2  20   14.89    2.58
 -10   2 -20   20.78    2.65
  -2 -10 -20   17.78    2.74
 -10  -2  21   34.27    4.12
   2  10 -21   38.84    3.86
  10  -2 -21   29.94    3.37
   2 -10  21   37.69    3.39
 -10  -2  21   35.04    3.19
 -10   2 -21   32.88    3.25
 -10  -2  22   26.18    3.54
   2  10 -22   30.44    3.37
  10  -2 -22   25.31    3.05
 -10  -2  22   29.49    2.75
 -10   2 -22   31.04    3.06
  10  -2 -23   27.34    3.12
 -10  -2  23   36.30    3.87
   2  10 -23   37.52    3.54
 -10   2 -23   39.50    3.33
   2  10 -24   13.56    2.29
  10  -2 -24   11.65    2.11
 -10   2 -24   13.37    1.98
 -10  -2  24   10.89    2.31
 -10  -2  25   30.50    3.28
   2  10 -25   34.20    3.13
 -10   2 -25   31.22    2.80
   2  10 -26    6.68    1.61
 -10  -2  26    7.86    1.74
   2  10 -27   18.61    2.06
 -10  -2  27   14.45    2.12
 -10  -2  28   20.92    2.22
   2  10 -28   28.31    2.31
 -10   3  28    1.17    0.83
   3 -10 -28    0.54    0.67
 -10   3  27    7.71    1.54
   3 -10 -27    8.85    1.57
 -10   3  26   26.13    2.42
  -3  10 -26   26.77    2.22
 -10   3  26   29.48    2.88
 -10   3  25   46.27    3.49
  -3  10 -25   44.11    3.15
 -10   3  25   47.72    3.88
 -10   3  24   94.60    5.53
  -3  10 -24   93.67    5.12
 -10   3  24  109.94    6.32
 -10   3  23   20.47    2.60
  -3  10 -23   19.95    2.35
  10   3 -23   14.45    2.18
 -10   3  23   18.22    2.84
   3 -10 -23   21.46    2.92
 -10   3  22   43.83    3.93
  -3  10 -22   40.80    3.48
  10   3 -22   36.99    3.29
 -10   3  22   39.27    4.11
   3 -10 -22   46.18    4.28
 -10   3  21    4.21    1.74
  -3  10 -21    3.98    1.57
  10   3 -21    4.77    1.56
 -10   3  21    3.45    1.90
   3 -10 -21    6.71    2.13
 -10   3  20   30.03    3.54
  -3  10 -20   27.16    3.05
  10   3 -20   25.30    2.94
 -10   3  20   31.02    3.83
   3 -10 -20   25.42    3.52
 -10   3  19    1.59    1.31
  -3  10 -19    1.13    1.47
  10   3 -19    2.09    1.41
 -10   3  19    2.05    1.84
   3 -10 -19    3.51    2.05
 -10   3  18   26.87    3.56
  -3  10 -18   24.56    3.07
  10   3 -18   26.70    3.11
 -10   3  18   31.07    4.04
   3 -10 -18   26.48    3.78
 -10   3  17    2.98    1.94
  -3  10 -17    3.72    1.91
  10   3 -17    1.73    1.43
 -10   3  17    3.88    2.27
   3 -10 -17    3.53    2.08
 -10   3  16  101.05    6.94
  -3  10 -16  100.64    6.46
  10   3 -16   99.45    6.30
 -10   3  16  108.59    7.58
   3 -10 -16  123.61    7.91
 -10   3  15   39.39    4.42
  -3  10 -15   39.77    4.03
  10   3 -15   37.33    3.86
  -3  10 -15   37.35    3.29
 -10   3  15   43.65    4.99
   3 -10 -15   34.35    3.22
  -3  10 -15   34.76    2.96
   3 -10 -15   36.87    4.51
 -10   3  14   18.39    3.19
  -3  10 -14   19.72    2.94
  10   3 -14   20.15    3.00
   3 -10 -14   16.16    2.41
 -10   3  14   20.59    3.71
  -3  10 -14   18.88    2.30
   3 -10 -14   21.85    3.66
 -10   3  13   23.17    3.55
  10   3 -13   30.58    3.54
   3 -10 -13   25.36    2.92
 -10   3  13   23.32    3.84
  -3  10 -13   17.41    2.39
   3 -10 -13   23.27    3.73
 -10   3  12   20.19    3.37
  10   3 -12   22.51    3.23
   3 -10 -12   21.25    2.89
 -10  -3 -12   16.54    2.89
 -10   3  12   21.39    3.61
  -3  10 -12   18.82    2.47
   3 -10 -12   17.83    3.30
 -10   3  11   34.64    4.24
  10   3 -11   35.84    4.02
 -10  -3 -11   28.09    3.48
 -10   3  11   25.21    4.02
  -3  10 -11   30.23    3.16
   3 -10 -11   32.47    4.31
  -3  10 -10   14.65    2.45
 -10   3  10   11.72    2.84
  10   3 -10   13.67    2.91
  -3 -10  10   12.56    2.58
 -10  -3 -10   10.25    2.35
 -10   3  10   13.26    3.21
   3 -10 -10   11.62    3.02
 -10   3   9   87.20    6.88
  10   3  -9   95.07    6.66
  -3 -10   9  102.63    6.58
 -10   3   9   79.84    6.80
 -10  -3  -9   88.91    6.25
  -3  10  -9   83.05    5.70
   3 -10  -9   77.83    6.82
 -10   3   8  157.15    9.68
  10   3  -8  177.23    9.42
 -10   3   8  167.46   10.09
  -3 -10   8  172.33    9.19
 -10  -3  -8  151.24    8.73
  10  -3   8  146.91    8.11
  -3  10  -8  164.00    8.64
   3 -10  -8  150.88    9.80
 -10   3   7  219.31   11.86
  10   3  -7  242.02   11.68
  -3 -10   7  235.13   11.36
 -10   3   7  239.48   12.43
 -10  -3  -7  215.02   11.00
  -3  10  -7  233.61   11.08
  10  -3   7  214.97   10.56
   3 -10  -7  233.84   12.27
 -10   3   6   32.65    4.40
  10   3  -6   41.46    4.70
 -10  -3  -6   34.14    4.27
 -10   3   6   37.09    4.65
  -3 -10   6   34.26    4.17
 -10  -3  -6   34.45    4.08
  -3  10  -6   28.69    3.60
  10  -3   6   30.83    3.58
   3 -10  -6   32.82    4.50
 -10   3   5  109.06    7.67
  10   3  -5  105.72    7.44
 -10  -3  -5  102.12    7.25
 -10  -3  -5   98.55    6.85
  -3 -10   5  106.08    7.10
 -10   3   5  108.45    7.84
   3 -10  -5   85.72    5.50
  10  -3   5  108.04    6.83
   3 -10  -5   94.44    7.25
 -10   3   4   62.63    5.85
  10   3  -4   69.17    6.11
 -10  -3  -4   70.36    5.94
 -10  -3  -4   65.23    5.57
 -10   3   4   85.09    6.74
  -3 -10   4   73.83    6.02
   3 -10  -4   57.80    4.49
  10  -3   4   74.00    5.68
   3 -10  -4   75.15    6.14
 -10   3   3   50.77    5.20
 -10  -3  -3   46.86    4.85
 -10  -3  -3   45.36    4.68
  -3 -10   3   50.81    5.09
 -10   3   3   58.38    5.52
   3 -10  -3   41.92    3.82
  10  -3   3   48.22    4.67
   3 -10  -3   43.38    4.85
 -10   3   2   50.16    5.23
 -10  -3  -2   50.12    5.06
 -10   3   2   52.81    5.31
 -10  -3  -2   68.21    5.54
  -3 -10   2   53.02    5.14
   3 -10  -2   51.05    4.19
  10  -3   2   54.13    4.96
   3 -10  -2   48.87    4.95
 -10  -3  -1   92.52    7.27
 -10   3   1   90.96    6.90
 -10  -3  -1   92.33    6.81
 -10   3   1   92.14    7.00
 -10  -3  -1   88.08    6.60
  -3 -10   1   89.45    6.69
   3 -10  -1   87.64    5.72
  10  -3   1   90.18    6.59
   3 -10  -1   79.72    6.34
 -10  -3   0  113.73    8.23
 -10   3   0  117.71    8.02
 -10  -3   0  113.17    7.73
 -10   3   0  111.44    7.81
  -3 -10   0  117.17    7.79
   3 -10   0  112.50    6.72
  10  -3   0  120.57    7.87
   3 -10   0  121.92    7.76
 -10   3  -1   83.28    6.61
 -10  -3   1   78.88    6.87
 -10  -3   1   79.17    6.48
 -10   3  -1   90.95    6.81
  -3 -10  -1   91.02    6.85
 -10   3  -1   90.41    6.72
   3 -10   1   86.84    5.84
  10  -3  -1   94.99    6.85
 -10  -3   2   57.16    5.66
 -10  -3   2   52.39    5.14
 -10   3  -2   57.06    5.42
 -10   3  -2   52.48    5.21
   3 -10   2   50.81    4.39
  10  -3  -2   54.86    5.30
 -10  -3   3   47.70    5.30
 -10  -3   3   47.72    4.93
 -10   3  -3   53.16    5.06
 -10   3  -3   43.04    4.71
 -10   3  -3   42.69    3.68
   3 -10   3   46.65    4.23
  10  -3  -3   49.71    5.09
 -10  -3   4   60.71    6.13
  10  -3  -4   75.04    6.88
  -3 -10  -4   75.82    6.04
 -10   3  -4   78.64    6.22
 -10  -3   4   70.47    5.94
 -10   3  -4   70.00    5.94
 -10   3  -4   72.74    4.89
   3 -10   4   72.98    5.35
  10  -3  -4   71.75    6.15
 -10  -3   5  100.55    7.74
  10  -3  -5  113.11    7.97
 -10   3  -5  103.99    7.25
 -10   3  -5   99.93    7.10
 -10  -3   5  102.41    7.23
  -3 -10  -5  103.49    7.07
 -10  -3   5  105.93    7.23
 -10   3  -5   96.99    5.95
   3 -10   5  100.06    6.44
 -10  -3   6   27.68    4.60
  10  -3  -6   32.91    4.67
 -10   3  -6   31.46    4.03
 -10   3  -6   34.44    4.21
 -10  -3   6   30.35    4.09
  -3 -10  -6   37.89    4.33
 -10  -3   6   31.19    4.25
 -10   3  -6   34.80    3.40
   3 -10   6   34.33    3.68
 -10  -3   7  216.03   12.07
  10  -3  -7  232.33   11.61
 -10   3  -7  197.90   10.87
 -10   3  -7  237.62   11.52
 -10  -3   7  213.59   11.20
  -3 -10  -7  236.43   11.36
 -10  -3   7  234.91   11.58
 -10   3  -7  211.87    9.96
   3 -10   7  223.52   10.60
 -10  -3   8  159.25   10.00
  10  -3  -8  164.34    9.43
 -10   3  -8  157.32    9.06
 -10  -3   8  162.34    9.24
  -3 -10  -8  164.97    9.06
 -10   3  -8  160.42    9.13
 -10  -3   8  164.16    9.29
 -10   3  -8  157.23    8.08
   3 -10   8  156.52    8.46
 -10  -3   9   91.34    7.23
  10  -3  -9   82.49    6.36
 -10   3  -9   83.92    6.30
   3 -10   9   88.71    5.95
 -10  -3   9   80.48    6.23
  -3 -10  -9   91.22    6.34
 -10   3  -9   91.48    6.48
 -10  -3   9   91.46    6.59
 -10   3  -9   87.84    5.69
 -10   3 -10   16.38    2.44
 -10  -3  10   11.42    2.96
  10  -3 -10    9.37    2.58
 -10  -3  10   13.16    2.95
  -3 -10 -10   10.79    2.61
 -10   3 -10   14.76    2.79
 -10   3 -10    8.39    2.29
 -10  -3  10   15.12    2.77
   3 -10  10   14.02    2.47
 -10  -3  11   36.07    4.56
  10  -3 -11   27.41    3.69
 -10  -3  11   25.95    3.47
  -3 -10 -11   30.03    3.56
   3 -10  11   28.81    3.25
   3 -10  11   29.92    3.38
 -10   3 -11   34.12    3.89
 -10  -3  11   33.25    4.11
 -10   3 -11   30.62    3.29
 -10  -3  12   23.24    3.67
  10  -3 -12   22.59    3.34
 -10  -3  12   24.65    3.39
   3 -10  12   21.91    2.82
 -10   3 -12   19.87    3.15
 -10  -3  12   14.98    2.63
   3 -10  12   17.52    2.64
 -10   3 -12   19.66    2.69
 -10  -3  13   15.73    3.13
  10  -3 -13   19.61    3.00
 -10  -3  13   21.04    3.21
   3 -10  13   20.27    2.63
 -10   3 -13   23.10    3.31
 -10  -3  13   19.10    2.92
   3 -10  13   21.29    2.89
 -10   3 -13   22.57    2.83
 -10  -3  14   20.64    3.42
   3  10 -14   21.96    3.23
  10  -3 -14   18.96    3.05
   3 -10  14   18.38    2.68
 -10  -3  14   20.92    3.17
   3 -10  14   18.97    2.44
 -10   3 -14   20.28    2.98
 -10  -3  14   17.79    2.64
 -10  -3  14   17.40    3.27
 -10   3 -14   20.50    2.76
   3  10 -15   38.85    4.12
 -10  -3  15   36.61    4.41
  10  -3 -15   31.61    3.69
 -10  -3  15   42.98    4.20
   3 -10  15   43.43    3.87
   3 -10  15   33.66    3.05
 -10  -3  15   33.68    4.30
 -10   3 -15   43.63    3.82
 -10  -3  16   96.19    7.21
   3  10 -16  116.05    7.06
  10  -3 -16   99.35    6.47
 -10  -3  16  113.09    6.88
   3 -10  16  105.84    6.33
 -10  -3  16   98.88    7.19
 -10   3 -16  107.99    6.29
 -10   3 -17    4.08    1.55
 -10  -3  17    1.85    1.85
   3  10 -17    2.18    1.73
  10  -3 -17    2.36    1.69
 -10  -3  17    4.41    1.88
 -10  -3  17    3.10    1.91
   3 -10  17    4.00    1.62
 -10  -3  18   29.67    3.78
   3  10 -18   28.89    3.42
  10  -3 -18   26.32    3.18
   3 -10  18   28.29    3.08
 -10  -3  18   29.34    3.32
 -10  -3  18   30.78    3.89
 -10   3 -18   28.79    3.10
 -10   3 -19    1.83    1.38
 -10  -3  19    1.45    1.53
   3  10 -19    1.60    1.31
  10  -3 -19    2.32    1.49
 -10  -3  19    2.84    1.70
 -10  -3  19    0.24    1.70
 -10  -3  20   21.27    3.26
   3  10 -20   32.59    3.44
  10  -3 -20   24.38    2.90
 -10  -3  20   29.29    3.10
 -10  -3  20   24.29    3.39
 -10   3 -20   29.76    2.99
 -10   3 -21    5.49    1.49
 -10  -3  21    4.20    1.84
   3  10 -21    5.48    1.67
  10  -3 -21    4.72    1.55
 -10  -3  21    4.51    1.71
 -10  -3  21    3.46    1.77
 -10  -3  22   39.30    3.78
   3  10 -22   45.74    3.80
  10  -3 -22   36.69    3.30
 -10  -3  22   42.33    3.33
 -10  -3  22   38.81    3.95
 -10   3 -22   41.88    3.43
   3  10 -23   25.04    2.67
 -10  -3  23   16.57    2.52
 -10  -3  23   19.38    2.22
 -10  -3  23   24.31    2.91
 -10   3 -23   20.70    2.37
 -10  -3  24   87.78    5.47
   3  10 -24  105.63    5.57
 -10  -3  24   97.66    5.92
 -10   3 -24  107.47    5.42
   3  10 -25   51.79    3.43
 -10   3 -25   51.59    3.42
   3  10 -26   31.66    2.50
 -10   3 -26   33.74    2.59
   3  10 -27    9.22    1.28
  10  -3 -27   10.19    1.58
  10  -3 -28    2.01    0.86
   4 -10 -27   41.97    2.75
 -10   4  26  118.42    5.62
   4 -10 -26  113.66    5.62
 -10   4  25   37.62    3.08
   4 -10 -25   40.22    3.21
 -10   4  24  101.42    5.64
   4 -10 -24  100.07    5.68
 -10   4  23   26.55    2.54
 -10   4  23   37.14    3.34
   4 -10 -23   32.94    3.20
 -10   4  22    7.65    1.51
 -10   4  22    6.89    1.81
   4 -10 -22    6.81    1.93
 -10   4  21   30.02    2.88
 -10   4  21   34.51    3.54
   4 -10 -21   35.28    3.64
 -10   4  20   69.57    4.78
 -10   4  20   80.14    5.69
   4 -10 -20   80.17    5.69
 -10   4  19    4.34    1.47
  10   4 -19    3.71    1.35
 -10   4  19    5.24    2.06
   4 -10 -19    6.81    2.11
 -10   4  18   13.98    2.31
  -4  10 -18   15.10    2.22
  10   4 -18   15.71    2.24
 -10   4  18   18.54    3.00
  -4  10 -18   15.92    1.84
   4 -10 -18   17.76    2.91
 -10   4  17   22.47    2.95
  -4  10 -17   18.63    2.47
  10   4 -17   20.58    2.60
 -10   4  17   20.99    3.20
  -4  10 -17   20.79    2.18
   4 -10 -17   23.76    3.43
 -10   4  16   26.64    3.21
  -4  10 -16   21.59    2.67
  10   4 -16   19.22    2.54
 -10   4  16   21.73    3.36
  -4  10 -16   24.53    2.45
   4 -10 -16   25.02    3.46
  -4  10 -15    9.48    1.70
 -10   4  15    7.54    2.05
  -4  10 -15    6.63    1.77
  10   4 -15    8.26    1.98
  -4  10 -15    7.67    1.58
   4 -10 -15   10.36    1.83
 -10   4  15    7.37    2.35
   4 -10 -15    9.42    2.56
  -4  10 -14   26.86    3.11
 -10   4  14   32.06    3.67
  10   4 -14   33.42    3.32
  -4  10 -14   27.34    2.86
 -10   4  14   31.21    4.00
   4 -10 -14   28.23    2.93
  -4  10 -14   31.57    2.98
   4 -10 -14   33.95    4.12
  -4  10 -13    2.93    1.26
 -10   4  13    1.61    1.46
  -4  10 -13    2.51    1.55
  10   4 -13    4.29    1.78
  -4  10 -13    3.16    1.46
   4 -10 -13    1.33    1.45
 -10   4  13    4.50    2.05
   4 -10 -13    3.94    2.17
  -4  10 -12   76.79    5.49
 -10   4  12   85.01    6.16
  10   4 -12   80.08    5.55
  -4  10 -12   80.94    5.43
 -10   4  12   85.45    6.54
  -4  10 -12   81.93    5.27
   4 -10 -12   95.59    6.81
 -10   4  11   27.52    3.60
  10   4 -11   25.89    3.24
  -4  10 -11   24.63    3.20
  -4  10 -11   26.58    3.16
 -10   4  11   29.60    3.99
  -4  10 -11   29.10    3.16
  10  -4  11   23.38    2.72
   4 -10 -11   26.60    3.89
 -10   4  10  158.04    8.93
  10   4 -10  149.87    8.26
 -10   4  10  154.17    9.25
  10  -4  10  148.89    7.75
  -4  10 -10  156.57    8.10
   4 -10 -10  163.36    9.40
 -10   4   9  151.58    8.70
  10   4  -9  151.98    8.24
 -10   4   9  159.81    9.24
 -10  -4  -9  128.86    7.47
  10  -4   9  143.15    7.68
   4 -10  -9  143.07    9.01
  -4  10  -9  139.99    7.92
 -10   4   8  255.07   12.22
  10   4  -8  250.01   11.67
 -10   4   8  274.81   12.93
 -10  -4  -8  223.77   10.93
  -4  10  -8  265.37   11.73
  10  -4   8  253.06   11.33
   4 -10  -8  257.79   12.57
 -10   4   7   70.46    5.82
  10   4  -7   69.27    5.40
 -10   4   7   78.38    6.31
 -10  -4  -7   62.80    4.96
  10  -4   7   71.92    5.26
  -4  10  -7   72.10    5.51
   4 -10  -7   58.21    5.61
 -10   4   6  181.70    9.68
  10   4  -6  159.75    8.89
 -10   4   6  172.05    9.77
 -10  -4  -6  152.49    8.44
  -4  10  -6  191.76    9.53
   4 -10  -6  150.02    7.92
  10  -4   6  174.35    9.00
   4 -10  -6  171.39    9.74
 -10   4   5  250.07   11.97
  10   4  -5  244.03   11.55
 -10   4   5  249.38   12.24
 -10  -4  -5  216.52   10.70
   4 -10  -5  215.33   10.24
  10  -4   5  245.91   11.46
   4 -10  -5  238.33   11.74
  -4  10  -5  258.29   11.89
 -10   4   4   47.78    4.84
  10   4  -4   46.20    4.62
 -10   4   4   57.92    5.30
 -10  -4  -4   48.76    4.42
   4 -10  -4   46.57    4.04
  -4  10  -4   64.33    5.46
  10  -4   4   52.04    4.72
   4 -10  -4   46.83    4.60
 -10   4   3   26.75    3.61
  10   4  -3   27.50    3.68
 -10   4   3   29.59    3.86
 -10  -4  -3   24.25    3.15
   4 -10  -3   19.74    2.78
  10  -4   3   27.37    3.49
   4 -10  -3   22.37    3.17
 -10   4   2    6.09    2.10
  10   4  -2    8.63    2.49
 -10  -4  -2   10.40    2.34
 -10   4   2    7.03    2.27
   4 -10  -2    6.57    1.75
  10  -4   2    6.34    2.27
   4 -10  -2    8.81    2.33
  10   4  -1   64.39    5.53
 -10  -4  -1   66.20    5.32
 -10  -4  -1   64.50    5.07
 -10   4   1   67.34    5.61
 -10   4   1   66.55    5.52
   4 -10  -1   57.36    4.64
  10  -4   1   63.50    5.43
   4 -10  -1   54.82    4.87
 -10  -4   0   19.11    2.98
 -10   4   0   21.02    3.33
 -10  -4   0   18.29    2.94
 -10   4   0   17.06    3.09
   4 -10   0   20.48    2.85
  10  -4   0   16.25    3.04
   4 -10   0   17.76    2.88
  10  -4  -1   58.26    5.93
 -10  -4   1   54.31    4.86
 -10   4  -1   68.77    5.55
 -10   4  -1   65.35    5.40
 -10  -4   1   56.73    4.92
 -10  -4   1   68.93    5.55
   4 -10   1   55.00    4.66
 -10   4  -1   55.19    4.14
  10  -4  -1   64.89    5.55
 -10   4  -2    7.66    1.90
 -10  -4   2    8.64    2.46
  10  -4  -2    6.95    3.32
 -10  -4   2    7.15    2.51
 -10  -4   2    6.73    2.11
 -10   4  -2    9.28    2.33
 -10   4  -2    8.95    2.33
 -10  -4   2    6.93    2.32
   4 -10   2    8.69    2.09
  10  -4  -2    6.30    2.26
 -10  -4   3   25.47    3.65
  10  -4  -3   23.06    3.83
 -10  -4   3   24.36    3.12
 -10   4  -3   26.44    3.56
 -10   4  -3   30.40    3.76
 -10  -4   3   23.03    3.33
 -10  -4   3   27.35    3.70
   4 -10   3   24.31    3.16
 -10   4  -3   24.14    2.83
  10  -4  -3   25.31    3.73
 -10  -4   4   46.29    5.14
  10  -4  -4   54.15    5.08
 -10  -4   4   45.17    4.38
 -10   4  -4   57.29    5.02
 -10   4  -4   55.35    4.90
   4 -10   4   51.73    4.56
 -10   4  -4   54.15    4.29
  10  -4  -4   57.75    5.45
 -10  -4   5  215.33   11.78
  10  -4  -5  250.16   11.67
 -10  -4   5  220.05   10.85
 -10   4  -5  247.26   11.60
 -10   4  -5  235.09   11.39
   4 -10   5  243.98   11.21
 -10   4  -5  243.64   10.65
  10  -4  -5  250.62   12.31
 -10  -4   6  153.21    9.52
  10  -4  -6  171.36    9.14
 -10   4  -6  169.46    9.06
 -10  -4   6  151.93    8.46
 -10   4  -6  162.39    9.02
 -10   4  -6  176.31    8.52
   4 -10   6  177.27    8.95
  10  -4  -6  181.99   10.03
 -10  -4   7   57.60    5.66
  10  -4  -7   58.63    5.21
 -10   4  -7   71.88    5.55
 -10   4  -7   62.31    4.78
   4 -10   7   63.34    5.00
  10  -4  -7   70.21    6.03
 -10  -4   8  227.29   12.25
  10  -4  -8  251.28   11.87
 -10   4  -8  273.35   12.05
 -10   4  -8  259.07   12.00
 -10  -4   8  282.15   12.73
 -10   4  -8  246.74   11.17
   4 -10   8  264.39   11.78
  10  -4  -8  278.05   13.09
 -10  -4   9  140.44    8.93
  10  -4  -9  144.80    8.22
 -10  -4   9  150.07    8.77
 -10   4  -9  145.72    8.09
 -10   4  -9  157.57    8.53
 -10   4  -9  158.54    7.98
   4 -10   9  137.62    7.90
  10  -4  -9  154.97    9.18
 -10  -4  10  136.58    8.76
  10  -4 -10  146.54    8.11
 -10  -4  10  167.18    9.04
 -10   4 -10  150.06    8.32
 -10   4 -10  153.87    7.88
   4 -10  10  148.86    8.04
 -10  -4  11   25.92    3.73
  10  -4 -11   23.66    3.11
  -4  10  11   27.80    3.30
 -10  -4  11   28.43    3.75
 -10   4 -11   27.76    3.42
   4 -10  11   24.81    3.15
 -10   4 -11   27.43    3.13
   4  10 -12   84.57    5.93
 -10  -4  12   81.34    6.30
  10  -4 -12   74.00    5.41
  -4  10  12   81.79    5.61
 -10  -4  12   92.66    6.37
 -10   4 -12   80.57    5.77
   4 -10  12   84.06    5.67
 -10   4 -12   94.37    5.78
 -10   4 -13    3.43    1.52
 -10  -4  13    2.46    1.84
   4  10 -13    3.56    1.73
  10  -4 -13    4.89    1.73
  -4  10  13    4.81    1.54
 -10  -4  13    1.81    1.87
   4 -10  13    2.29    1.40
   4 -10  13    2.52    1.58
   4  10 -14   31.95    3.49
 -10  -4  14   28.00    3.60
  10  -4 -14   34.38    3.43
  -4  10  14   32.58    3.23
 -10  -4  14   40.93    4.13
   4 -10  14   29.94    2.89
   4 -10  14   31.43    3.35
 -10   4 -14   31.91    3.32
 -10   4 -15   12.66    2.18
 -10  -4  15    7.12    2.01
   4  10 -15   11.12    2.15
  10  -4 -15    8.80    1.91
 -10  -4  15   12.29    2.59
   4 -10  15    9.85    1.66
   4 -10  15   10.17    2.08
   4  10 -16   22.06    2.85
 -10  -4  16   20.43    3.01
  10  -4 -16   17.32    2.58
 -10   4 -16   23.99    2.78
   4  10 -17   22.04    2.78
 -10  -4  17   21.03    2.99
  10  -4 -17   18.15    2.41
 -10  -4  17   20.02    2.98
 -10   4 -17   22.26    2.63
 -10  -4  18   17.97    2.61
   4  10 -18   21.80    2.67
  10  -4 -18   14.99    2.22
 -10  -4  18   22.71    2.84
 -10   4 -18   17.37    2.41
 -10   4 -19    5.75    1.59
 -10  -4  19    5.77    1.64
   4  10 -19    5.80    1.60
  10  -4 -19    3.55    1.12
 -10  -4  19    3.90    1.66
   4  10 -20   72.00    4.69
   4 -10  20   86.58    4.90
 -10  -4  20   81.03    5.07
 -10   4 -20   81.96    4.92
   4  10 -21   31.71    2.87
   4 -10  21   31.10    2.82
 -10  -4  21   31.06    2.98
 -10   4 -21   32.67    2.90
 -10   4 -22    3.42    1.27
   4  10 -22    3.48    1.26
 -10  -4  22    7.12    1.56
   4 -10  22    5.96    1.45
  10  -4 -22    4.98    1.68
   4  10 -23   32.79    2.60
   4 -10  23   38.72    2.82
 -10  -4  23   36.48    2.86
 -10   4 -23   34.50    2.85
  10  -4 -23   30.32    3.11
   4  10 -24   74.41    4.05
 -10  -4  24   86.70    4.41
  10  -4 -24   83.54    5.06
 -10   4 -25   45.44    2.92
  10  -4 -25   36.67    3.04
 -10   4 -26  132.29    5.16
  10  -4 -26   89.38    4.97
   5 -10 -25   29.02    2.25
 -10   5  24   16.86    1.82
   5 -10 -24   18.16    1.95
 -10   5  23    2.52    1.07
   5 -10 -23    2.30    1.05
 -10   5  22   14.85    1.98
   5 -10 -22   15.52    2.08
 -10   5  21   61.00    4.25
   5 -10 -21   74.13    4.73
 -10   5  20   12.04    2.08
  -5  10 -20   13.51    1.41
   5 -10 -20   17.76    2.51
 -10   5  19   26.20    2.87
   5 -10 -19   21.94    2.80
  -5  10 -19   20.23    1.91
  -5  10 -18    3.27    1.05
 -10   5  18    5.17    1.63
   5 -10 -18    2.77    1.60
 -10   5  17   65.49    4.93
  -5  10 -17   62.22    3.83
   5 -10 -17   72.45    5.16
 -10   5  16   15.10    2.49
  -5  10 -16   16.47    1.99
   5 -10 -16   17.63    2.70
 -10   5  15   11.00    2.37
  -5  10 -15   14.87    1.98
   5 -10 -15   16.33    2.64
  10  -5  14   68.46    4.21
  -5  10 -14   70.07    4.41
 -10   5  14   80.02    5.64
   5 -10 -14   77.99    4.56
  10  -5  14   72.06    4.23
  -5  10 -14   75.02    4.67
   5 -10 -14   74.50    5.53
  -5  10 -13   10.83    1.97
  -5  10 -13   10.04    1.86
 -10   5  13    9.48    2.35
  10  -5  13    9.40    1.65
   5 -10 -13   13.31    2.50
  -5  10 -12   12.29    2.05
  -5  10 -12   11.60    2.05
 -10   5  12   12.98    2.55
  10  -5  12   14.71    2.01
   5 -10 -12    7.79    2.22
  -5  10 -11   54.90    4.17
 -10   5  11   47.50    4.53
  -5  10 -11   46.25    3.88
  10  -5  11   47.71    3.76
   5 -10 -11   47.85    4.44
  -5  10 -10   90.95    5.84
 -10   5  10   96.74    6.63
  -5  10 -10  104.40    6.09
  10  -5  10   92.90    5.65
   5 -10 -10   89.56    6.27
  -5  10  -9   46.00    4.08
 -10   5   9   42.90    4.44
  10  -5   9   48.22    4.03
  -5  10  -9   54.44    4.41
   5 -10  -9   41.95    4.31
  -5  10  -8  113.56    6.97
 -10   5   8  120.87    7.49
  10  -5   8  126.94    6.96
  -5  10  -8  113.92    6.94
   5 -10  -8  121.22    7.30
  -5  10  -7   15.87    2.85
  -5  10  -7   24.41    3.23
 -10   5   7   23.95    3.37
   5 -10  -7   24.85    2.79
  10  -5   7   27.71    3.18
   5 -10  -7   22.58    3.40
  -5  10  -6  226.05   10.89
 -10   5   6  238.56   11.25
 -10   5   6  214.73   10.55
   5 -10  -6  226.41   10.14
  10  -5   6  229.58   10.72
  -5  10  -6  244.32   11.16
   5 -10  -6  219.62   10.66
   5 -10  -5   36.40    4.02
  -5  10  -5   40.03    4.18
 -10   5   5   41.12    4.27
 -10   5   5   39.77    4.05
   5 -10  -5   41.18    3.76
  10  -5   5   46.19    4.23
  -5  10  -5   46.98    4.48
   5 -10  -5   41.21    4.10
  -5  10  -4  124.44    7.30
 -10   5   4  130.68    7.35
 -10   5   4  133.55    7.27
  -5  10  -4  141.03    7.68
   5 -10  -4  119.83    6.61
  10  -5   4  142.36    7.48
   5 -10  -4  129.16    6.91
 -10   5   3  115.50    7.02
 -10   5   3  123.00    7.00
   5 -10  -3  123.90    6.75
  10  -5   3  112.95    6.94
   5 -10  -3  101.53    6.29
  -5  10  -3  136.61    7.81
  -5  10  -2   11.90    2.85
  10  -5   2    7.95    1.92
 -10   5   2   10.48    2.32
 -10   5   2    7.20    2.13
   5 -10  -2   10.91    2.21
  10  -5   2    9.35    2.43
   5 -10  -2    7.52    1.88
  10  -5   1    8.62    1.88
   5 -10  -1   12.86    2.67
  -5  10  -1    9.88    2.32
 -10   5   1   11.83    2.31
 -10   5   1    8.82    2.20
   5 -10  -1    8.68    2.04
  10  -5   1   13.26    2.70
   5 -10   0   29.74    3.70
  -5  10   0   29.75    3.69
  10  -5   0   24.35    2.97
 -10   5   0   30.68    3.46
 -10   5   0   28.12    3.40
   5 -10   0   33.90    3.51
  10  -5   0   26.76    3.52
 -10   5   0   25.25    2.75
 -10   5  -1   12.82    2.08
  10  -5  -1   10.08    1.83
   5 -10   1   12.59    2.70
  -5  10   1    9.44    2.31
 -10  -5   1    7.12    2.30
 -10   5  -1   11.44    2.34
 -10   5  -1    8.34    2.11
   5 -10   1    6.80    1.92
  10  -5  -1   11.75    2.53
 -10   5  -2    9.97    2.00
  10  -5  -2    7.79    1.80
   5 -10   2   10.51    2.62
  -5  10   2   12.03    2.46
 -10  -5   2    9.49    2.47
 -10   5  -2    6.66    2.04
 -10   5  -2    9.98    2.26
   5 -10   2   10.35    2.19
  10  -5  -2   13.10    2.80
   5 -10   3  118.68    7.09
  -5  10   3  113.61    7.22
 -10   5  -3  121.98    6.90
 -10   5  -3  117.83    6.78
 -10  -5   3  115.94    7.20
   5 -10   3  116.39    6.80
  10  -5  -3  113.42    7.39
 -10   5  -3  111.72    6.20
   5 -10   4  132.81    7.21
  -5  10   4  131.07    7.47
 -10   5  -4  128.24    6.87
 -10   5  -4  130.08    6.95
 -10  -5   4  138.90    7.68
   5 -10   4  131.34    7.07
 -10   5  -4  130.53    6.54
  10  -5  -4  135.81    7.84
  -5  10   5   41.58    4.13
 -10   5  -5   39.00    3.59
 -10   5  -5   37.80    3.64
 -10  -5   5   40.00    4.35
   5 -10   5   36.76    3.64
 -10   5  -5   42.30    3.63
  10  -5  -5   37.38    4.21
  -5  10   6  261.27   11.69
 -10   5  -6  231.43   10.57
 -10   5  -6  230.16   10.74
 -10  -5   6  257.36   11.78
   5 -10   6  236.25   10.98
 -10   5  -6  233.06   10.47
  10  -5  -6  242.85   11.85
  -5  10   7   30.00    3.54
 -10   5  -7   28.35    3.15
 -10  -5   7   26.92    3.78
 -10   5  -7   28.52    3.37
   5 -10   7   23.43    3.00
 -10   5  -7   28.76    3.17
  10  -5  -7   25.29    3.58
  -5  10   8  133.00    7.48
 -10   5  -8  124.40    6.96
 -10   5  -8  125.36    6.83
   5 -10   8  124.39    7.12
  10  -5  -8  138.00    8.15
   5  10  -9   45.18    3.90
  -5  10   9   46.23    4.25
 -10   5  -9   46.65    4.09
 -10   5  -9   46.63    3.95
   5 -10   9   57.30    4.48
  10  -5  -9   61.59    5.23
  -5  10  10  106.66    6.36
   5  10 -10   92.60    5.75
 -10   5 -10   96.30    5.87
   5 -10  10   98.48    6.06
  10  -5 -10   95.36    6.78
  -5  10  11   52.79    4.24
 -10   5 -11   50.79    4.04
   5 -10  11   53.54    4.26
  10  -5 -11   45.89    4.72
 -10   5 -12   13.79    2.18
  -5  10  12   14.74    2.23
 -10  -5  12   14.11    2.79
   5 -10  12   10.81    2.16
  10  -5 -12   12.44    2.74
 -10   5 -13   12.34    2.09
  -5  10  13    9.30    1.87
 -10  -5  13    9.57    2.42
   5 -10  13   10.82    1.81
  10  -5 -13   11.02    2.56
 -10  -5  14   76.69    5.51
   5 -10  14   77.85    4.43
  10  -5 -14   73.21    5.67
 -10   5 -14   81.99    5.09
 -10  -5  15   16.03    2.73
 -10   5 -15   16.64    2.25
 -10   5 -16   15.27    2.22
 -10  -5  16   15.99    2.62
 -10  -5  17   66.13    4.78
 -10   5 -17   67.99    4.36
 -10   5 -18    2.73    1.19
 -10  -5  18    4.07    1.69
   5 -10  18    4.63    1.35
 -10  -5  19   23.64    2.68
   5 -10  19   25.24    2.45
 -10   5 -19   24.57    2.48
  10  -5 -19   17.64    2.80
   5 -10  20   19.47    2.06
 -10  -5  20   15.98    2.17
 -10   5 -20   16.70    2.00
  10  -5 -20   12.22    2.21
   5 -10  21   68.11    3.91
 -10  -5  21   66.94    4.20
  10  -5 -21   58.41    4.33
 -10   5 -21   70.17    4.04
 -10  -5  22   13.97    1.88
   5 -10  22   17.40    1.80
 -10   5 -22   14.22    1.75
  10  -5 -22   12.48    1.90
 -10   5 -23    3.58    1.06
 -10  -5  23    3.50    1.08
  10  -5 -23    1.87    0.98
 -10  -5  24   18.60    1.72
 -10   5 -24   21.20    1.85
 -10   5 -25   30.54    2.10
  -6 -10  21    9.97    1.38
   6 -10 -21   11.57    1.45
  -6 -10  20    3.07    1.07
   6 -10 -20    2.65    1.02
  -6  10 -19    4.17    0.88
  -6 -10  19    4.52    1.24
 -10   6  19    4.41    1.10
   6 -10 -19    6.11    1.33
  -6  10 -18    1.90    0.83
  -6 -10  18    0.89    0.98
 -10   6  18    0.76    0.82
   6 -10 -18    2.46    1.12
  -6 -10  17   19.27    2.17
 -10   6  17   13.17    1.90
  -6  10 -17   19.31    1.91
   6 -10 -17   17.55    2.11
  -6  10 -16    5.76    1.26
  -6 -10  16    2.88    1.27
 -10   6  16    3.10    1.21
   6 -10 -16    3.58    1.28
 -10   6  15   50.51    3.75
  -6 -10  15   55.53    3.86
  10  -6  15   55.04    3.19
  -6  10 -15   62.99    3.77
   6 -10 -15   57.25    4.07
  10  -6  14    9.78    1.41
  -6 -10  14   14.90    2.10
 -10   6  14   10.83    1.89
  10  -6  14   15.41    1.75
  -6  10 -14   17.79    2.10
   6 -10 -14   12.61    2.04
  10  -6  13   24.88    2.29
  -6  10 -13   27.97    2.57
 -10   6  13   24.01    2.73
  -6 -10  13   26.20    2.72
  10  -6  13   27.67    2.43
  -6  10 -13   32.05    2.83
   6 -10 -13   28.98    2.92
  10  -6  12   88.97    4.83
  -6  10 -12   91.69    5.08
 -10   6  12   81.73    5.22
  10  -6  12   87.15    4.84
  -6  10 -12   96.39    5.27
   6 -10 -12   82.48    5.17
  10  -6  11   60.92    4.13
  -6  10 -11   66.67    4.41
 -10   6  11   60.58    4.46
  10  -6  11   71.14    4.39
   6 -10 -11   66.14    4.53
  -6  10 -11   77.09    4.73
  10  -6  10   83.46    5.02
  -6  10 -10   94.85    5.45
 -10   6  10   80.66    5.24
  -6  10 -10   85.28    5.23
  10  -6  10   85.28    5.08
   6 -10 -10   75.59    4.95
  -6  10  -9   14.04    2.22
  -6  10  -9   10.53    2.06
 -10   6   9    9.52    1.98
  10  -6   9   11.73    2.02
   6 -10  -9    8.73    1.76
  -6  10  -8   17.31    2.41
  -6  10  -8   16.57    2.47
 -10   6   8   12.74    2.22
  10  -6   8   18.48    2.46
   6 -10  -8   12.90    2.08
  -6  10  -7  134.25    7.48
 -10   6   7  138.21    7.29
   6 -10  -7  145.64    7.21
  10  -6   7  144.88    7.46
  -6  10  -7  165.11    7.94
  -6  10  -6   16.12    2.58
   6 -10  -6   14.32    2.43
  -6  10  -6   15.18    2.48
 -10   6   6   11.94    2.21
   6 -10  -6   15.99    2.35
  10  -6   6   12.24    2.27
   6 -10  -5   45.10    4.11
  -6  10  -5   50.33    4.27
 -10   6   5   46.29    3.87
   6 -10  -5   45.08    3.83
  10  -6   5   48.58    4.17
  -6  10  -5   46.90    4.25
  -6  10  -4    7.68    2.18
  -6  10  -4    7.47    2.03
 -10   6   4    8.00    1.72
   6 -10  -4    5.45    1.80
  10  -6   4    8.29    1.89
 -10   6   3   45.14    3.79
   6 -10  -3   47.83    4.02
  10  -6   3   50.66    4.37
  -6  10  -3   54.17    4.62
 -10   6   2   31.40    3.11
   6 -10  -2   32.02    3.38
  10  -6   2   36.97    3.71
  -6  10  -2   27.04    3.48
   6 -10  -1   36.89    3.85
  -6  10  -1   38.55    3.93
  -6  10  -1   39.43    4.18
   6 -10  -1   36.05    3.57
  10  -6   1   34.35    3.73
 -10   6   1   34.32    3.07
   6 -10   0  114.53    6.82
  -6  10   0  115.00    6.85
   6 -10   0  103.72    6.32
  10  -6   0  105.33    6.68
  -6  10   0  118.17    7.18
 -10   6   0   95.88    5.60
   6 -10   1   35.53    3.79
  -6  10   1   34.23    3.67
  -6  10   1   42.28    4.33
   6 -10   1   34.09    3.52
  10  -6  -1   31.73    3.76
 -10   6  -1   32.71    3.15
   6 -10   2   37.64    3.86
  -6  10   2   34.43    3.74
  -6  10   2   37.72    4.08
   6 -10   2   28.61    3.29
  10  -6  -2   35.64    3.80
 -10   6  -2   34.53    3.18
   6 -10   3   52.73    4.37
  -6  10   3   49.83    4.38
 -10  -6   3   46.40    4.24
   6 -10   3   47.74    4.12
  10  -6  -3   51.12    4.59
 -10   6  -3   53.35    3.94
 -10   6  -4    6.59    1.62
   6 -10   4    6.02    1.99
  -6  10   4    8.57    2.09
 -10  -6   4    6.91    2.22
   6 -10   4    8.24    1.96
  10  -6  -4    6.46    2.12
   6 -10   5   46.28    4.17
  -6  10   5   52.24    4.41
 -10  -6   5   56.43    4.60
   6 -10   5   45.95    4.03
 -10   6  -5   46.50    3.74
  10  -6  -5   48.45    4.52
 -10   6  -6   16.09    2.24
  -6  10   6   10.74    2.17
 -10  -6   6   10.95    2.63
   6 -10   6   14.41    2.37
  10  -6  -6   10.93    2.58
  -6  10   7  152.44    7.95
 -10  -6   7  153.31    8.22
   6 -10   7  147.45    7.72
 -10   6  -7  160.40    7.57
  10  -6  -7  143.65    8.27
 -10   6  -8   15.45    2.26
  -6  10   8   18.63    2.63
 -10  -6   8   16.14    2.77
   6 -10   8   15.73    2.32
  10  -6  -8   16.42    2.86
 -10   6  -9   12.98    2.05
  -6  10   9   10.67    1.92
 -10  -6   9    9.55    2.38
   6 -10   9   13.66    2.16
  10  -6  -9    8.72    2.35
  10  -6 -10   81.76    5.30
  -6  10  10   87.98    5.41
 -10  -6  10   94.90    6.06
 -10   6 -10   90.02    5.30
  10  -6 -10   82.81    5.87
  10  -6 -11   66.83    4.54
  -6  10  11   70.01    4.61
 -10   6 -11   71.82    4.58
  10  -6 -12   94.99    5.37
  -6  10  12   95.88    5.44
 -10   6 -12  103.44    5.58
  10  -6 -13   25.73    2.54
   6 -10  13   27.94    2.35
 -10   6 -13   29.88    2.82
   6 -10  14   12.20    1.52
 -10   6 -14   17.18    2.16
   6 -10  15   58.83    3.92
  10  -6 -15   50.97    4.31
 -10   6 -15   61.83    3.99
 -10   6 -16    3.57    1.23
 -10  -6  16    7.78    1.81
   6 -10  16    4.62    1.30
  10  -6 -16    3.74    1.53
   6 -10  17   19.02    2.05
 -10  -6  17   20.53    2.47
  10  -6 -17   20.45    2.56
 -10   6 -17   18.66    2.09
 -10   6 -18    1.63    0.94
 -10  -6  18    2.63    1.32
   6 -10  18    2.45    0.98
  10  -6 -18    2.08    1.19
 -10   6 -19    6.23    1.30
 -10  -6  19    6.96    1.53
   6 -10  19    5.71    1.18
  10  -6 -19    4.74    1.37
 -10   6 -20    4.11    1.07
 -10  -6  20    3.32    1.16
   6 -10  20    3.38    0.96
  10  -6 -20    2.50    1.13
 -10  -6  21   13.26    1.67
   6 -10  21   14.59    1.43
 -10   6 -21   12.32    1.41
  10  -6 -21   10.25    1.45
 -10  -6  22   26.49    2.12
 -10   6 -22   30.58    2.09
  -7  10 -17    5.54    0.97
  -7 -10  16   25.68    2.22
  -7  10 -16   39.55    2.43
  -7  10 -15   10.63    1.43
  10  -7  15    7.31    0.99
  10  -7  14   22.26    1.84
  -7  10 -14   28.95    2.32
  10  -7  13   21.73    1.90
  -7  10 -13   28.50    2.38
  10  -7  12   23.22    1.98
  10  -7  12   27.50    2.24
  -7  10 -12   29.99    2.52
  10  -7  11   51.47    3.28
  10  -7  11   58.06    3.55
  10  -7  10   58.29    3.61
  10  -7  10   59.74    3.72
  -7  10 -10   64.11    4.04
  10  -7   9   15.07    1.98
  -7  10  -9   13.03    1.89
  10  -7   9   12.10    1.83
  -7  10  -9   15.90    2.16
  10  -7   8   57.42    3.86
  -7  10  -8   60.86    4.17
  10  -7   8   58.87    3.96
   7 -10  -8   50.88    3.59
  10  -7   7   34.88    3.08
  -7  10  -7   39.91    3.33
  -7  10  -7   40.43    3.31
  10  -7   7   39.54    3.19
   7 -10  -7   28.76    2.78
  10  -7   6   48.55    3.63
  -7  10  -6   42.48    3.58
  -7  10  -6   48.67    3.69
   7 -10  -6   38.37    3.29
  10  -7   6   46.01    3.59
   7 -10  -5    6.70    1.80
  10  -7   5    4.90    1.54
  -7  10  -5    6.99    1.67
  -7  10  -5    6.61    1.75
   7 -10  -5    5.68    1.44
  10  -7   5    6.08    1.54
  10  -7   4   35.71    3.26
  -7  10  -4   35.44    3.29
   7 -10  -4   33.57    3.16
  10  -7   4   32.27    3.15
  -7  10  -4   45.45    3.72
  10  -7   3   34.53    3.35
   7 -10  -3   35.31    3.23
  10  -7   3   37.90    3.45
  -7  10  -3   38.89    3.52
  10  -7   2   87.78    5.49
   7 -10  -2   86.19    5.24
  10  -7   2   80.20    5.26
  -7  10  -2   92.48    5.63
   7 -10  -1   25.18    2.92
  10  -7   1   24.03    2.85
  -7  10  -1   27.40    3.00
   7 -10  -1   24.66    2.79
  10  -7   1   23.86    2.81
 -10   7   1   22.43    2.27
  -7  10  -1   32.12    3.30
   7 -10   0    2.47    1.47
  10  -7   0   -0.17    1.40
  -7  10   0   -0.18    1.22
 -10   7   0    1.35    0.95
  -7  10   0    1.22    1.51
   7 -10   0    2.38    1.28
  10  -7   0    0.17    1.26
   7 -10   1   29.09    3.13
  10  -7  -1   27.71    3.06
  -7  10   1   26.06    2.99
   7 -10   1   24.77    2.79
  10  -7  -1   27.76    3.07
 -10   7  -1   21.79    2.37
   7 -10   2   97.11    5.66
  -7  10   2   92.40    5.69
   7 -10   2   91.69    5.45
  10  -7  -2   84.66    5.54
 -10   7  -2   89.44    4.98
   7 -10   3   38.31    3.43
  -7  10   3   40.29    3.51
   7 -10   3   32.70    3.15
  10  -7  -3   32.32    3.48
 -10   7  -3   35.49    2.99
   7 -10   4   38.86    3.44
  -7  10   4   38.66    3.45
   7 -10   4   37.93    3.37
  10  -7  -4   36.62    3.58
 -10   7  -4   40.11    3.11
 -10   7  -5    7.83    1.56
  10  -7  -5    6.68    1.73
  -7  10   5    6.91    1.70
 -10  -7   5    4.10    1.67
   7 -10   5    6.88    1.67
  10  -7  -5    5.55    1.80
  10  -7  -6   42.17    3.64
  -7  10   6   49.11    3.79
 -10  -7   6   41.84    3.60
  -7  10   6   37.21    3.71
   7 -10   6   48.29    3.62
 -10   7  -6   43.41    3.31
  10  -7  -6   46.68    3.92
  10  -7  -7   34.76    3.26
  -7  10   7   38.21    3.33
 -10  -7   7   36.11    3.49
   7 -10   7   36.13    3.15
 -10   7  -7   39.25    3.09
  -7  10   7   33.98    3.45
  10  -7  -7   33.00    3.40
  10  -7  -8   63.78    4.27
  -7  10   8   63.75    4.29
 -10  -7   8   59.15    4.36
 -10   7  -8   65.58    4.09
  -7  10   8   57.99    4.42
  -7  10   9   10.39    2.02
  10  -7  -9   14.10    2.10
  -7  10   9   14.88    2.03
 -10  -7   9   13.73    2.40
 -10   7  -9   14.93    1.96
  10  -7 -10   59.36    3.85
 -10  -7  10   62.99    4.33
 -10   7 -10   67.17    3.99
  10  -7 -11   52.17    3.52
 -10  -7  11   65.02    4.29
 -10   7 -11   61.06    3.72
  10  -7 -12   22.16    2.15
   7 -10  12   25.64    2.02
   7 -10  12   28.83    2.51
 -10  -7  12   27.34    2.79
 -10   7 -12   29.96    2.51
  10  -7 -12   25.96    2.70
   7 -10  13   25.22    2.31
 -10  -7  13   30.63    2.75
  10  -7 -13   21.67    2.48
 -10   7 -13   26.45    2.32
   7 -10  14   33.54    2.49
 -10  -7  14   28.80    2.69
  10  -7 -14   26.65    2.59
 -10   7 -14   26.19    2.30
 -10   7 -15    9.79    1.43
   7 -10  15   10.29    1.43
  10  -7 -15   10.00    1.64
   7 -10  16   32.89    2.27
 -10   7 -16   41.11    2.52
 -10   7 -17    5.95    1.09
   7 -10  17    5.05    0.98
  10  -7 -17    4.50    1.07
 -10   7 -18    1.24    0.66
   7 -10  18    1.24    0.62
  10  -7 -18   -0.08    0.70
   7 -10  19   25.68    1.70
 -10  -7  19   22.08    1.90
 -10   7 -19   21.14    1.72
  -8  10 -14   60.44    3.00
  -8  10 -13    0.36    0.59
  10  -8  12    8.73    1.05
  -8  10 -12   12.83    1.38
  -8  10 -11    7.87    1.25
  10  -8  11    7.49    1.05
  10  -8  10   49.18    2.83
  -8  10 -10   59.59    3.19
  10  -8   9   10.61    1.30
  -8  10  -9   10.44    1.47
  10  -8   9    9.95    1.39
  10  -8   8  158.28    6.27
  10  -8   8  167.86    6.54
  10  -8   7   43.48    2.91
  10  -8   7   45.87    2.97
   8 -10  -7   38.55    2.74
  -8  10  -7   50.12    3.29
  10  -8   6   43.04    2.90
  10  -8   6   39.23    2.87
   8 -10  -6   35.00    2.62
  -8  10  -6   46.92    3.13
  10  -8   5   71.11    4.00
  10  -8   5   69.66    3.98
   8 -10  -5   61.91    3.72
  -8  10  -5   71.81    4.09
  10  -8   4   22.27    2.26
   8 -10  -4   23.91    2.29
  10  -8   4   27.48    2.48
  10  -8   3   96.95    5.06
   8 -10  -3   98.53    4.96
  10  -8   3   96.50    5.07
  10  -8   2  156.10    6.93
   8 -10  -2  147.42    6.62
  10  -8   2  150.08    6.80
  10  -8   1    5.92    1.57
 -10   8   1    5.82    1.17
   8 -10  -1    8.61    1.50
  10  -8   1    7.39    1.56
  10  -8   0   24.35    2.48
   8 -10   0   22.84    2.33
  10  -8   0   25.12    2.47
 -10   8   0   24.00    2.03
  10  -8  -1    5.65    1.60
 -10   8  -1    8.16    1.34
  -8  10   1    8.83    1.66
   8 -10   1    7.56    1.46
  10  -8  -1    8.70    1.65
   8 -10   2  160.15    6.90
  10  -8  -2  160.69    7.14
  -8  10   2  148.38    6.92
 -10   8  -2  150.25    6.37
   8 -10   3   97.81    5.02
  10  -8  -3   95.71    5.18
 -10   8  -3   97.93    4.72
  -8  10   3   94.43    5.08
   8 -10   4   23.97    2.31
 -10   8  -4   22.27    2.10
  10  -8  -4   26.38    2.59
  -8  10   4   23.24    2.35
  10  -8  -5   68.77    4.07
 -10   8  -5   69.94    3.71
  10  -8  -6   36.64    2.89
 -10   8  -6   39.51    2.69
  -8  10   6   31.10    2.66
  10  -8  -7   45.59    3.07
 -10   8  -7   49.63    2.97
  10  -8  -8  173.36    6.76
 -10   8  -8  177.01    6.67
  10  -8  -8  171.26    7.09
  10  -8  -9   11.37    1.46
 -10   8  -9   10.12    1.42
  -8  10   9    6.08    1.24
   8 -10   9    9.06    1.39
  10  -8  -9    9.26    1.53
  10  -8 -10   43.71    2.67
   8 -10  10   41.34    2.40
 -10   8 -10   52.17    2.91
  10  -8 -10   50.53    3.16
   8 -10  11    9.34    1.27
  10  -8 -11    7.11    1.28
 -10   8 -11   10.37    1.27
   8 -10  12   12.66    1.36
 -10   8 -12   11.69    1.29
 -10   8 -13    0.41    0.56
   8 -10  13   -0.41    0.56
  10  -8 -13   -0.07    0.54
   8 -10  14   59.79    2.93
 -10   8 -14   59.18    2.94
  10  -9   5   20.37    1.56
  10  -9   4   20.14    1.60
  10  -9   3   29.03    1.98
  -9  10  -3   30.80    2.04
  10  -9   2   22.50    1.75
  10  -9   2   20.73    1.69
  -9  10  -2   20.67    1.67
  10  -9   1    3.21    0.84
  -9  10  -1    2.35    0.73
   9 -10  -1    2.94    0.73
  10  -9   1    4.48    0.82
  10  -9   0    2.05    0.74
   9 -10   0    1.02    0.61
  10  -9   0    1.82    0.72
  10  -9  -1    2.88    0.81
   9 -10   1    2.84    0.72
   9 -10   2   22.59    1.72
  10  -9  -4   24.67    1.82
 -11   0   0    1.20    2.33
   0 -11   0    1.62    1.99
 -11   0  -1    3.29    2.52
 -11   0   1   -0.30    2.29
   0 -11   1    2.54    2.36
   0 -11  -1    2.55    2.08
 -11   0   2  196.16   11.60
   0 -11   2  222.15   10.83
 -11   0   3  559.94   22.44
   0 -11   3  532.35   20.65
 -11   0   4    0.61    2.67
   0 -11   4    0.67    2.11
 -11   0   4    3.15    2.92
  11   0  -4    6.69    4.05
 -11   0   5   34.75    4.65
 -11   0   5   34.04    4.49
   0 -11   5   33.81    3.91
   0 -11  -5   34.22    3.92
  11   0  -5   34.70    5.04
 -11   0   6   94.79    7.46
  11   0  -6  101.74    7.69
 -11   0   6   94.69    7.23
   0 -11   6   92.27    6.39
   0 -11  -6  103.59    6.76
 -11   0   7   74.17    6.67
  11   0  -7   71.91    6.23
 -11   0  -7   70.16    6.03
 -11   0   7   70.46    6.19
   0 -11   7   70.08    5.39
   0 -11  -7   65.95    5.37
   0 -11  -7   72.91    6.37
 -11   0   8  157.49    9.89
  11   0  -8  178.74    9.75
 -11   0  -8  163.93    9.51
 -11   0   8  154.15    9.45
   0 -11   8  175.16    8.74
   0 -11  -8  164.42    8.60
   0 -11  -8  149.74    9.67
 -11   0   9   12.53    3.30
  11   0  -9   14.68    3.19
   0 -11   9    9.70    2.36
   0 -11  -9   15.85    2.69
 -11   0   9    8.60    2.78
   0 -11  -9   11.78    3.16
 -11   0  10   89.47    7.12
 -11   0  10   88.49    6.80
   0 -11  10   95.43    5.96
   0 -11 -10   99.25    6.11
  11   0 -10   93.28    6.71
 -11   0  11    2.60    2.05
   0 -11  11    2.63    1.60
   0 -11 -11    1.80    1.74
 -11   0  11    4.84    2.33
  11   0 -11    5.32    2.23
 -11   0  12   20.98    3.55
   0 -11  12   11.50    2.14
   0 -11 -12   18.32    2.57
 -11   0  12   17.06    3.08
  11   0 -12   19.84    3.25
 -11   0  13   62.53    5.71
 -11   0  13   57.54    5.36
   0 -11  13   66.83    4.53
   0 -11 -13   73.37    4.75
  11   0 -13   74.44    5.62
 -11   0  14   32.92    4.09
   0  11 -14   31.77    3.79
  11   0 -14   33.58    3.75
 -11   0  14   27.44    3.58
   0 -11  14   26.65    2.75
   0 -11 -14   23.25    2.70
 -11   0  15   21.41    3.43
   0  11 -15   17.61    2.97
  11   0 -15   18.27    2.85
   0 -11  15   18.15    2.16
 -11   0  15   18.56    3.03
   0 -11 -15   20.81    3.11
 -11   0  16   23.93    3.47
   0  11 -16   28.84    3.38
  11   0 -16   27.43    3.27
 -11   0  16   20.69    3.16
   0 -11 -16   23.23    3.38
 -11   0  17    1.93    1.80
   0  11 -17    1.84    1.80
  11   0 -17    1.70    1.59
 -11   0  17    2.16    1.61
   0 -11 -17    3.44    1.66
 -11   0  18   61.84    5.13
   0  11 -18   62.07    4.81
  11   0 -18   60.21    4.60
 -11   0  18   52.55    4.55
   0 -11 -18   57.94    4.81
 -11   0  19   30.60    3.61
   0  11 -19   35.20    3.48
  11   0 -19   30.48    3.16
 -11   0  19   31.29    3.36
   0 -11 -19   30.59    3.41
   0  11 -20   79.00    5.06
 -11   0  20   76.57    5.41
  11   0 -20   73.71    4.82
 -11   0  20   65.81    4.78
   0 -11 -20   65.54    4.75
 -11   0  21    3.74    1.59
   0  11 -21    2.55    1.42
  11   0 -21    3.65    1.44
 -11   0  21    3.25    1.40
   0 -11 -21    1.53    1.24
 -11   0  22   10.57    2.09
 -11   0  22   14.18    2.04
   0 -11 -22   14.98    2.03
 -11   0  23    5.52    1.61
 -11   0  23    5.48    1.32
   0  11 -23    7.39    1.57
 -11   0  24    6.74    1.63
 -11   0  24    5.59    1.19
   0  11 -24    9.68    1.59
 -11   0  25    3.90    1.12
   0  11 -25    5.47    1.23
 -11   0  26    0.84    0.80
   0  11 -26    3.24    0.90
 -11   1  25    6.09    1.28
 -11   1  25    7.21    1.22
 -11   1  24    1.00    1.07
  -1  11 -24    1.20    0.95
 -11   1  24    1.54    0.89
   1 -11 -24    2.89    1.00
 -11   1  23    7.74    1.66
  -1  11 -23    9.21    1.65
 -11   1  23    7.02    1.62
   1 -11 -23    8.19    1.58
 -11   1  22    2.72    1.30
  -1  11 -22    0.97    1.17
 -11   1  22   -0.30    1.11
   1 -11 -22   -0.14    1.09
 -11   1  21   18.36    2.50
  -1  11 -21   15.08    2.22
  11   1 -21   15.20    2.13
 -11   1  21   18.07    2.43
   1 -11 -21   13.13    2.22
 -11   1  20   43.41    4.03
  -1  11 -20   44.10    3.71
  11   1 -20   41.93    3.51
 -11   1  20   41.79    3.80
   1 -11 -20   42.83    3.79
 -11   1  19   11.50    2.31
  -1  11 -19   13.95    2.31
  11   1 -19   10.01    2.06
 -11   1  19   10.82    2.29
   1 -11 -19   12.07    2.26
 -11   1  18   25.74    3.36
  -1  11 -18   28.67    3.27
 -11   1  18   33.09    3.60
  11   1 -18   26.95    3.08
 -11   1  17   37.63    4.03
  -1  11 -17   42.50    4.03
 -11   1  17   35.03    3.92
  11   1 -17   39.14    3.67
 -11   1  16    2.40    1.65
 -11   1  16   -0.23    1.75
  -1  11 -16    0.83    1.69
  11   1 -16    2.49    1.63
  11   1 -15   60.31    4.75
 -11   1  15   53.63    5.12
 -11   1  14   16.80    3.08
  11   1 -14   19.86    2.98
  -1 -11  14   16.69    2.23
   1 -11 -14   12.78    2.05
   1 -11 -14   18.67    3.15
 -11   1  13   42.72    4.61
  11   1 -13   54.03    4.68
  -1 -11  13   51.77    3.89
   1 -11 -13   41.70    3.62
 -11  -1 -13   45.34    4.33
   1 -11 -13   53.06    5.00
 -11   1  12   16.06    3.08
  11   1 -12   17.95    2.95
  -1 -11  12   16.28    2.40
   1 -11 -12   16.96    2.44
 -11  -1 -12   16.64    2.87
   1 -11 -12   18.93    3.24
 -11   1  11    4.73    2.16
  11   1 -11    5.63    2.35
  -1 -11  11    5.50    1.80
   1 -11 -11    4.90    1.78
 -11  -1 -11    6.23    2.19
   1 -11 -11    6.70    2.55
 -11   1  10   81.54    6.50
  11   1 -10   83.59    6.14
  -1 -11  10   77.19    5.36
   1 -11 -10   73.21    5.23
 -11  -1 -10   82.41    5.99
   1 -11 -10   81.34    6.40
 -11   1   9   14.89    3.20
  11   1  -9   18.41    3.30
  -1 -11   9   18.19    2.90
   1 -11  -9   17.27    2.75
 -11  -1  -9   16.34    2.95
   1 -11  -9   12.09    3.16
 -11   1   8   96.21    7.23
  11   1  -8  101.81    6.95
  -1 -11   8   93.98    6.16
   1 -11  -8   85.88    5.87
 -11  -1  -8   81.19    6.24
   1 -11  -8   94.96    7.10
 -11   1   7    1.17    2.15
  11   1  -7    3.88    2.73
  -1 -11   7    1.48    1.94
   1 -11  -7    0.41    1.94
 -11  -1  -7    3.63    2.25
 -11  -1  -7    2.43    2.09
   1 -11  -7    2.23    2.76
 -11   1   6  185.31   10.70
  11   1  -6  185.66   10.35
 -11  -1  -6  177.03    9.82
 -11  -1  -6  179.91   10.14
  -1 -11   6  191.29    9.61
   1 -11  -6  172.99    9.22
   1 -11  -6  199.12   10.68
 -11   1   5   28.48    4.17
  11   1  -5   26.14    4.36
 -11  -1  -5   29.48    4.00
 -11  -1  -5   29.22    3.89
  -1 -11   5   27.49    3.63
   1 -11  -5   26.49    3.57
 -11   1   5   21.97    3.88
   1 -11  -5   21.60    3.86
 -11   1   4   79.18    6.69
 -11  -1  -4   76.97    6.35
 -11  -1  -4   80.13    6.17
 -11   1   4   74.94    6.51
  -1 -11   4   89.98    6.23
  11   1  -4   80.79    6.93
 -11   1   3   70.54    6.42
 -11  -1  -3   89.99    6.75
 -11  -1  -3   78.42    6.34
 -11   1   3   78.33    6.49
  -1 -11   3   85.79    6.16
  11   1  -3   71.26    6.78
 -11   1   2   56.30    5.65
 -11  -1  -2   64.30    5.67
 -11   1   2   62.02    5.86
 -11  -1  -2   60.37    5.54
  -1 -11   2   73.17    5.66
 -11   1   1    7.88    2.76
  -1 -11   1    7.02    2.52
   1 -11  -1    5.65    2.27
 -11  -1  -1    4.92    2.33
 -11   1   1    9.00    2.74
 -11  -1  -1    6.15    2.51
 -11   1   0   41.56    4.84
 -11  -1   0   49.22    4.90
 -11   1   0   39.38    4.70
  -1 -11   0   47.46    4.69
   1 -11   0   49.51    4.60
 -11  -1   0   40.80    4.67
 -11   1   0   47.54    5.02
 -11   1  -1    7.49    2.75
  -1 -11  -1    5.64    2.52
   1 -11   1    7.66    2.60
 -11  -1   1    6.88    2.78
 -11   1  -1    7.19    2.56
 -11   1  -1   10.21    2.88
 -11   1  -2   67.54    5.97
 -11  -1   2   63.93    5.79
 -11   1  -2   62.87    5.66
   1 -11   2   62.44    5.24
  11  -1  -2   61.72    5.00
 -11   1  -3   80.16    6.43
 -11  -1   3   77.17    6.31
 -11   1  -3   78.41    6.25
   1 -11   3   78.79    5.84
  11  -1  -3   75.43    5.67
 -11   1  -4   82.46    6.48
 -11   1  -4   74.99    6.19
 -11  -1   4   81.62    6.56
   1 -11   4   92.04    6.08
  11  -1  -4   72.37    5.65
   1 -11   5   28.37    3.64
  -1 -11  -5   22.10    3.37
 -11   1  -5   24.86    3.70
 -11  -1   5   26.29    4.10
 -11   1  -5   21.59    3.68
  11  -1  -5   22.91    3.30
 -11   1  -6  183.13   10.02
 -11   1  -6  172.94    9.92
 -11  -1   6  177.25   10.02
  -1 -11  -6  181.29    9.48
   1 -11   6  185.31    9.34
  -1 -11  -7    2.57    1.99
   1 -11   7    1.01    1.91
 -11   1  -7    3.58    2.24
 -11   1  -7    3.92    2.55
 -11  -1   7    1.89    2.14
   1 -11   7    2.08    1.13
 -11   1  -8   96.39    6.79
 -11  -1   8   92.18    6.65
   1 -11   8   74.85    4.94
  -1 -11  -8   90.96    6.09
   1 -11   8   90.75    5.90
 -11   1  -8   88.47    6.44
   1 -11   9   15.28    2.15
  -1 -11  -9   19.95    2.96
   1 -11   9   19.16    2.81
 -11   1  -9   22.42    3.42
 -11   1  -9   19.93    3.24
 -11  -1   9   17.83    3.20
   1 -11  10   69.41    4.63
 -11  -1  10   72.15    5.86
  -1 -11 -10   76.70    5.32
   1 -11  10   70.36    5.06
 -11   1 -10   78.82    5.81
  11  -1 -11    8.08    2.40
  -1 -11 -11    4.17    1.82
   1 -11  11    4.90    1.79
 -11   1 -11    6.10    2.05
 -11  -1  11    5.53    2.04
   1 -11  11    5.61    1.52
   1 -11  12   17.40    2.28
  -1 -11 -12   18.22    2.52
   1 -11  12   18.82    2.46
 -11   1 -12   14.06    2.76
 -11  -1  12   14.42    2.73
  11  -1 -12   16.55    3.02
 -11  -1  13   43.97    4.41
  -1 -11 -13   42.93    3.68
   1 -11  13   41.99    3.50
 -11   1 -13   43.86    4.27
   1 -11  13   50.01    3.73
  11  -1 -13   50.88    4.57
   1 -11  14   20.40    2.35
  -1 -11 -14   14.10    2.19
 -11  -1  14   18.57    3.07
   1 -11  14   21.08    2.43
   1  11 -14   19.74    3.10
  11  -1 -14   21.53    3.07
   1  11 -15   62.55    5.03
 -11  -1  15   55.33    4.81
   1 -11  15   52.67    3.58
   1 -11  15   63.96    4.20
  11  -1 -15   55.68    4.73
 -11  -1  16    1.23    1.39
   1  11 -16    1.25    1.76
  11  -1 -16    2.32    1.69
   1  11 -17   37.07    3.71
 -11  -1  17   28.85    3.32
  11  -1 -17   34.15    3.50
   1  11 -18   29.30    3.25
 -11  -1  18   30.49    3.19
  11  -1 -18   26.69    3.05
 -11  -1  19    8.52    1.84
   1  11 -19   12.12    2.28
  11  -1 -19   11.41    2.06
   1  11 -20   43.44    3.75
 -11  -1  20   33.53    3.13
  11  -1 -20   40.01    3.42
   1  11 -21   19.11    2.41
 -11  -1  21   12.09    1.85
  11  -1 -21   15.32    2.13
 -11  -1  22    1.31    1.24
   1  11 -22    0.70    1.20
 -11  -1  23    6.58    1.64
   1  11 -23   11.75    1.79
 -11  -1  24    1.78    1.01
   1  11 -24    3.10    1.13
 -11  -1  25    4.99    1.30
   1  11 -25    9.45    1.39
 -11   2  25   79.04    4.06
  -2  11 -24   65.75    3.49
   2 -11 -24   62.94    3.70
  -2  11 -23   32.73    2.58
 -11   2  23   31.86    2.79
   2 -11 -23   31.13    2.71
  -2  11 -22   14.13    1.86
 -11   2  22   12.18    1.90
  -2  11 -21   49.98    3.56
 -11   2  21   45.02    3.73
 -11   2  20   44.74    3.84
  -2  11 -20   49.38    3.73
  11   2 -19   61.93    4.27
 -11   2  19   65.12    4.80
  -2  11 -19   60.64    4.30
   2 -11 -19   63.47    4.76
  11   2 -18   16.91    2.29
  -2  11 -18   16.13    2.47
 -11   2  18   18.90    2.72
   2 -11 -18   15.52    2.61
 -11   2  17   13.93    2.54
  -2  11 -17   15.33    2.51
  11   2 -17   13.22    2.22
 -11   2  17   14.74    2.63
   2 -11 -17   18.79    2.86
 -11   2  16   26.46    3.41
  -2  11 -16   26.51    3.02
  11   2 -16   27.49    3.02
 -11   2  16   23.35    3.40
   2 -11 -16   23.53    3.25
 -11   2  15   10.10    2.45
  -2  11 -15   12.00    2.29
  11   2 -15   11.63    2.28
 -11   2  15   10.99    2.47
   2 -11 -15   11.33    2.51
  -2  11 -14   39.48    3.98
 -11   2  14   46.54    4.48
  11   2 -14   44.03    4.07
 -11   2  14   43.32    4.39
   2 -11 -14   38.55    3.23
   2 -11 -14   46.17    4.57
  -2  11 -13   27.61    3.40
 -11   2  13   27.71    3.67
  11   2 -13   30.68    3.34
 -11   2  13   30.43    3.91
   2 -11 -13   29.89    2.93
   2 -11 -13   26.30    3.62
 -11   2  12   12.17    2.76
  11   2 -12   11.54    2.55
 -11  -2 -12   14.52    2.58
   2 -11 -12   13.53    2.18
 -11   2  12    8.94    2.63
   2 -11 -12   14.82    3.03
 -11   2  11  151.17    8.72
  11   2 -11  139.95    7.99
  -2 -11  11  141.69    7.44
 -11   2  11  131.84    8.38
   2 -11 -11  146.34    7.33
 -11  -2 -11  140.30    7.80
   2 -11 -11  139.11    8.55
 -11   2  10    4.92    2.29
  11   2 -10    6.87    2.33
  -2 -11  10    5.71    1.95
   2 -11 -10    3.66    1.93
 -11  -2 -10    2.72    2.05
 -11   2  10    2.12    2.34
   2 -11 -10   -0.26    2.66
 -11   2   9  399.87   17.15
  11   2  -9  399.85   16.51
 -11   2   9  427.47   17.57
  -2 -11   9  426.69   16.16
   2 -11  -9  393.38   15.68
 -11  -2  -9  382.47   16.13
   2 -11  -9  431.48   17.53
 -11   2   8  115.07    7.78
  11   2  -8  113.48    7.33
 -11   2   8  110.12    7.69
  -2 -11   8  120.99    7.17
   2 -11  -8  111.25    6.72
 -11  -2  -8  115.53    7.18
   2 -11  -8  115.80    7.75
 -11   2   7   19.86    3.48
  11   2  -7   24.35    3.53
  -2 -11   7   26.08    3.42
   2 -11  -7   23.08    3.17
 -11  -2  -7   18.60    3.01
 -11   2   7   22.86    3.66
   2 -11  -7   27.22    3.81
  -2  11  -7   18.49    2.42
  -2  11  -6   14.00    2.12
 -11   2   6   17.79    3.34
  11   2  -6   14.82    3.22
  -2 -11   6   18.69    3.08
   2 -11  -6   16.26    2.90
 -11   2   6   19.37    3.38
 -11  -2  -6   21.68    3.20
   2 -11  -6   13.06    3.31
 -11   2   5  219.51   11.46
  11   2  -5  224.23   11.31
 -11  -2  -5  232.93   11.37
 -11   2   5  224.10   11.58
  -2 -11   5  233.07   10.90
   2 -11  -5  219.44   10.49
 -11  -2  -5  206.32   10.65
   2 -11  -5  224.22   11.52
  -2  11  -5  196.83    9.63
 -11   2   4  285.83   13.32
  11   2  -4  277.47   13.06
 -11  -2  -4  265.53   12.67
 -11  -2  -4  260.73   12.37
 -11   2   4  276.30   13.23
  -2 -11   4  278.86   12.55
  -2  11  -4  255.49   11.53
   2 -11  -4  256.52   12.81
 -11   2   3  144.58    8.91
  11   2  -3  141.25    8.95
 -11  -2  -3  137.67    8.44
 -11  -2  -3  131.11    8.09
 -11   2   3  154.64    9.10
  -2 -11   3  140.94    8.27
  -2  11  -3  124.19    7.46
 -11   2   2    6.26    2.65
  11   2  -2    4.54    3.29
  -2 -11   2    3.68    2.66
 -11  -2  -2    6.37    2.73
 -11   2   2    3.50    2.59
 -11  -2  -2    9.49    2.80
  11  -2   2    3.76    1.69
 -11   2   1  161.03    9.95
 -11  -2  -1  185.08   10.07
 -11   2   1  190.47   10.32
 -11  -2  -1  195.20   10.27
  -2 -11   1  179.30    9.62
   2 -11  -1  182.53    9.56
 -11   2   1  176.73   10.10
  11  -2   1  160.75    8.72
 -11  -2   0  801.75   28.64
 -11   2   0  849.15   29.17
  -2 -11   0  854.64   28.56
 -11  -2   0  757.38   28.27
 -11   2   0  766.18   28.49
   2 -11   0  798.15   27.90
  11  -2   0  744.80   27.45
 -11  -2   1  170.95   10.21
 -11  -2   1  177.36    9.79
 -11   2  -1  178.15    9.94
 -11   2  -1  166.65    9.64
  -2 -11  -1  186.68    9.81
 -11  -2   1  169.89    9.67
   2 -11   1  168.68    9.06
  11  -2  -1  158.59    8.86
 -11  -2   2    2.59    2.64
  11  -2  -2    7.96    4.37
   2 -11   2    4.55    2.45
 -11  -2   2    6.89    2.68
 -11   2  -2    4.92    2.61
 -11   2  -2    4.98    2.68
  11  -2  -2    6.02    2.11
 -11  -2   3  141.03    9.03
  11  -2  -3  130.33    8.90
 -11   2  -3  159.28    8.91
 -11  -2   3  150.88    8.84
 -11   2  -3  146.37    8.63
   2 -11   3  143.83    8.14
  11  -2  -3  127.70    8.07
 -11  -2   4  252.71   12.90
  11  -2  -4  246.13   12.61
   2 -11   4  232.43   10.30
 -11   2  -4  260.84   12.42
 -11   2  -4  260.60   12.27
 -11  -2   4  264.87   12.50
   2 -11   4  267.88   11.92
  11  -2  -4  285.46   12.51
 -11  -2   5  210.13   11.43
  11  -2  -5  228.09   11.46
 -11   2  -5  205.00   10.68
 -11   2  -5  211.78   10.95
 -11  -2   5  214.63   10.99
  -2 -11  -5  240.33   11.08
   2 -11   5  223.48   10.43
   2 -11   5  201.61    9.26
  11  -2  -5  225.32   11.02
 -11  -2   6   12.01    3.04
  11  -2  -6   15.92    3.31
  -2 -11  -6   18.18    3.14
   2 -11   6   17.43    2.81
 -11   2  -6   20.89    3.27
 -11   2  -6   19.02    3.22
 -11  -2   6   20.68    3.27
   2 -11   6   19.48    2.39
  11  -2  -6   17.74    3.06
 -11  -2   7   21.91    3.71
  11  -2  -7   20.33    3.43
 -11   2  -7   23.32    3.28
  -2 -11  -7   18.09    3.11
   2 -11   7   23.06    3.06
 -11   2  -7   20.05    3.12
 -11  -2   7   24.50    3.51
   2 -11   7   20.56    2.49
  11  -2  -7   21.77    3.24
 -11  -2   8  116.39    7.95
 -11   2  -8  114.44    7.22
 -11  -2   8  103.06    7.01
  -2 -11  -8  118.29    6.99
   2 -11   8  119.01    6.73
   2 -11   8   91.96    5.75
 -11   2  -8  110.04    7.12
  11  -2  -8  107.36    7.19
 -11  -2   9  389.92   17.25
  11  -2  -9  415.57   16.76
 -11   2  -9  426.08   16.78
 -11  -2   9  391.47   16.45
  -2 -11  -9  410.06   16.08
   2 -11   9  404.55   15.59
   2 -11   9  402.90   15.17
 -11   2  -9  405.16   16.48
 -11  -2  10    3.58    2.18
  11  -2 -10    5.43    2.31
  -2 -11 -10    3.76    1.82
   2 -11  10    3.71    1.74
 -11   2 -10    4.56    2.05
 -11  -2  10    1.81    1.69
   2 -11  10    1.75    1.36
 -11  -2  11  138.36    8.70
  11  -2 -11  139.90    8.03
 -11  -2  11  130.84    7.91
  -2 -11 -11  143.39    7.58
   2 -11  11  146.97    7.29
   2 -11  11  144.59    7.15
 -11   2 -11  155.48    8.26
 -11  -2  12   11.83    2.84
  11  -2 -12   11.15    2.54
   2 -11  12   11.36    1.95
 -11   2 -12   10.07    2.35
 -11  -2  12   12.62    2.42
   2 -11  12   13.44    2.01
   2  11 -13   25.43    3.30
 -11  -2  13   28.04    3.70
 -11  -2  13   22.68    3.07
   2 -11  13   24.30    2.58
   2 -11  13   23.93    2.53
 -11   2 -13   20.66    3.00
  11  -2 -13   22.23    3.14
   2  11 -14   45.32    4.19
 -11  -2  14   37.82    4.28
  11  -2 -14   41.46    3.96
   2 -11  14   43.96    3.46
 -11  -2  14   40.03    3.81
   2 -11  14   40.84    3.11
 -11  -2  15    7.82    2.24
   2  11 -15   12.92    2.40
  11  -2 -15    9.82    2.05
   2 -11  15   12.51    1.68
 -11  -2  15   11.17    2.13
   2 -11  15   12.01    1.93
   2  11 -16   25.10    3.07
 -11  -2  16   23.58    3.36
 -11  -2  16   18.46    2.55
   2 -11  16   27.73    2.67
  11  -2 -16   26.43    3.04
 -11  -2  17   15.07    2.62
   2 -11  17   20.40    2.24
   2  11 -17   15.21    2.55
  11  -2 -17   13.30    2.26
   2  11 -18   17.83    2.44
  11  -2 -18   12.04    2.15
 -11  -2  18   17.84    2.73
  11  -2 -19   53.28    4.00
 -11  -2  19   55.93    4.60
   2  11 -19   64.65    4.43
 -11  -2  20   45.80    3.87
   2  11 -20   46.27    3.66
   2  11 -21   56.23    3.85
 -11  -2  21   51.39    4.04
   2  11 -22   17.63    2.11
 -11  -2  22   11.82    1.96
   2  11 -23   32.71    2.63
 -11  -2  23   29.95    2.66
   2  11 -24   71.43    3.72
 -11  -2  24   55.63    3.58
  11  -2 -25   66.20    3.75
 -11   3  24    2.38    0.87
 -11   3  23   25.35    2.33
   3 -11 -23   23.10    2.25
 -11   3  22   16.92    1.86
 -11   3  22   19.86    2.24
  -3  11 -21   15.78    1.72
 -11   3  21   15.32    1.91
 -11   3  21   16.15    2.15
   3 -11 -21   19.11    2.27
 -11   3  20    3.94    1.22
  -3  11 -20    4.46    1.21
 -11   3  20    3.79    1.41
   3 -11 -20    3.36    1.44
  -3  11 -19   69.63    4.15
 -11   3  19   59.45    4.21
 -11   3  19   70.28    4.82
   3 -11 -19   77.23    5.00
  -3  11 -18   54.38    3.84
 -11   3  18   55.87    4.23
 -11   3  18   64.70    4.71
   3 -11 -18   64.52    4.78
 -11   3  17    3.03    1.33
  -3  11 -17    3.18    1.23
  11   3 -17    3.52    1.38
 -11   3  17    3.40    1.56
   3 -11 -17    1.33    1.37
 -11   3  16    8.41    1.93
  -3  11 -16   10.23    1.97
  11   3 -16   10.68    1.80
 -11   3  16   12.37    2.38
   3 -11 -16    7.84    2.15
 -11   3  15    0.75    1.32
  -3  11 -15    0.82    1.22
  11   3 -15    1.37    1.21
 -11   3  15   -0.83    1.59
   3 -11 -15    0.42    1.54
  -3  11 -14   22.13    2.69
 -11   3  14   16.97    2.70
  11   3 -14   20.83    2.65
  -3  11 -14   12.23    1.74
 -11   3  14   28.57    3.42
   3 -11 -14   25.14    3.26
  -3  11 -13   31.99    3.23
 -11   3  13   28.57    3.43
  11   3 -13   27.25    3.10
  -3  11 -13   26.91    2.70
 -11   3  13   32.21    3.67
   3 -11 -13   29.44    2.78
   3 -11 -13   33.84    3.87
  -3  11 -12   78.80    5.47
 -11   3  12   81.03    5.84
  11   3 -12   87.82    5.50
  -3  11 -12   81.55    5.09
 -11   3  12   81.47    6.04
   3 -11 -12   81.59    4.94
   3 -11 -12   92.75    6.33
  -3  11 -11    0.12    0.92
 -11   3  11    0.22    1.39
  -3  11 -11   -0.20    1.46
  11   3 -11   -0.37    1.45
   3 -11 -11    0.31    1.36
 -11   3  11    0.23    1.59
   3 -11 -11    3.00    1.76
  -3  11 -10    4.91    1.35
 -11   3  10    7.60    2.19
  11   3 -10    6.49    1.92
   3 -11 -10    7.81    1.92
 -11   3  10    5.50    2.26
   3 -11 -10    3.26    2.03
 -11   3   9   38.29    4.08
  11   3  -9   36.76    3.78
 -11   3   9   36.37    4.14
   3 -11  -9   39.59    3.61
 -11  -3  -9   31.60    3.39
  -3  11  -9   37.33    3.14
   3 -11  -9   39.62    4.20
 -11   3   8   50.54    4.76
  11   3  -8   54.57    4.63
 -11   3   8   63.44    5.41
   3 -11  -8   53.01    4.39
 -11  -3  -8   56.47    4.48
  -3  11  -8   57.11    4.04
   3 -11  -8   56.85    5.24
 -11   3   7  127.57    7.62
  11   3  -7  118.50    6.98
 -11   3   7  121.97    7.62
   3 -11  -7  114.26    6.68
 -11  -3  -7  106.54    6.55
   3 -11  -7  105.75    7.25
  -3  11  -7   99.21    6.01
 -11   3   6  159.39    8.92
  11   3  -6  158.34    8.44
 -11   3   6  174.16    9.23
   3 -11  -6  155.16    8.07
 -11  -3  -6  132.70    7.80
  -3  11  -6  143.50    7.62
   3 -11  -6  154.88    8.76
 -11   3   5   42.12    4.52
  11   3  -5   41.71    4.24
 -11   3   5   43.97    4.59
  -3 -11   5   43.17    4.41
   3 -11  -5   44.62    4.21
 -11  -3  -5   43.94    4.10
  11  -3   5   41.21    3.59
  -3  11  -5   48.10    4.04
   3 -11  -5   47.09    4.62
 -11   3   4   57.89    5.12
  11   3  -4   48.55    4.58
 -11   3   4   55.69    5.03
  -3 -11   4   56.39    4.88
 -11  -3  -4   46.91    4.31
  -3  11  -4   54.53    4.47
  11  -3   4   46.38    3.97
   3 -11  -4   52.75    4.80
 -11   3   3   34.92    4.00
  11   3  -3   28.80    3.85
 -11   3   3   31.68    3.96
  -3 -11   3   31.57    3.86
 -11   3   3   34.64    3.98
 -11  -3  -3   24.59    3.38
  11  -3   3   27.90    3.17
  -3  11  -3   30.90    3.50
  11   3  -2   88.97    6.39
 -11  -3  -2   85.00    6.04
 -11  -3  -2   78.08    5.79
 -11   3   2   97.19    6.64
  -3 -11   2   92.51    6.34
 -11   3   2   83.73    6.16
  11  -3   2   83.41    5.69
  11   3  -1   16.30    3.34
  -3 -11   1   11.94    2.79
   3 -11  -1    8.93    2.58
 -11  -3  -1   12.28    2.60
 -11   3   1    6.28    2.30
 -11  -3  -1   12.76    2.80
 -11   3   1    6.49    2.39
  11  -3   1   11.48    2.35
  11   3   0  116.14    7.62
  11  -3   0  113.63    8.11
 -11  -3   0  115.74    7.33
 -11   3   0  133.13    7.86
 -11  -3   0  111.53    7.08
 -11   3   0  126.60    7.63
  -3 -11   0  143.80    8.00
   3 -11   0  126.61    7.35
  11  -3   0  117.70    7.14
  11  -3  -1   11.19    3.49
  -3 -11  -1    7.70    2.73
   3 -11   1    9.53    2.63
 -11  -3   1   11.05    2.52
 -11   3  -1   14.40    2.80
 -11   3  -1   13.64    2.79
 -11  -3   1    7.59    2.49
  11  -3  -1   10.04    2.41
  11  -3  -2   78.22    6.34
 -11  -3   2   81.92    5.89
 -11   3  -2   81.06    6.10
 -11   3  -2   95.20    6.31
   3 -11   2   72.80    4.75
   3 -11   2   88.22    5.94
 -11  -3   2   78.38    5.78
  11  -3  -2   87.86    6.03
 -11  -3   3   24.81    3.74
  11  -3  -3   33.58    4.27
 -11  -3   3   32.49    3.70
 -11   3  -3   32.48    3.79
 -11   3  -3   34.99    3.82
   3 -11   3   27.22    2.85
 -11  -3   3   30.18    3.70
   3 -11   3   37.04    3.86
  11  -3  -3   31.37    3.69
 -11  -3   4   48.89    4.90
  11  -3  -4   57.33    5.07
 -11   3  -4   46.47    4.35
   3 -11   4   44.85    3.65
 -11  -3   4   51.87    4.54
 -11   3  -4   52.79    4.64
 -11  -3   4   43.30    4.37
   3 -11   4   50.05    4.43
  11  -3  -4   50.19    4.64
 -11  -3   5   45.75    4.83
  11  -3  -5   49.52    4.56
 -11   3  -5   48.44    4.50
 -11  -3   5   48.57    4.35
  -3 -11  -5   48.41    4.55
   3 -11   5   47.69    4.27
   3 -11   5   36.34    3.40
 -11   3  -5   40.10    4.06
  11  -3  -5   36.99    4.21
 -11  -3   6  142.40    8.88
  11  -3  -6  160.45    8.63
 -11   3  -6  164.22    8.62
 -11  -3   6  148.52    8.21
  -3 -11  -6  165.06    8.65
   3 -11   6  161.17    8.17
   3 -11   6  148.25    7.47
 -11   3  -6  157.34    8.47
  11  -3  -6  146.04    8.60
 -11  -3   7  107.81    7.35
  11  -3  -7  110.10    6.89
 -11   3  -7  114.15    6.88
 -11  -3   7   99.42    6.47
   3 -11   7  111.71    6.49
   3 -11   7  110.86    6.06
 -11   3  -7  103.41    6.66
  11  -3  -7  100.28    6.99
 -11  -3   8   57.30    5.24
  11  -3  -8   62.11    4.95
 -11   3  -8   54.77    4.67
 -11  -3   8   50.72    4.39
   3 -11   8   55.60    4.11
   3 -11   8   67.37    4.70
 -11   3  -8   65.01    4.95
  11  -3  -8   59.36    5.13
 -11  -3   9   33.06    3.97
  11  -3  -9   36.61    3.80
 -11  -3   9   33.82    3.53
   3 -11   9   37.19    3.29
   3 -11   9   39.66    3.53
 -11   3  -9   38.99    3.85
  11  -3  -9   32.91    3.85
 -11  -3  10    7.20    2.20
  11  -3 -10    7.00    1.90
 -11   3 -10    8.37    2.00
   3 -11  10    9.17    1.86
   3 -11  10    6.29    1.51
  11  -3 -10    8.00    1.97
 -11  -3  11    0.23    1.68
  11  -3 -11   -1.31    1.67
 -11   3 -11    1.89    1.54
   3 -11  11    0.29    1.10
   3 -11  11   -0.15    1.05
  11  -3 -11   -0.44    1.50
   3  11 -12   89.87    5.82
 -11  -3  12   73.84    5.92
  11  -3 -12   84.89    5.54
  -3  11  12   78.58    5.14
   3 -11  12   84.22    4.82
   3 -11  12   83.39    5.01
  11  -3 -12   80.79    5.84
   3  11 -13   32.15    3.41
 -11  -3  13   25.94    3.35
  11  -3 -13   22.60    2.91
  -3  11  13   27.15    2.76
   3 -11  13   28.16    2.56
   3 -11  13   32.46    2.96
  11  -3 -13   25.53    3.41
   3  11 -14   21.79    2.81
 -11  -3  14   23.21    3.13
  11  -3 -14   19.07    2.64
   3 -11  14   23.22    2.19
   3 -11  14   23.59    2.56
  11  -3 -14   21.18    2.98
   3  11 -15   -0.17    1.30
  11  -3 -15    0.15    1.25
 -11  -3  15    1.60    1.42
   3 -11  15    0.97    0.99
   3  11 -16   12.06    2.12
  11  -3 -16    9.96    1.86
 -11  -3  16    8.14    1.97
   3 -11  16   11.40    1.79
   3  11 -17    4.80    1.55
  11  -3 -17    2.60    1.37
 -11  -3  17    4.24    1.55
   3 -11  17    3.16    1.19
   3  11 -18   67.11    4.35
 -11  -3  18   60.18    4.40
   3 -11  18   63.57    3.91
  11  -3 -18   58.54    4.55
   3  11 -19   74.55    4.49
 -11  -3  19   68.29    4.52
   3 -11  19   75.61    4.17
  11  -3 -19   70.07    4.81
   3  11 -20    4.40    1.28
 -11  -3  20    2.86    1.22
  11  -3 -20    3.73    1.39
   3  11 -21   17.63    1.92
 -11  -3  21   13.47    1.83
 -11   3 -21   18.21    1.68
  11  -3 -21   13.49    2.04
   3  11 -22   17.13    1.76
  11  -3 -22   19.83    2.27
  11  -3 -23   21.70    2.21
 -11   4  22    1.01    0.71
   4 -11 -22    1.33    0.79
 -11   4  21   38.32    2.75
   4 -11 -21   38.38    2.87
 -11   4  20    0.81    0.99
   4 -11 -20    0.12    0.99
 -11   4  19   78.94    4.74
   4 -11 -19   85.71    4.88
 -11   4  18    3.81    1.01
 -11   4  18    6.06    1.57
   4 -11 -18    5.78    1.51
 -11   4  17    1.08    0.86
 -11   4  17    2.28    1.26
   4 -11 -17    3.11    1.40
 -11   4  16   32.23    2.80
 -11   4  16   36.12    3.36
   4 -11 -16   35.74    3.42
 -11   4  15   36.34    3.13
 -11   4  15   42.67    3.76
   4 -11 -15   40.20    3.71
 -11   4  14   34.48    3.16
 -11   4  14   38.97    3.66
   4 -11 -14   37.98    3.60
 -11   4  13  114.99    6.13
  -4  11 -13   99.62    5.40
 -11   4  13  123.01    6.76
   4 -11 -13  115.03    5.46
  -4  11 -13  102.15    5.01
   4 -11 -13  112.29    6.66
 -11   4  12   40.37    3.61
  11   4 -12   46.96    3.51
  -4  11 -12   42.86    3.32
 -11   4  12   43.93    4.08
   4 -11 -12   44.14    3.35
  -4  11 -12   44.36    3.10
   4 -11 -12   45.44    4.13
 -11   4  11   21.55    2.72
  11   4 -11   18.13    2.37
  -4  11 -11   19.39    2.33
   4 -11 -11   19.82    2.38
 -11   4  11   16.12    2.68
  -4  11 -11   20.65    2.13
   4 -11 -11   16.68    2.62
  -4  11 -10   23.50    2.63
 -11   4  10   26.39    2.96
  11   4 -10   27.92    2.92
  -4  11 -10   30.04    2.99
 -11   4  10   29.56    3.47
   4 -11 -10   28.28    2.93
   4 -11 -10   27.26    3.22
  -4  11 -10   32.29    2.79
  -4  11  -9   45.86    3.89
 -11   4   9   55.51    4.43
  11   4  -9   56.29    4.16
  -4  11  -9   63.76    4.46
 -11   4   9   64.61    4.96
   4 -11  -9   58.43    4.20
  -4  11  -9   57.23    3.96
   4 -11  -9   53.62    4.58
 -11   4   8   35.55    3.53
  11   4  -8   43.70    3.62
  -4  11  -8   40.59    3.60
 -11   4   8   34.14    3.72
   4 -11  -8   36.91    3.48
  -4  11  -8   33.19    3.12
   4 -11  -8   27.78    3.52
 -11   4   7   79.06    5.37
  -4  11  -7   70.19    5.04
  11   4  -7   72.02    4.91
 -11   4   7   78.05    5.57
 -11   4   7   70.44    5.19
   4 -11  -7   75.75    5.10
  11  -4   7   71.99    4.51
  -4  11  -7   76.70    4.90
   4 -11  -7   67.27    5.20
  -4  11  -6  119.84    6.77
  11   4  -6  107.63    6.31
 -11   4   6  111.35    6.93
 -11   4   6  113.97    6.65
   4 -11  -6  118.47    6.58
  11  -4   6   93.19    5.69
   4 -11  -6   99.54    6.41
  -4  11  -6  110.91    6.30
  -4  11  -5   81.74    5.54
  11   4  -5   73.52    5.09
 -11   4   5   75.36    5.63
 -11   4   5   72.81    5.32
  -4  11  -5   77.89    5.20
  11  -4   5   69.18    4.83
  11  -4   4   91.17    6.56
  11   4  -4  103.84    6.14
 -11   4   4  106.54    6.64
 -11   4   4   96.10    6.28
  11  -4   4  102.10    6.02
  -4  11  -4  105.49    6.37
  -4  11  -3    3.92    1.81
  11  -4   3    5.12    2.71
  11   4  -3    5.25    1.84
 -11   4   3    2.92    1.81
 -11   4   3    2.95    1.69
  11  -4   3    3.74    1.50
  11  -4   2   26.16    3.47
  11   4  -2   21.57    2.89
 -11   4   2   18.43    2.83
 -11   4   2   20.62    2.96
  -4  11  -2   22.19    2.97
  11  -4   2   19.75    2.79
  -4  11  -1   17.09    2.77
  11  -4   1   18.88    3.03
  11   4  -1   14.58    2.51
 -11   4   1   16.20    2.62
 -11   4   1   15.49    2.65
  11  -4   1   17.70    2.64
  11   4   0   -0.38    1.73
  11  -4   0    0.58    1.85
 -11   4   0    1.22    1.62
 -11   4   0    1.76    1.54
  11  -4   0    1.56    1.42
  11   4   1   11.18    2.44
  11  -4  -1   14.66    2.56
   4 -11   1   16.33    2.14
 -11   4  -1   16.98    2.60
 -11   4  -1   13.76    2.49
  11  -4  -1   13.38    2.49
  11   4   2   18.08    2.81
  11  -4  -2   25.10    3.13
 -11   4  -2   26.86    3.21
   4 -11   2   21.19    2.46
 -11   4  -2   19.00    2.76
  11  -4  -2   18.88    2.86
  11   4   3    3.30    1.92
  11  -4  -3    2.91    1.76
 -11   4  -3    3.41    1.72
 -11   4  -3    3.65    1.62
   4 -11   3    3.15    1.36
  11  -4  -3    1.64    1.72
  11   4   4   87.73    6.04
  11  -4  -4   98.34    6.14
 -11   4  -4  103.34    6.26
   4 -11   4  101.39    5.67
 -11   4  -4  100.24    6.20
  11  -4  -4  104.24    6.63
  -4  11   5   81.96    5.64
  11  -4  -5   72.39    5.17
 -11   4  -5   82.39    5.38
   4 -11   5   77.19    5.29
   4 -11   5   69.86    4.68
 -11   4  -5   77.02    5.27
  11  -4  -5   80.05    5.72
  -4  11   6  109.11    6.60
  11  -4  -6  101.11    6.22
 -11   4  -6   98.62    6.12
   4 -11   6  115.86    6.40
   4 -11   6  101.77    5.80
 -11   4  -6  106.29    6.34
  11  -4  -6  113.81    6.93
  -4  11   7   77.83    5.38
  11  -4  -7   66.07    4.76
   4 -11   7   70.25    4.60
   4 -11   7   72.85    4.90
 -11   4  -7   71.84    5.01
  11  -4  -7   70.46    5.40
 -11  -4   8   35.09    3.70
  11  -4  -8   32.04    3.32
  -4  11   8   43.66    3.86
   4 -11   8   36.77    3.42
 -11   4  -8   39.37    3.66
   4 -11   8   37.69    3.28
  11  -4  -8   36.09    3.85
   4  11  -9   54.98    4.36
 -11  -4   9   51.33    4.51
  11  -4  -9   50.79    4.01
  -4  11   9   60.62    4.52
   4 -11   9   67.62    4.36
   4 -11   9   63.25    4.24
 -11   4  -9   59.87    4.40
  11  -4  -9   57.64    4.79
   4  11 -10   32.55    3.20
 -11  -4  10   25.67    3.10
  11  -4 -10   22.81    2.70
  -4  11  10   32.48    3.14
   4 -11  10   33.47    2.98
   4 -11  10   31.95    2.93
  11  -4 -10   23.30    3.18
   4  11 -11   19.24    2.56
 -11  -4  11   19.65    2.64
  11  -4 -11   17.66    2.28
  -4  11  11   20.70    2.46
   4 -11  11   20.61    2.39
   4 -11  11   18.58    2.21
 -11  -4  11   22.17    2.95
  11  -4 -11   21.29    2.94
   4  11 -12   47.94    3.66
  -4  11  12   42.57    3.36
   4 -11  12   46.31    3.13
 -11  -4  12   53.80    4.17
   4 -11  12   50.61    3.51
  11  -4 -12   45.89    4.06
   4  11 -13  107.77    6.00
   4 -11  13  112.39    5.37
   4 -11  13  119.40    5.98
 -11  -4  13  122.21    6.58
  11  -4 -13  117.25    6.84
   4  11 -14   30.49    2.86
   4 -11  14   32.00    2.37
   4 -11  14   36.94    2.96
 -11  -4  14   39.04    3.44
  11  -4 -14   33.27    3.52
   4  11 -15   38.55    3.12
   4 -11  15   47.13    3.26
  11  -4 -15   37.61    3.64
 -11   4 -15   37.23    2.84
   4  11 -16   34.26    2.81
   4 -11  16   36.76    2.86
  11  -4 -16   32.66    3.38
 -11   4 -16   36.96    2.71
   4  11 -17    2.84    1.02
 -11   4 -17    4.03    1.04
   4 -11  17    1.44    0.92
  11  -4 -17    1.90    1.32
   4  11 -18    4.65    1.13
 -11   4 -18    5.35    1.07
   4 -11  18    3.72    1.12
  11  -4 -18    5.17    1.54
 -11   4 -19   76.62    3.96
  11  -4 -19   72.80    4.73
 -11   4 -20   -0.14    0.70
  11  -4 -20   -0.12    0.99
   5 -11 -19   15.29    1.64
 -11   5  18    7.99    1.29
   5 -11 -18    8.38    1.28
 -11   5  17   15.16    1.83
   5 -11 -17   16.59    1.85
 -11   5  16   36.24    2.88
   5 -11 -16   40.06    3.02
 -11   5  15   20.24    2.18
  -5  11 -15   17.29    1.57
   5 -11 -15   24.11    2.39
  -5  11 -14    6.22    1.10
 -11   5  14    8.65    1.59
   5 -11 -14    6.83    1.52
  11  -5  13   32.28    2.35
 -11   5  13   34.29    3.05
  -5  11 -13   43.45    2.77
   5 -11 -13   40.72    3.22
  -5  11 -12    1.52    0.91
  11  -5  12    1.57    0.92
   5 -11 -12    2.78    1.06
 -11   5  12    1.85    1.18
   5 -11 -12    1.35    1.19
  11  -5  11   20.57    2.12
 -11   5  11   18.09    2.09
 -11   5  11   27.70    2.72
   5 -11 -11   24.32    2.35
  -5  11 -11   26.80    2.33
   5 -11 -11   28.15    2.73
  -5  11 -10   36.85    3.00
 -11   5  10   31.04    2.73
 -11   5  10   30.20    3.06
   5 -11 -10   34.92    2.92
   5 -11 -10   31.16    2.98
  -5  11 -10   39.12    2.94
  -5  11  -9   36.66    3.19
 -11   5   9   31.90    2.82
 -11   5   9   35.09    3.34
   5 -11  -9   38.39    3.17
  11  -5   9   33.41    2.67
   5 -11  -9   35.72    3.25
  -5  11  -9   42.26    3.19
  -5  11  -8  198.05    8.55
 -11   5   8  185.41    8.54
   5 -11  -8  191.35    8.28
  -5  11  -8  200.57    8.30
  11  -5   8  175.90    7.63
  -5  11  -7    6.38    1.76
  -5  11  -7    2.90    1.40
   5 -11  -7    3.55    1.51
 -11   5   7    4.31    1.70
 -11   5   7    2.25    1.37
  11  -5   7    2.03    1.11
  -5  11  -6    0.76    1.18
  -5  11  -6    0.84    1.14
 -11   5   6    0.80    1.21
 -11   5   6    0.96    1.18
  11  -5   6    1.23    1.12
  -5  11  -5   58.87    4.36
 -11   5   5   52.05    3.87
 -11   5   5   53.39    4.09
  11  -5   5   55.61    3.94
  -5  11  -5   63.75    4.39
  -5  11  -4   23.20    2.84
 -11   5   4   27.11    2.81
 -11   5   4   21.44    2.73
  -5  11  -4   23.61    2.90
  11  -5   4   23.63    2.60
 -11   5   3  123.66    6.65
 -11   5   3  118.64    6.28
  -5  11  -3  129.55    6.93
  11  -5   3  120.30    6.52
  -5  11  -2   15.41    2.63
 -11   5   2   12.01    2.07
 -11   5   2   14.31    2.21
  11  -5   2   12.50    2.21
  -5  11  -1   48.80    4.09
 -11   5   1   42.76    3.63
 -11   5   1   41.00    3.43
  11  -5   1   45.10    3.86
  -5  11  -1   45.83    4.01
  -5  11   0   15.71    2.59
  -5  11   0   13.72    2.37
 -11   5   0   11.21    1.93
 -11   5   0    9.90    1.96
   5 -11   0   13.76    1.87
  11  -5   0    8.63    2.10
  -5  11   1   44.70    3.90
 -11   5  -1   37.28    3.32
 -11   5  -1   44.20    3.52
   5 -11   1   44.21    3.38
  11  -5  -1   38.15    3.69
  -5  11   1   50.24    4.29
  -5  11   2   13.96    2.69
  -5  11   2   15.14    2.40
 -11   5  -2   14.16    2.15
 -11   5  -2   14.04    2.09
   5 -11   2   11.27    1.91
  11  -5  -2   10.87    2.26
  -5  11   3  138.14    7.22
 -11   5  -3  121.91    6.31
 -11   5  -3  117.95    6.26
   5 -11   3  123.10    6.22
  11  -5  -3  120.16    6.83
  -5  11   3  124.62    7.37
  -5  11   4   28.00    3.13
 -11   5  -4   23.69    2.61
   5 -11   4   21.84    2.45
  11  -5  -4   22.97    2.91
  -5  11   5   56.32    4.37
 -11   5  -5   50.76    3.76
   5 -11   5   56.07    3.89
  11  -5  -5   58.30    4.55
  -5  11   6   -0.69    1.29
 -11   5  -6   -0.27    0.97
   5 -11   6    0.14    1.19
  11  -5  -6    0.18    1.46
  -5  11   7    3.33    1.60
   5 -11   7    5.81    1.70
   5 -11   7    4.85    1.50
  11  -5  -7    2.69    1.76
  -5  11   8  195.71    8.91
   5 -11   8  203.77    8.57
   5 -11   8  196.63    8.47
  11  -5  -8  185.87    9.12
  -5  11   9   33.10    3.10
   5 -11   9   36.34    3.02
   5 -11   9   41.75    3.19
  11  -5  -9   37.00    3.56
  -5  11  10   40.38    3.22
   5 -11  10   36.52    2.88
   5 -11  10   38.61    3.11
  11  -5 -10   41.57    3.65
   5 -11  11   26.93    2.52
   5 -11  11   25.02    2.29
  11  -5 -11   24.22    2.82
 -11   5 -12    2.98    0.93
  11  -5 -12    2.55    1.11
   5 -11  12    3.02    0.98
   5 -11  12    1.21    1.02
  11  -5 -12    1.30    1.30
   5 -11  13   37.23    2.47
   5 -11  13   43.74    3.07
  11  -5 -13   45.90    3.69
 -11   5 -13   43.96    2.91
 -11   5 -14    9.21    1.34
   5 -11  14    9.53    1.49
  11  -5 -14    6.87    1.73
   5 -11  15   22.45    2.14
  11  -5 -15   23.59    2.55
 -11   5 -15   25.87    2.09
  11  -5 -16   31.84    3.02
 -11   5 -16   35.20    2.48
   5 -11  17   19.67    1.81
 -11   5 -17   19.57    1.68
 -11   5 -18    8.16    1.10
  11  -5 -20    0.16    0.63
  -6  11 -13    5.04    0.98
  -6  11 -12   46.54    2.83
  11  -6  11   93.86    4.41
   6 -11 -11  102.60    4.66
  11  -6  10    8.48    1.29
   6 -11 -10    9.52    1.45
  11  -6  10    7.86    1.13
  11  -6   9   12.50    1.58
   6 -11  -9   12.38    1.73
  11  -6   9   11.30    1.37
  -6  11  -9   13.32    1.70
  11  -6   8  216.13    8.47
   6 -11  -8  215.19    8.61
  11  -6   8  199.38    8.12
  -6  11  -8  230.87    8.76
  -6  11  -7   11.27    1.89
  11  -6   7    8.52    1.58
   6 -11  -7    8.92    1.72
  11  -6   7    8.20    1.35
  11  -6   6   92.00    5.03
  -6  11  -6  102.75    5.41
  -6  11  -6  103.75    5.27
  11  -6   6   90.08    4.82
  11  -6   5  117.87    5.85
  -6  11  -5  117.37    6.05
  -6  11  -5  113.26    5.85
  11  -6   5  112.04    5.59
  11  -6   4    5.09    1.52
  -6  11  -4    6.14    1.50
  -6  11  -4    6.43    1.74
  11  -6   4    6.95    1.50
  11  -6   3   33.83    3.00
  11  -6   3   33.45    2.90
  -6  11  -3   32.40    3.04
  11  -6   2   17.61    2.20
  -6  11  -2   19.26    2.41
  -6  11  -1   14.05    2.06
  -6  11  -1   13.61    2.18
   6 -11  -1   12.70    1.71
  11  -6   1   11.64    1.92
  -6  11   0    0.16    1.02
  -6  11   0    0.46    1.20
   6 -11   0    0.67    0.81
  11  -6   0    0.28    1.10
  -6  11   1   15.82    2.21
  -6  11   1   14.18    2.19
   6 -11   1   13.87    1.78
  11  -6  -1   12.83    2.09
  -6  11   2   19.56    2.36
  -6  11   2   14.31    2.31
   6 -11   2   19.93    2.08
  11  -6  -2   18.22    2.31
  -6  11   3   33.10    3.07
   6 -11   3   32.82    2.71
  11  -6  -3   35.32    3.17
  -6  11   3   33.77    3.23
  -6  11   4    4.76    1.42
  -6  11   4    2.03    1.46
   6 -11   4    3.06    1.26
  11  -6  -4    4.55    1.57
  11  -6  -5  117.22    6.06
  -6  11   5  122.85    6.23
   6 -11   5  114.17    5.65
  -6  11   5  109.49    6.21
  11  -6  -5  124.15    6.30
  11  -6  -6   91.57    5.23
  -6  11   6  103.31    5.47
   6 -11   6  101.39    5.16
   6 -11   6   95.26    4.95
  -6  11   6   82.20    5.40
  11  -6  -6   90.27    5.35
  -6  11   7    7.24    1.89
  11  -6  -7    7.88    1.66
   6 -11   7   10.02    1.67
   6 -11   7   11.53    1.74
  11  -6  -7    9.60    1.86
  11  -6  -8  214.39    8.79
   6 -11   8  221.82    8.65
   6 -11   8  231.05    8.61
  11  -6  -8  221.43    9.26
  11  -6  -9   12.88    1.79
   6 -11   9   12.28    1.64
   6 -11   9   14.51    1.79
  11  -6  -9   10.71    1.91
  11  -6 -10    7.83    1.44
   6 -11  10   11.14    1.45
   6 -11  10   12.89    1.61
  11  -6 -10    8.80    1.73
  11  -6 -11   93.65    4.73
   6 -11  11  113.60    5.10
   6 -11  11   99.12    4.44
  11  -6 -11  112.64    5.63
 -11   6 -11  108.17    4.65
   6 -11  12   48.80    3.00
  11  -6 -12   41.86    3.26
 -11   6 -12   44.79    2.67
 -11   6 -13    6.31    0.97
   6 -11  13    5.97    1.13
  11  -6 -13    6.80    1.42
   6 -11  14   37.22    2.35
 -11   6 -14   28.15    1.92
  -6  11  15    8.36    1.40
  -6  11  16    5.21    1.03
  -7  11 -10    0.54    0.61
   7 -11  -9   22.18    1.72
  -7  11  -9   24.82    1.95
  -7  11  -8    6.53    1.07
  11  -7   8    4.92    0.93
   7 -11  -8    7.09    1.15
  11  -7   7   32.50    2.15
   7 -11  -7   26.78    2.13
  11  -7   7   24.16    1.87
  -7  11  -7   30.51    2.25
  -7  11  -6    5.47    1.16
  11  -7   6    3.80    1.02
   7 -11  -6    3.34    1.07
  11  -7   6    4.45    0.94
  -7  11  -5    6.40    1.19
  11  -7   5    8.75    1.31
   7 -11  -5    7.59    1.35
  11  -7   5    6.08    1.11
  11  -7   4    3.72    1.06
  -7  11  -4    2.98    1.05
  11  -7   4    3.08    0.91
  11  -7   3   79.78    4.23
  -7  11  -3   89.31    4.42
  11  -7   3   77.78    4.12
  11  -7   2    0.30    1.03
  -7  11  -2    3.03    1.19
   7 -11  -2    1.70    0.65
  11  -7   2    1.06    0.85
  11  -7   1   31.62    2.54
  -7  11  -1   32.17    2.57
   7 -11  -1   22.90    1.95
  11  -7   1   27.62    2.32
  -7  11   0   12.97    1.70
  11  -7   0   12.01    1.68
   7 -11   0   12.18    1.42
  11  -7   0   11.49    1.60
  11  -7  -1   27.99    2.44
   7 -11   1   29.39    2.15
  11  -7  -1   28.12    2.40
  -7  11   1   25.91    2.44
  -7  11   2    1.52    1.02
   7 -11   2    1.68    0.87
  11  -7  -2    1.80    1.05
   7 -11   3   76.26    3.81
  11  -7  -3   76.84    4.24
  -7  11   3   70.69    4.20
  11  -7  -4    3.45    1.16
   7 -11   4    4.42    1.19
   7 -11   4    3.48    0.91
  11  -7  -4    2.22    1.07
  11  -7  -5    7.50    1.32
   7 -11   5    8.56    1.36
   7 -11   5    8.16    1.22
  11  -7  -5    6.17    1.31
  11  -7  -6    3.96    1.10
   7 -11   6    4.46    1.08
   7 -11   6    4.63    0.99
  11  -7  -6    5.55    1.20
  11  -7  -7   30.10    2.31
   7 -11   7   28.85    2.12
   7 -11   7   31.67    2.25
  11  -7  -7   32.48    2.51
  -7  11   8    3.32    1.09
  11  -7  -8    4.89    1.02
   7 -11   8    4.98    0.92
   7 -11   8    4.15    0.92
  11  -7  -8    4.35    1.13
  11  -7  -9   19.39    1.68
  11  -7  -9   23.54    2.07
  -7  11  10    0.55    0.67
   7 -11  10    0.07    0.52
   7 -11  11   67.20    3.24
   0 -12   0    4.89    1.99
  12   0   0    3.66    3.03
   0 -12   1   27.09    3.18
   0 -12  -1   19.54    2.85
  12   0   1   19.36    4.04
  12   0  -1   22.34    3.70
   0 -12   2   54.61    4.40
  12   0  -2   43.99    4.68
 -12   0   3   56.91    4.87
   0 -12   3   57.96    4.51
  12   0  -3   59.99    5.07
 -12   0   4   11.06    2.75
   0 -12   4   12.09    2.33
 -12   0   4   10.88    2.49
  12   0  -4   13.48    2.72
 -12   0   5   16.48    3.27
   0 -12   5   11.93    2.52
   0 -12  -5   11.70    2.37
 -12   0   5   13.09    2.72
  12   0  -5   12.14    2.76
 -12   0   6  306.32   13.56
 -12   0   6  295.62   13.00
   0 -12   6  316.59   12.45
   0 -12  -6  302.59   12.37
  12   0  -6  305.59   13.05
 -12   0   7    1.34    1.95
   0 -12   7    0.62    1.48
   0 -12  -7    2.68    1.82
 -12   0   7    2.65    2.04
  12   0  -7    3.94    2.01
 -12   0   8   51.50    4.75
 -12   0   8   54.10    4.53
   0 -12   8   54.92    4.11
   0 -12  -8   57.53    4.14
  12   0  -8   51.08    4.46
 -12   0   9  148.70    8.16
  12   0  -9  145.56    7.67
 -12   0   9  117.56    7.31
   0 -12   9  142.10    6.89
   0 -12  -9  141.11    6.92
 -12   0  10  349.82   13.69
  12   0 -10  329.76   12.99
 -12   0  10  313.08   12.90
   0 -12  10  327.08   11.95
   0 -12 -10  311.86   11.91
 -12   0  11    9.31    2.33
   0  12 -11    8.14    2.17
  12   0 -11    9.57    2.20
   0 -12  11    7.44    1.58
   0 -12 -11    6.03    1.64
 -12   0  11   10.15    2.18
  12   0 -11    3.18    1.32
   0  12 -12  121.74    6.69
 -12   0  12  126.98    7.02
  12   0 -12  128.45    6.63
 -12   0  12  114.98    6.54
   0 -12  12  122.13    5.56
   0 -12 -12  115.93    5.60
 -12   0  13   19.27    2.73
   0  12 -13   20.73    2.69
  12   0 -13   21.15    2.59
 -12   0  13   17.93    2.53
  12   0 -13   14.34    1.97
   0  12 -14   31.21    3.08
 -12   0  14   29.07    3.19
  12   0 -14   26.92    2.81
 -12   0  14   24.27    2.73
   0  12 -15   17.66    2.42
 -12   0  15   19.21    2.52
 -12   0  15   16.89    2.26
  12   0 -15   12.47    1.83
 -12   0  16   16.08    2.29
   0  12 -16   15.37    2.19
 -12   0  16   14.49    1.97
  12   0 -16    9.47    1.60
   0  12 -17   49.81    3.43
 -12   0  17   45.90    3.54
 -12   0  17   33.49    2.90
  12   0 -17   28.37    2.56
 -12   0  18    1.84    1.01
   0  12 -18    1.66    1.07
 -12   0  18    1.02    0.79
  12   0 -18    0.60    0.66
 -12   0  19   10.29    1.64
 -12   0  19    6.58    1.22
   0  12 -19   11.47    1.60
   0  12 -20   15.96    1.71
 -12   0  20   14.66    1.79
  -1  12 -20   43.26    2.72
 -12   1  20   35.59    2.67
 -12   1  19    2.25    0.95
 -12   1  19    2.21    0.91
  -1  12 -19    2.74    1.04
  -1  12 -18   33.67    2.73
 -12   1  18   30.61    2.80
 -12   1  18   32.09    2.64
 -12   1  17   40.44    3.31
  -1  12 -17   50.39    3.40
 -12   1  17   41.08    3.21
 -12   1  16   15.29    2.15
 -12   1  16   13.56    2.10
  -1  12 -16   15.93    2.14
  -1  12 -15   53.79    3.86
 -12   1  15   44.69    3.76
 -12   1  15   48.17    3.79
  -1  12 -14   44.12    3.61
 -12   1  14   41.22    3.70
 -12   1  14   37.82    3.48
  12   1 -14   39.20    3.32
  -1  12 -13   98.92    5.73
 -12   1  13   95.19    5.91
  12   1 -13   89.54    5.34
 -12   1  12   -0.37    1.48
   1 -12 -12   -0.11    1.09
  -1  12 -12    1.36    1.54
  12   1 -12    0.94    1.36
  -1  12 -11   77.24    5.19
 -12   1  11   70.35    5.19
   1 -12 -11   67.96    4.19
  12   1 -11   71.26    4.84
 -12   1  10   68.32    5.21
  -1 -12  10   77.91    4.60
   1 -12 -10   74.32    4.48
 -12  -1 -10   69.80    4.82
  12   1 -10   77.96    5.09
 -12   1   9   55.30    4.59
  -1 -12   9   55.41    3.94
   1 -12  -9   52.58    3.80
 -12  -1  -9   41.69    3.88
  12   1  -9   53.49    4.31
 -12   1   8   20.50    2.99
  -1 -12   8   20.44    2.58
   1 -12  -8   20.21    2.50
 -12  -1  -8   16.78    2.58
  12   1  -8   18.15    2.70
 -12   1   7    3.41    1.82
  -1 -12   7    4.55    1.70
   1 -12  -7    5.03    1.65
 -12  -1  -7    4.10    1.67
  12   1  -7    2.46    1.73
 -12   1   6   20.98    3.13
  -1 -12   6   22.62    2.83
   1 -12  -6   21.66    2.73
 -12  -1  -6   25.15    3.02
 -12   1   6   22.11    2.99
  12   1  -6   21.43    2.99
 -12   1   5   35.17    3.97
  12   1  -5   35.63    3.86
  -1 -12   5   36.66    3.61
   1 -12  -5   35.25    3.55
 -12   1   5   40.47    4.00
 -12  -1  -5   38.74    3.80
  12   1  -4  177.98    9.08
 -12   1   4  166.86    9.05
  -1 -12   4  185.63    8.74
 -12   1   4  167.74    8.89
 -12  -1  -4  176.38    8.76
  12   1  -3   75.04    5.47
 -12  -1  -3   62.72    5.07
 -12   1   3   62.65    5.16
 -12   1   3   61.54    5.18
  -1 -12   3   67.85    5.06
 -12  -1  -3   64.30    4.93
  12  -1   2    4.28    3.26
  12   1  -2   10.55    2.74
  -1 -12   2   13.02    2.50
 -12  -1  -2   12.51    2.49
 -12   1   2    9.39    2.52
 -12  -1  -2    6.64    2.23
 -12   1   2    8.63    2.36
  12  -1   1   24.00    4.14
  12   1  -1   27.80    4.04
 -12  -1  -1   32.79    3.81
 -12  -1  -1   32.63    3.79
 -12   1   1   26.19    3.63
 -12   1   1   31.09    3.78
  -1 -12   1   31.38    3.44
   1 -12  -1   33.23    3.58
  12   1   0  244.25   11.65
  12  -1   0  238.07   11.76
 -12  -1   0  258.15   11.51
 -12   1   0  267.25   11.79
 -12  -1   0  230.69   11.06
 -12   1   0  249.23   11.35
  -1 -12   0  271.79   11.34
   1 -12   0  255.80   11.00
  12   1   1   27.89    4.16
  12  -1  -1   27.36    4.10
 -12  -1   1   30.96    3.57
 -12   1  -1   29.51    3.67
 -12   1  -1   22.99    3.43
 -12  -1   1   23.09    3.44
  -1 -12  -1   28.15    3.47
   1 -12   1   25.19    3.15
  12   1   2    3.52    3.08
  12  -1  -2    5.58    2.60
   1 -12   2    9.47    2.27
 -12   1  -2    8.55    2.32
 -12  -1   2    6.99    2.21
 -12   1  -2    7.38    2.10
 -12  -1   2    6.85    2.31
  12  -1  -3   64.42    5.20
 -12   1  -3   62.84    5.05
 -12  -1   3   57.55    4.83
 -12  -1   3   58.80    4.95
   1 -12   3   69.37    4.88
 -12   1  -3   65.73    5.03
  12  -1  -4  174.13    9.05
 -12   1  -4  197.88    9.34
 -12  -1   4  166.78    8.80
 -12  -1   4  162.91    8.77
   1 -12   4  185.15    8.55
 -12   1  -4  168.41    8.72
  12  -1  -5   35.98    3.87
 -12   1  -5   39.26    3.90
 -12  -1   5   30.43    3.65
  -1 -12  -5   34.14    3.56
   1 -12   5   34.27    3.33
 -12  -1   5   34.57    3.74
 -12   1  -5   35.99    3.74
  12  -1  -6   23.51    3.10
 -12  -1   6   23.41    3.09
  -1 -12  -6   25.72    3.02
   1 -12   6   22.95    2.75
 -12  -1   6   21.31    3.08
 -12   1  -6   22.95    3.08
  12  -1  -6   18.09    2.26
  12  -1  -7    5.37    1.96
  -1 -12  -7    4.78    1.75
   1 -12   7    3.59    1.63
 -12   1  -7    6.57    1.92
 -12  -1   7    6.28    1.82
  12  -1  -7    3.33    1.38
  12  -1  -8   17.64    2.74
  -1 -12  -8   19.88    2.49
   1 -12   8   19.61    2.47
 -12  -1   8   17.57    2.66
 -12   1  -8   22.42    2.79
  12  -1  -8   15.71    2.22
  12  -1  -9   49.45    4.18
 -12  -1   9   48.49    4.09
  -1 -12  -9   50.67    3.82
   1 -12   9   52.48    3.70
 -12   1  -9   52.11    4.14
  12  -1  -9   40.16    3.52
  12  -1 -10   67.29    4.79
 -12  -1  10   59.67    4.60
  -1 -12 -10   75.18    4.48
   1 -12  10   70.57    4.22
 -12   1 -10   72.51    4.86
  12  -1 -10   54.98    4.19
   1  12 -11   74.99    5.07
  12  -1 -11   76.38    4.98
 -12  -1  11   69.62    4.73
   1 -12  11   72.90    4.14
   1  12 -12   -0.17    1.60
  12  -1 -12    0.63    1.42
   1 -12  12    0.80    0.89
 -12  -1  12    2.31    1.32
  12  -1 -12    0.69    1.19
  12  -1 -13   92.42    5.38
 -12  -1  13   80.55    5.11
   1 -12  13   86.03    4.25
  12  -1 -13   81.99    4.98
  12  -1 -14   32.23    3.12
 -12  -1  14   34.81    3.02
  12  -1 -14   32.64    2.98
   1  12 -15   54.92    3.85
 -12  -1  15   51.12    3.95
 -12  -1  15   38.76    3.17
  12  -1 -15   41.88    3.27
   1  12 -16   16.98    2.12
 -12  -1  16   14.63    2.14
 -12  -1  16    9.01    1.53
  12  -1 -16   13.96    1.85
 -12  -1  17   46.30    3.50
   1  12 -17   50.71    3.40
 -12  -1  17   31.10    2.56
  12  -1 -17   32.73    2.81
 -12  -1  18   28.52    2.67
  12  -1 -18   24.92    2.38
   1  12 -19    5.62    1.17
 -12  -1  19    3.18    1.07
  12  -1 -19    3.15    0.96
   1  12 -20   51.57    2.99
 -12  -1  20   39.11    2.86
 -12   2  18    1.53    0.87
  -2  12 -18    1.74    0.84
  -2  12 -17   19.13    1.96
 -12   2  17   20.36    2.12
  -2  12 -16   22.73    2.25
 -12   2  16   22.01    2.35
 -12   2  16   25.47    2.56
 -12   2  15    7.76    1.57
 -12   2  15    5.77    1.52
  -2  12 -15    8.23    1.57
  -2  12 -14   38.15    3.13
 -12   2  14   37.26    3.22
 -12   2  14   36.64    3.28
 -12   2  13   12.22    2.11
 -12   2  13   15.11    2.22
  -2  12 -13   10.89    1.98
 -12   2  12    3.23    1.45
   2 -12 -12    3.08    1.03
 -12   2  12    4.00    1.57
  -2  12 -12    2.84    1.30
  12   2 -12    4.37    1.37
 -12   2  11   13.31    2.14
   2 -12 -11   10.72    1.71
 -12   2  11   10.04    2.17
  -2  12 -11   10.53    1.99
  12   2 -11   12.92    2.08
  -2  12 -10   79.64    5.14
 -12   2  10   89.88    5.57
 -12   2  10   85.98    5.52
   2 -12 -10   78.39    4.53
  12   2 -10   78.60    4.93
 -12   2   9   25.98    3.09
 -12   2   9   25.25    3.10
   2 -12  -9   25.49    2.54
  12   2  -9   23.95    2.75
 -12   2   8   30.22    3.31
 -12   2   8   28.24    3.33
   2 -12  -8   31.23    2.90
 -12   2   8   29.11    3.24
 -12  -2  -8   27.63    2.92
  12   2  -8   29.63    3.06
 -12   2   7   35.98    3.57
  12   2  -7   34.24    3.41
 -12   2   7   32.38    3.53
   2 -12  -7   35.93    3.18
 -12   2   7   35.29    3.58
 -12  -2  -7   31.87    3.23
  12   2  -6   27.31    3.13
 -12   2   6   28.75    3.43
 -12   2   6   23.10    3.11
   2 -12  -6   30.45    3.00
 -12  -2  -6   27.68    3.02
  12   2  -5   63.14    4.66
 -12   2   5   61.03    4.86
  -2 -12   5   67.95    4.73
 -12   2   5   56.77    4.68
   2 -12  -5   67.51    4.58
 -12  -2  -5   60.47    4.53
  12   2  -4  155.21    8.00
 -12   2   4  155.59    8.33
  -2 -12   4  164.20    8.07
 -12   2   4  158.47    8.15
 -12  -2  -4  150.48    7.73
  12  -2   3   26.97    4.11
  12   2  -3   33.51    3.50
 -12   2   3   27.81    3.52
 -12   2   3   23.94    3.35
  -2 -12   3   32.70    3.52
 -12  -2  -3   32.85    3.46
  12  -2   2   89.43    6.18
  12   2  -2   82.60    5.50
 -12   2   2   89.55    5.86
 -12   2   2   82.29    5.51
  -2 -12   2   98.18    5.80
 -12  -2  -2   76.63    5.22
  -2  12  -1    1.12    1.20
  -2 -12   1    5.36    2.14
   2 -12  -1    3.43    1.70
 -12  -2  -1    0.88    1.81
 -12   2   1    2.77    1.78
 -12   2   1    4.33    1.96
  12  -2   1    1.81    2.63
  12   2  -1    3.39    2.04
  -2  12   0    0.80    1.00
  -2 -12   0    1.08    1.76
   2 -12   0   -0.65    1.57
 -12  -2   0   -0.55    1.57
 -12   2   0    0.79    1.50
 -12  -2   0    0.89    1.48
 -12   2   0    1.50    1.67
  12   2   0   -0.38    1.86
  12  -2   0   -1.20    2.34
  -2  12   1    3.24    1.28
  12   2   1    1.55    2.30
  12  -2  -1    6.04    2.28
  -2 -12  -1    0.36    1.77
   2 -12   1    1.95    1.86
 -12  -2   1    2.94    1.68
 -12   2  -1    1.56    1.74
 -12   2  -1    4.83    2.14
 -12  -2   1    4.46    1.90
  12   2   2   78.93    5.68
  12  -2  -2   86.65    5.76
 -12  -2   2   84.95    5.45
 -12   2  -2   88.72    5.73
 -12  -2   2   76.92    5.26
   2 -12   2   84.00    5.24
 -12   2  -2   83.10    5.55
  -2  12   2   60.89    4.61
  12   2   3   24.51    3.76
  12  -2  -3   29.67    3.55
 -12  -2   3   25.66    3.06
 -12   2  -3   30.87    3.35
 -12  -2   3   22.54    3.23
   2 -12   3   32.21    3.30
 -12   2  -3   32.28    3.60
  12  -2  -3   22.64    2.54
  12  -2  -4  157.59    8.02
 -12   2  -4  171.22    8.22
 -12  -2   4  152.00    7.76
 -12  -2   4  143.46    7.65
  -2 -12  -4  163.21    7.95
   2 -12   4  154.21    7.47
 -12   2  -4  142.11    7.67
  12  -2  -4  128.98    6.82
  12  -2  -5   60.93    4.73
 -12   2  -5   66.49    4.82
 -12  -2   5   59.01    4.52
 -12  -2   5   63.20    4.72
  -2 -12  -5   66.29    4.82
   2 -12   5   68.83    4.55
 -12   2  -5   64.11    4.72
  12  -2  -5   51.71    3.99
  12  -2  -6   25.38    3.03
 -12  -2   6   27.56    2.99
 -12  -2   6   23.66    3.05
   2 -12   6   26.56    2.86
 -12   2  -6   28.24    3.10
  12  -2  -6   26.46    2.74
 -12  -2   7   32.39    3.54
  12  -2  -7   28.32    3.25
 -12  -2   7   28.40    2.99
 -12  -2   7   24.85    3.11
   2 -12   7   30.07    2.87
 -12   2  -7   32.13    3.25
  12  -2  -7   30.32    2.94
 -12  -2   8   31.51    3.42
  12  -2  -8   25.17    2.94
 -12  -2   8   26.08    2.81
   2 -12   8   27.26    2.75
 -12  -2   8   29.60    3.13
 -12   2  -8   26.81    3.00
  12  -2  -8   23.82    2.68
 -12  -2   9   24.26    3.07
  12  -2  -9   23.70    2.86
 -12  -2   9   24.62    2.72
   2 -12   9   26.34    2.55
 -12   2  -9   24.68    2.80
 -12  -2   9   20.24    2.76
  12  -2  -9   23.46    2.64
   2  12 -10   81.29    5.28
 -12  -2  10   77.79    5.36
  12  -2 -10   79.04    5.02
 -12  -2  10   70.37    4.65
   2 -12  10   90.97    4.62
 -12  -2  10   72.56    4.84
 -12   2 -10   80.19    5.04
  12  -2 -10   77.69    4.88
 -12  -2  11    6.74    1.92
   2  12 -11   11.24    2.05
  12  -2 -11   12.74    2.02
   2 -12  11   11.54    1.59
 -12  -2  11    9.30    1.69
  12  -2 -11   10.48    1.90
 -12  -2  12    1.02    1.27
   2  12 -12    2.02    1.29
   2 -12  12    2.02    0.98
  12  -2 -12    3.35    1.27
 -12  -2  13   10.79    2.03
   2  12 -13   12.49    2.06
   2 -12  13   12.25    1.42
  12  -2 -13   13.61    2.02
 -12  -2  14   33.10    3.14
  12  -2 -14   31.95    3.01
   2  12 -15    8.99    1.61
 -12  -2  15    4.88    1.45
  12  -2 -15    4.63    1.37
 -12  -2  16   17.74    2.12
  12  -2 -16   16.81    2.05
 -12  -2  17   15.41    2.01
  12  -2 -17   16.12    1.95
   2  12 -18    2.15    0.96
 -12  -2  18    1.96    0.81
  12  -2 -18    1.86    0.83
  12  -2 -19    6.91    1.20
 -12   3  18   19.46    1.83
 -12   3  17   14.30    1.77
 -12   3  16   11.39    1.65
 -12   3  16    8.52    1.37
 -12   3  15    8.66    1.52
 -12   3  15    8.52    1.44
  -3  12 -15    5.82    1.12
 -12   3  14   10.25    1.67
 -12   3  14    9.85    1.56
  -3  12 -14    6.87    1.29
  -3  12 -13   13.62    1.74
 -12   3  13   20.34    2.30
 -12   3  13   16.45    2.03
  -3  12 -12   72.29    4.28
 -12   3  12   89.25    5.14
 -12   3  12   84.34    4.77
 -12   3  11   58.22    4.13
   3 -12 -11   56.50    3.31
 -12   3  11   53.14    3.79
   3 -12 -10    5.48    1.33
 -12   3  10    3.54    1.50
 -12   3  10    2.08    1.36
  -3  12 -10    4.98    1.43
  -3  12  -9   28.10    2.77
 -12   3   9   36.84    3.37
 -12   3   9   32.13    3.02
   3 -12  -9   36.62    2.81
  -3  12  -8   63.99    4.31
  -3  12  -8   68.90    4.37
 -12   3   8   66.09    4.72
 -12   3   8   69.53    4.61
   3 -12  -8   76.23    4.38
  12  -3   7    4.32    2.21
  12   3  -7    6.52    1.61
  -3  12  -7    4.90    1.48
   3 -12  -7    6.50    1.59
 -12   3   7    6.65    1.82
 -12   3   7    6.25    1.75
  12  -3   6    9.64    2.49
  12   3  -6   13.92    2.09
  -3  12  -6   16.57    2.27
   3 -12  -6   15.62    2.29
 -12   3   6   15.87    2.40
 -12   3   6   14.92    2.25
  12  -3   5   83.11    5.56
  12   3  -5   87.58    5.17
 -12   3   5  103.44    5.88
 -12   3   5   93.28    5.45
   3 -12  -5   97.91    5.28
  -3  12  -5   72.50    4.18
  12  -3   4   44.33    4.03
  12   3  -4   47.77    3.70
 -12   3   4   47.90    4.05
 -12   3   4   42.33    3.76
  -3  12  -4   36.67    2.87
  -3  12  -3    9.03    1.74
  12  -3   3   13.55    2.56
  12   3  -3   17.87    2.37
 -12  -3  -3   15.50    2.16
 -12   3   3   15.66    2.52
 -12   3   3   17.89    2.56
  12  -3   2   34.44    3.51
  12   3  -2   33.47    3.32
 -12   3   2   35.42    3.38
 -12   3   2   42.09    3.77
 -12  -3  -2   30.85    3.05
  -3  12  -2   34.60    2.88
  12  -3   1  116.60    6.47
  12   3  -1  111.04    6.23
 -12   3   1  116.60    6.42
 -12   3   1  132.45    6.87
   3 -12  -1  132.21    6.51
 -12  -3  -1  109.88    5.96
  -3  12  -1  103.81    5.71
  -3  12   0   15.46    2.31
  12   3   0   20.81    2.84
  12  -3   0   24.47    3.06
 -12   3   0   25.61    3.03
   3 -12   0   22.37    2.81
 -12  -3   0   24.46    2.94
 -12   3   0   22.07    2.95
  12  -3   0   17.74    2.14
  12   3   1  120.63    6.32
  12  -3  -1  116.19    6.36
 -12   3  -1  121.99    6.53
   3 -12   1  133.36    6.43
 -12  -3   1  101.46    5.75
 -12   3  -1  116.14    6.31
  -3  12   1   97.60    5.75
  12  -3  -1   99.84    5.48
  12   3   2   37.66    3.49
  12  -3  -2   37.55    3.52
 -12   3  -2   42.37    3.64
   3 -12   2   41.18    3.40
 -12   3  -2   35.02    3.39
 -12  -3   2   30.71    3.01
  12  -3  -2   28.94    2.85
  -3  12   2   25.18    2.92
  -3  12   3   11.85    2.14
  12   3   3   15.32    2.45
  12  -3  -3   17.95    2.45
   3 -12   3   16.27    2.35
 -12   3  -3   16.65    2.41
 -12  -3   3   12.25    2.17
 -12   3  -3   17.72    2.47
  12  -3  -3   13.28    2.05
  12   3   4   44.52    3.80
  12  -3  -4   41.24    3.57
 -12   3  -4   41.13    3.66
 -12  -3   4   40.45    3.42
   3 -12   4   45.72    3.61
 -12   3  -4   50.39    3.87
  12  -3  -4   39.20    3.38
  -3  12   5  103.31    5.76
  12   3   5   81.70    5.34
  12  -3  -5   86.92    5.39
 -12  -3   5   88.66    5.21
   3 -12   5  111.66    5.56
 -12   3  -5   92.25    5.40
  12  -3  -5   89.78    5.25
  12   3   6   17.44    2.54
  12  -3  -6   17.43    2.36
  -3  12   6   14.91    2.25
   3 -12   6   17.41    2.24
 -12   3  -6   14.96    2.20
 -12  -3   6   13.35    2.07
  12  -3  -6   15.02    2.10
  12   3   7    1.76    1.80
  -3  12   7    6.65    1.57
   3 -12   7    7.03    1.59
 -12   3  -7    6.63    1.72
 -12  -3   7    6.24    1.57
  12  -3  -7    4.78    1.44
   3  12  -8   66.65    4.61
  -3  12   8   74.27    4.59
   3 -12   8   72.55    4.23
 -12   3  -8   72.37    4.52
  12  -3  -8   65.27    4.37
   3  12  -9   34.12    3.18
   3 -12   9   36.44    2.81
  12  -3  -9   31.74    2.98
   3  12 -10    2.64    1.35
   3 -12  10    3.97    1.12
  12  -3 -10    4.87    1.45
   3  12 -11   61.47    3.99
   3 -12  11   57.34    3.28
  12  -3 -11   53.67    3.86
   3 -12  12   80.94    3.91
  12  -3 -12   84.01    4.87
   3  12 -13   18.67    2.11
  12  -3 -13   13.88    1.94
   3  12 -14    9.81    1.57
  12  -3 -14    8.30    1.50
   3  12 -15   10.23    1.45
  12  -3 -15    9.14    1.51
  12  -3 -16    9.27    1.43
  12  -3 -17   13.75    1.65
 -12   4  15    1.10    0.65
 -12   4  14   62.67    3.55
 -12   4  13   39.10    2.79
 -12   4  12   27.09    2.18
 -12   4  12   39.76    2.86
  12  -4  11   11.40    1.28
 -12   4  11   12.03    1.54
   4 -12 -11   11.36    1.38
 -12   4  11   12.46    1.75
   4 -12 -10   13.24    1.53
 -12   4  10   13.12    1.80
 -12   4  10   11.27    1.55
 -12   4   9   18.65    1.96
 -12   4   9   21.23    2.28
   4 -12  -9   18.71    1.91
 -12   4   8   21.09    2.14
 -12   4   8   22.12    2.38
   4 -12  -8   24.15    2.23
 -12   4   7   26.68    2.43
 -12   4   7   24.62    2.52
   4 -12  -7   29.80    2.55
  -4  12  -7   22.32    1.91
 -12   4   6   38.13    2.97
 -12   4   6   42.16    3.31
   4 -12  -6   45.32    3.20
  -4  12  -6   35.30    2.51
  -4  12  -5    5.77    1.18
  -4  12  -5    5.69    1.35
   4 -12  -5    4.89    1.47
 -12   4   5    6.22    1.46
 -12   4   5    5.85    1.46
  -4  12  -4   76.59    4.54
 -12   4   4   67.16    4.33
 -12   4   4   68.18    4.12
  -4  12  -4   60.01    3.66
  -4  12  -3   11.01    1.71
 -12   4   3   11.98    1.99
 -12   4   3   16.30    2.05
 -12   4   2   36.61    3.12
 -12   4   2   33.95    2.84
  12  -4   2   28.68    2.35
  -4  12  -2   27.91    2.55
  -4  12  -1   31.66    3.04
 -12   4   1   32.05    2.97
   4 -12  -1   35.81    3.12
 -12   4   1   31.98    2.98
  12  -4   1   23.81    2.24
  -4  12  -1   26.61    2.57
  -4  12   0  143.77    6.86
 -12   4   0  133.37    6.42
   4 -12   0  141.78    6.51
 -12   4   0  126.21    6.15
  -4  12   0  119.15    6.10
  12  -4   0  112.12    5.73
  -4  12   1   27.46    3.02
 -12   4  -1   31.28    2.80
   4 -12   1   29.52    2.82
 -12   4  -1   28.93    2.72
  12  -4  -1   27.04    2.49
  -4  12   1   28.34    2.77
  -4  12   2   38.05    3.26
 -12   4  -2   33.36    2.89
   4 -12   2   37.86    3.11
 -12   4  -2   33.62    2.91
  12  -4  -2   32.69    2.84
  -4  12   2   31.27    2.95
  -4  12   3    9.49    1.86
  -4  12   3   12.23    1.92
   4 -12   3   14.25    2.05
 -12   4  -3   10.52    1.84
  12  -4  -3   11.27    1.83
   4  12  -4   58.82    3.96
  -4  12   4   75.59    4.56
   4 -12   4   78.30    4.36
 -12   4  -4   69.20    4.12
  -4  12   4   56.22    4.08
  12  -4  -4   63.19    4.06
  -4  12   5    5.16    1.51
   4  12  -5    4.57    1.35
  -4  12   5    5.23    1.44
 -12   4  -5    7.75    1.52
   4 -12   5    6.38    1.54
  12  -4  -5    6.15    1.44
   4  12  -6   34.79    2.84
   4 -12   6   40.75    2.98
  12  -4  -6   38.08    3.05
  -4  12   6   30.27    3.00
   4  12  -7   25.38    2.35
   4 -12   7   30.76    2.49
  12  -4  -7   29.78    2.64
   4  12  -8   16.58    1.89
   4 -12   8   23.42    2.11
  12  -4  -8   22.03    2.32
   4  12  -9   14.88    1.73
   4 -12   9   21.72    1.96
  12  -4  -9   17.78    2.09
   4 -12  10   14.76    1.47
   4 -12  10   16.00    1.61
  12  -4 -10   13.24    1.84
  12  -4 -11   10.87    1.39
   4 -12  11   11.77    1.27
   4 -12  11   13.71    1.36
  12  -4 -11    9.77    1.66
   4 -12  12   38.57    2.31
  12  -4 -12   31.62    2.74
  12  -4 -13   37.22    2.83
  12  -4 -14   64.14    3.72
  12  -4 -15    1.00    0.71
   5 -12  -9   53.05    2.86
  12  -5   8   28.06    2.04
   5 -12  -8   33.43    2.26
  12  -5   7   21.37    1.82
   5 -12  -7   22.19    1.93
  12  -5   6   16.57    1.74
 -12   5   6   12.29    1.53
  -5  12  -6   14.51    1.47
  12  -5   5   65.71    3.59
   5 -12  -5   69.27    3.74
  -5  12  -5   58.19    3.24
 -12   5   4   65.42    3.77
  -5  12  -4   82.15    4.04
 -12   5   3   34.72    2.52
  -5  12  -3   40.49    2.77
  -5  12  -2   63.03    3.52
  12  -5   2   51.84    3.05
   5 -12  -1   24.94    2.35
  12  -5   1   20.85    1.93
  -5  12  -1   23.60    2.21
  -5  12   0    0.20    1.01
   5 -12   0    1.16    1.15
  12  -5   0   -0.17    0.72
  12  -5  -1   21.98    2.03
  -5  12   1   23.60    2.26
  12  -5  -2   63.07    3.69
  -5  12   2   60.14    3.76
   5 -12   3   51.02    3.28
  12  -5  -3   44.90    3.01
  -5  12   4   69.86    4.33
  12  -5  -4   80.89    4.37
  12  -5  -5   69.84    3.85
   5 -12   5   75.77    3.78
  12  -5  -5   56.26    3.53
  -5  12   5   49.18    3.53
  12  -5  -6   18.96    1.90
   5 -12   6   17.71    1.77
  -5  12   6   14.34    1.80
  12  -5  -6   11.84    1.68
  -5  12   7   14.91    1.86
  12  -5  -7   21.25    1.99
   5 -12   7   21.28    1.82
  12  -5  -7   16.43    1.83
  12  -5  -8   31.29    2.31
   5 -12   8   31.38    2.12
  12  -5  -8   30.47    2.42
  12  -5  -9   52.29    2.82
  12  -5  -9   51.08    3.10
  -5  12  10    6.66    1.32
  12  -5 -10   10.11    1.46
  -5  12  11    1.97    0.91
  12  -5 -11    6.19    1.14
  12  -5 -12   32.27    2.20
  -5  12  12   12.73    1.58
  12  -6   4    2.31    0.69
   6 -12  -4    0.90    0.63
  12  -6   3    4.43    0.89
  12  -6   2   33.84    2.22
  -6  12  -2   23.41    1.88
  -6  12  -1    6.35    1.08
  12  -6   1    9.92    1.28
  -6  12   0    0.21    0.57
   6 -12   0   -0.36    0.67
  12  -6   0    1.05    0.72
  12  -6  -1   11.47    1.38
   6 -12   1   10.22    1.33
   6 -12   2   39.39    2.31
  -6  12   2   21.60    1.96
  -6  12   3    3.81    0.93
   6 -12   3    6.02    1.03
  -6  12   4    1.04    0.63
  12  -6  -4    0.55    0.66
   6 -12   4    1.82    0.76
  -6  12   5   12.54    1.45
   0 -13   0   -1.68    1.50
   0 -13   1  109.42    5.51
   0 -13  -1  107.54    5.41
 -13   0   2  137.65    6.56
   0 -13   2  138.67    6.30
   0 -13   3   -0.43    1.14
 -13   0  -3   -0.60    1.36
 -13   0   3    1.14    1.13
 -13   0   4   22.36    2.40
   0 -13   4   28.97    2.50
   0 -13  -4   26.87    2.48
 -13   0  -4   26.50    2.54
 -13   0   5   65.86    4.14
   0 -13   5   69.25    3.87
   0 -13  -5   69.99    3.94
 -13   0  -5   61.89    4.00
   0 -13  -6    5.92    1.34
 -13   0   6    5.80    1.42
 -13   0   7    5.66    1.28
   0  13  -7    6.18    1.43
 -13   0   8    9.56    1.53
   0  13  -8    8.33    1.60
   0  13  -9   43.28    3.08
 -13   0   9   35.35    2.75
   0  13 -10   37.87    2.77
 -13   0  10   32.11    2.46
 -13   0  11    2.48    0.87
   0  13 -11    4.09    1.03
   0  13 -12    0.86    0.71
 -13   1  12   14.02    1.57
  -1  13 -11   20.21    1.91
 -13   1  11   21.14    1.94
 -13   1  11   25.36    2.06
 -13   1  10   10.41    1.50
  -1  13 -10   10.23    1.47
  -1  13  -9   32.69    2.62
 -13   1   9   40.05    2.77
 -13   1   8   45.58    3.04
   1 -13  -8   41.00    2.63
  -1  13  -7   34.00    2.78
 -13   1   7   34.89    2.79
   1 -13  -7   33.52    2.47
  -1  13  -6   24.20    2.44
 -13   1   6   24.36    2.41
   1 -13  -6   25.43    2.19
   1 -13  -5   12.64    1.69
 -13   1   5   10.42    1.75
   1 -13  -4   16.05    2.02
 -13  -1  -4   15.71    1.99
 -13   1   4   17.11    2.15
 -13  -1  -3   95.56    4.97
 -13   1   3  103.15    5.22
 -13   1   2   34.28    3.10
 -13  -1  -2   31.67    2.78
 -13   1   2   36.58    3.04
   1 -13  -1   15.73    1.98
 -13   1   1   11.74    1.96
 -13  -1  -1   13.64    1.98
 -13   1   1   14.44    2.10
   1 -13   0   46.28    3.20
 -13  -1   0   40.62    3.12
 -13   1   0   46.30    3.36
   1 -13   1   15.15    2.02
 -13  -1   1   13.06    2.02
 -13   1  -1   17.73    2.15
   1 -13   2   35.28    2.82
 -13   1  -2   35.23    2.92
 -13  -1   2   33.82    2.88
   1 -13   3  106.27    5.07
 -13   1  -3  102.98    5.21
 -13  -1   3   92.12    4.97
   1 -13   4   17.30    1.99
 -13  -1   4   13.55    1.88
 -13   1  -4   14.25    1.95
   1 -13   5    9.50    1.51
 -13   1  -5    9.61    1.65
 -13  -1   5    8.62    1.59
   1  13  -6   22.23    2.37
   1 -13   6   24.91    2.14
 -13  -1   6   19.15    2.08
   1  13  -7   38.24    3.00
 -13  -1   7   29.68    2.53
 -13  -1   7   27.70    2.38
   1 -13   7   35.56    2.41
   1  13  -8   43.77    3.08
 -13  -1   8   35.66    2.60
 -13  -1   8   38.89    2.85
   1  13  -9   35.41    2.70
 -13  -1   9   31.49    2.48
 -13  -1  10   10.05    1.41
   1  13 -10    9.33    1.48
   1  13 -11   22.97    2.09
 -13   2  10   19.16    1.85
 -13   2  10   17.33    1.66
 -13   2   9    2.53    0.85
 -13   2   9    0.98    0.78
 -13   2   8    3.94    1.16
 -13   2   8    4.44    1.05
  -2  13  -8    2.76    0.90
 -13   2   7   66.98    3.78
   2 -13  -7   68.78    3.36
 -13   2   7   66.03    3.55
   2 -13  -6    2.22    1.02
 -13   2   6    3.36    1.17
 -13   2   6    3.98    1.11
  -2  13  -6    2.77    1.21
 -13   2   5   33.55    2.72
   2 -13  -5   39.17    2.59
 -13   2   5   32.59    2.56
   2 -13  -4    3.05    1.07
 -13   2   4    1.73    1.09
 -13   2   4    1.65    1.02
  -2  13  -4    2.11    1.12
 -13   2   3    2.81    1.20
 -13   2   3    3.35    1.14
 -13   2   2   51.87    3.47
 -13   2   2   55.05    3.37
   2 -13  -1    9.00    1.65
 -13  -2  -1    9.48    1.66
 -13   2   1    8.82    1.66
 -13   2   1   13.91    1.82
   2 -13   0   81.00    4.07
 -13   2   0   71.61    4.03
   2 -13   1    9.92    1.74
 -13  -2   1    9.00    1.58
 -13   2  -1    8.68    1.69
   2 -13   2   59.57    3.35
 -13   2  -2   50.52    3.23
   2 -13   3    2.20    1.02
 -13   2  -3    3.19    1.16
 -13  -2   3    2.01    0.87
   2 -13   4    0.61    0.97
 -13   2  -4    2.51    1.13
 -13  -2   4    1.71    0.94
   2  13  -4    2.38    1.14
   2  13  -5   35.24    2.69
   2 -13   5   39.28    2.56
   2 -13   6    3.41    1.02
   2  13  -6    3.00    1.26
   2  13  -7   66.46    3.86
   2 -13   7   70.96    3.48
   2  13  -8    2.94    0.98
 -13   3   7    5.82    1.08
 -13   3   6    0.47    0.69
 -13   3   5   17.84    1.85
   3 -13  -5   24.66    1.93
 -13   3   4   86.74    4.26
 -13   3   4   78.64    3.96
 -13   3   3   15.81    1.67
 -13   3   2    8.93    1.39
   3 -13  -1   74.19    3.78
 -13   3   1   61.85    3.47
   3 -13   0  221.36    7.88
 -13   3   0  187.09    7.52
   3 -13   1   71.54    3.62
 -13   3  -1   56.24    3.37
   3 -13   2   15.30    1.62
   3 -13   3   22.22    1.93
   3 -13   4  102.69    4.56
   3 -13   5   24.15    1.84
   0   0   0    0.00    0.00


TITL tf-37-smart in P4(1)2(1)2
REM P4(1)2(1)2 (#92 in standard setting)
CELL 1.54184  10.713214  10.713214  35.343070  90.0000  90.0000  90.0000
ZERR    8.00   0.000056   0.000056   0.000326   0.0000   0.0000   0.0000
LATT -1
SYMM -x,-y, z+1/2
SYMM -y+1/2, x+1/2, z+1/4
SYMM  y+1/2,-x+1/2, z+3/4
SYMM -x+1/2, y+1/2,-z+1/4
SYMM  x+1/2,-y+1/2,-z+3/4
SYMM  y, x,-z
SYMM -y,-x,-z+1/2
SFAC C H N O
UNIT 208.00 160.00 16.00 16.00
TREF
HKLF 4
END
_computing_structure_solution     'SHELXT 2018/2 (Sheldrick, 2018)'
;
_shelx_hkl_checksum                6699
_olex2_submission_special_instructions  'No special instructions were received'
_oxdiff_exptl_absorpt_empirical_details
;
Empirical correction (ABSPACK) includes:
- Absorption correction using spherical harmonics
- Frame scaling
;
_oxdiff_exptl_absorpt_empirical_full_max  1.222
_oxdiff_exptl_absorpt_empirical_full_min  0.801
