data_tf-rx6
_audit_creation_date               2020-02-11
_audit_creation_method
;
Olex2 1.3
(compiled Nov 21 2019 18:26:39 for OlexSys, GUI svn.r6003)
;
_shelx_SHELXL_version_number       '2018/3'
_audit_contact_author_address      ?
_audit_contact_author_email        ?
_audit_contact_author_name         ''
_audit_contact_author_phone        ?
_publ_contact_author_id_orcid      ?
_publ_section_references
;
Dolomanov, O.V., Bourhis, L.J., Gildea, R.J, Howard, J.A.K. & Puschmann, H.
 (2009), J. Appl. Cryst. 42, 339-341.

Sheldrick, G.M. (2015). Acta Cryst. A71, 3-8.

Sheldrick, G.M. (2015). Acta Cryst. C71, 3-8.
;
_chemical_name_common              ?
_chemical_name_systematic          ?
_chemical_formula_moiety           'C14 H9 N O3 Se'
_chemical_formula_sum              'C14 H9 N O3 Se'
_chemical_formula_weight           318.18
_chemical_melting_point            ?
_chemical_oxdiff_formula           'C14 H9 N1 O3 Se1'
_chemical_oxdiff_usercomment       'ruyi 4co2h from dmf'
loop_
  _atom_type_symbol
  _atom_type_description
  _atom_type_scat_dispersion_real
  _atom_type_scat_dispersion_imag
  _atom_type_scat_source
 'C' 'C' 0.0181 0.0091 'International Tables Vol C Tables 4.2.6.8 and 6.1.1.4'
 'H' 'H' 0.0000 0.0000 'International Tables Vol C Tables 4.2.6.8 and 6.1.1.4'
 'N' 'N' 0.0311 0.0180 'International Tables Vol C Tables 4.2.6.8 and 6.1.1.4'
 'O' 'O' 0.0492 0.0322 'International Tables Vol C Tables 4.2.6.8 and 6.1.1.4'
 'Se' 'Se' -0.7943 1.1372
 'International Tables Vol C Tables 4.2.6.8 and 6.1.1.4'

_shelx_space_group_comment
;
The symmetry employed for this shelxl refinement is uniquely defined
by the following loop, which should always be used as a source of
symmetry information in preference to the above space-group names.
They are only intended as comments.
;
_space_group_crystal_system        'monoclinic'
_space_group_IT_number             14
_space_group_name_H-M_alt          'P 1 21/c 1'
_space_group_name_Hall             '-P 2ybc'
loop_
  _space_group_symop_operation_xyz
 'x, y, z'
 '-x, y+1/2, -z+1/2'
 '-x, -y, -z'
 'x, -y-1/2, z-1/2'

_cell_length_a                     20.7252(4)
_cell_length_b                     4.95870(10)
_cell_length_c                     11.8879(2)
_cell_angle_alpha                  90
_cell_angle_beta                   98.111(2)
_cell_angle_gamma                  90
_cell_volume                       1209.50(4)
_cell_formula_units_Z              4
_cell_measurement_reflns_used      4904
_cell_measurement_temperature      100.00(10)
_cell_measurement_theta_max        76.0810
_cell_measurement_theta_min        4.3090
_shelx_estimated_absorpt_T_max     0.912
_shelx_estimated_absorpt_T_min     0.550
_exptl_absorpt_coefficient_mu      4.250
_exptl_absorpt_correction_T_max    0.929
_exptl_absorpt_correction_T_min    0.729
_exptl_absorpt_correction_type     analytical
_exptl_absorpt_process_details
;
CrysAlisPro 1.171.40.67a (Rigaku Oxford Diffraction, 2019)
Analytical numeric absorption correction using a multifaceted crystal
			model based on expressions derived by R.C. Clark & J.S. Reid.
(Clark, R. C. & Reid, J. S. (1995). Acta Cryst. A51, 887-897)
Empirical absorption correction using spherical harmonics,
 implemented in SCALE3 ABSPACK scaling algorithm.
;
_exptl_absorpt_special_details     ?
_exptl_crystal_colour              colourless
_exptl_crystal_colour_primary      colourless
_exptl_crystal_density_diffrn      1.747
_exptl_crystal_density_meas        ?
_exptl_crystal_density_method      ?
_exptl_crystal_description         needle
_exptl_crystal_F_000               632
loop_
  _exptl_crystal_face_index_h
  _exptl_crystal_face_index_k
  _exptl_crystal_face_index_l
  _exptl_crystal_face_perp_dist
 -7 0 7 0.0057
 7 0 -7 0.0166
 -3 3 -2 0.0886
 3 -3 1 0.0590
 -13 0 -1 0.0092
 13 0 2 0.0109

_exptl_crystal_size_max            0.16
_exptl_crystal_size_mid            0.034
_exptl_crystal_size_min            0.022
loop_
  _exptl_oxdiff_crystal_face_indexfrac_h
  _exptl_oxdiff_crystal_face_indexfrac_k
  _exptl_oxdiff_crystal_face_indexfrac_l
  _exptl_oxdiff_crystal_face_x
  _exptl_oxdiff_crystal_face_y
  _exptl_oxdiff_crystal_face_z
 -7.3850 0.4706 6.8850 0.3050 -0.0403 0.9515
 7.1878 -0.1495 -7.0310 -0.2063 0.0273 -0.9781
 -3.2202 3.0323 -1.5368 0.9724 -0.0252 -0.2321
 3.2945 -3.0342 1.4680 -0.9746 0.0253 0.2224
 -12.7622 -0.1837 -1.3374 0.3265 0.9227 0.2050
 12.5437 0.1597 1.7140 -0.3294 -0.9313 -0.1555

_exptl_transmission_factor_max     ?
_exptl_transmission_factor_min     ?
_diffrn_reflns_av_R_equivalents    0.0365
_diffrn_reflns_av_unetI/netI       0.0364
_diffrn_reflns_Laue_measured_fraction_full  0.996
_diffrn_reflns_Laue_measured_fraction_max  0.972
_diffrn_reflns_limit_h_max         24
_diffrn_reflns_limit_h_min         -26
_diffrn_reflns_limit_k_max         6
_diffrn_reflns_limit_k_min         -6
_diffrn_reflns_limit_l_max         14
_diffrn_reflns_limit_l_min         -12
_diffrn_reflns_number              8244
_diffrn_reflns_point_group_measured_fraction_full  0.996
_diffrn_reflns_point_group_measured_fraction_max  0.972
_diffrn_reflns_theta_full          67.684
_diffrn_reflns_theta_max           77.179
_diffrn_reflns_theta_min           4.310
_diffrn_ambient_environment        N~2~
_diffrn_ambient_temperature        100.00(10)
_diffrn_detector                   'Hybrid Pixel Array Detector'
_diffrn_detector_area_resol_mean   10.0000
_diffrn_detector_type              HyPix
_diffrn_measured_fraction_theta_full  0.996
_diffrn_measured_fraction_theta_max  0.972
_diffrn_measurement_details
;
List of Runs (angles in degrees, time in seconds):

  # Type    Start    End  Width  t~exp~   \w     \q     \k     \f   Frames
--------------------------------------------------------------------------
  1  \w    -83.00  -6.00   0.50    1.00    --  -48.32 115.00  24.00  154
  2  \w    -54.00 -16.00   0.50    1.59    --  -86.25  45.00-150.00   76
  3  \w   -120.00 -85.00   0.50    1.00    --  -48.32 -57.00 -90.00   70
  4  \w   -124.00 -81.00   0.50    1.59    --  -86.25-115.00 -65.00   86
  5  \w   -120.00 -87.00   0.50    1.00    --  -48.32 -57.00 120.00   66
  6  \w   -120.00 -49.00   0.50    1.00    --  -48.32-167.00 149.00  142
  7  \w     35.00  60.00   0.50    1.00    --   48.32-115.00 -65.00   50
  8  \w     64.00  90.00   0.50    1.59    --  107.75-115.00 -65.00   52
  9  \w     70.00 112.00   0.50    1.59    --  107.75-125.00   0.00   84
 10  \w     66.00  93.00   0.50    1.59    --  107.75 -94.00  90.00   54
 11  \w     69.00 140.00   0.50    1.59    --  107.75-167.00 149.00  142
 12  \w     64.00  89.00   0.50    1.00    --   48.32-167.00 149.00   50
 13  \w     35.00  92.00   0.50    1.59    --  107.75 -94.00 120.00  114
 14  \w     35.00  68.00   0.50    1.59    --  107.75 -61.00 150.00   66
 15  \w     35.00  63.00   0.50    1.59    --  107.75-125.00   0.00   56
 16  \w     40.00 106.00   0.50    1.59    --  107.75 -94.00 -30.00  132
 17  \w     94.00 176.00   0.50    1.59    --  107.75  15.00-150.00  164
 18  \w    140.00 176.00   0.50    1.59    --  107.75  77.00 -90.00   72
 19  \w    108.00 157.00   0.50    1.59    --  107.75 115.00  24.00   98
 20  \w    101.00 134.00   0.50    1.59    --  107.75  77.00 -90.00   66
 21  \w     82.00 121.00   0.50    1.00    --   48.32  57.00 -60.00   78
 22  \w     35.00  68.00   0.50    1.59    --  107.75 -61.00 -90.00   66
 23  \w     35.00  60.00   0.50    1.59    --  107.75 -61.00 -30.00   50
;
_diffrn_measurement_device         'four-circle diffractometer'
_diffrn_measurement_device_type    'XtaLAB Synergy, Dualflex, HyPix'
_diffrn_measurement_method         '\w scans'
_diffrn_orient_matrix_type        
 'CrysAlisPro convention (1999,Acta A55,543-557)'
_diffrn_orient_matrix_UB_11        -0.0290330000
_diffrn_orient_matrix_UB_12        0.2865739000
_diffrn_orient_matrix_UB_13        -0.0064374000
_diffrn_orient_matrix_UB_21        -0.0637300000
_diffrn_orient_matrix_UB_22        -0.1098054000
_diffrn_orient_matrix_UB_23        -0.0667013000
_diffrn_orient_matrix_UB_31        -0.0271418000
_diffrn_orient_matrix_UB_32        -0.0483916000
_diffrn_orient_matrix_UB_33        0.1123970000
_diffrn_radiation_monochromator    mirror
_diffrn_radiation_probe            x-ray
_diffrn_radiation_type             'Cu K\a'
_diffrn_radiation_wavelength       1.54184
_diffrn_source                     'micro-focus sealed X-ray tube'
_diffrn_source_type                'PhotonJet (Cu) X-ray Source'
_reflns_Friedel_coverage           0.000
_reflns_Friedel_fraction_full      .
_reflns_Friedel_fraction_max       .
_reflns_number_gt                  2278
_reflns_number_total               2497
_reflns_odcompleteness_completeness  98.64
_reflns_odcompleteness_iscentric   1
_reflns_odcompleteness_theta       75.12
_reflns_special_details
;
 Reflections were merged by SHELXL according to the crystal
 class for the calculation of statistics and refinement.
 
 _reflns_Friedel_fraction is defined as the number of unique
 Friedel pairs measured divided by the number that would be
 possible theoretically, ignoring centric projections and
 systematic absences.
;
_reflns_threshold_expression       'I > 2\s(I)'
_computing_cell_refinement         'CrysAlisPro 1.171.40.67a (Rigaku OD, 2019)'
_computing_data_collection         'CrysAlisPro 1.171.40.67a (Rigaku OD, 2019)'
_computing_data_reduction          'CrysAlisPro 1.171.40.67a (Rigaku OD, 2019)'
_computing_molecular_graphics      'Olex2 1.3 (Dolomanov et al., 2009)'
_computing_publication_material    'Olex2 1.3 (Dolomanov et al., 2009)'
_computing_structure_refinement    'SHELXL 2018/3 (Sheldrick, 2015)'
_computing_structure_solution      'SHELXT 2018/2 (Sheldrick, 2018)'
_refine_diff_density_max           0.830
_refine_diff_density_min           -0.812
_refine_diff_density_rms           0.099
_refine_ls_extinction_coef         .
_refine_ls_extinction_method       none
_refine_ls_goodness_of_fit_ref     1.124
_refine_ls_hydrogen_treatment      mixed
_refine_ls_matrix_type             full
_refine_ls_number_parameters       175
_refine_ls_number_reflns           2497
_refine_ls_number_restraints       0
_refine_ls_R_factor_all            0.0380
_refine_ls_R_factor_gt             0.0346
_refine_ls_restrained_S_all        1.124
_refine_ls_shift/su_max            0.004
_refine_ls_shift/su_mean           0.000
_refine_ls_structure_factor_coef   Fsqd
_refine_ls_weighting_details      
 'w=1/[\s^2^(Fo^2^)+(0.0439P)^2^+1.9575P] where P=(Fo^2^+2Fc^2^)/3'
_refine_ls_weighting_scheme        calc
_refine_ls_wR_factor_gt            0.0933
_refine_ls_wR_factor_ref           0.0953
_refine_special_details            ?
_olex2_refinement_description
;
1. Fixed Uiso
 At 1.2 times of:
  All C(H) groups
 At 1.5 times of:
  All O(H) groups
2.a Aromatic/amide H refined with riding coordinates:
 C6(H6), C13(H13), C3(H3A), C4(H4), C9(H9), C12(H12), C5(H5), C10(H10)
;
_atom_sites_solution_hydrogens     mixed
_atom_sites_solution_primary       dual
_atom_sites_solution_secondary     ?
loop_
  _atom_site_label
  _atom_site_type_symbol
  _atom_site_fract_x
  _atom_site_fract_y
  _atom_site_fract_z
  _atom_site_U_iso_or_equiv
  _atom_site_adp_type
  _atom_site_occupancy
  _atom_site_site_symmetry_order
  _atom_site_calc_flag
  _atom_site_refinement_flags_posn
  _atom_site_refinement_flags_adp
  _atom_site_refinement_flags_occupancy
  _atom_site_disorder_assembly
  _atom_site_disorder_group
 Se1 Se 0.21575(2) 0.69924(6) 0.23833(2) 0.01719(13) Uani 1 1 d . . . . .
 O1 O 0.18971(10) 0.5343(4) 0.55611(16) 0.0207(4) Uani 1 1 d . . . . .
 O3 O 0.43484(11) -0.3808(5) 0.5616(2) 0.0296(5) Uani 1 1 d . . . . .
 H3 H 0.465(2) -0.518(10) 0.570(4) 0.044 Uiso 1 1 d . U . . .
 O2 O 0.47616(11) -0.2490(5) 0.4057(2) 0.0314(5) Uani 1 1 d . . . . .
 N1 N 0.22873(11) 0.5305(5) 0.38376(19) 0.0174(5) Uani 1 1 d . . . . .
 C8 C 0.27989(14) 0.3407(6) 0.4082(2) 0.0180(6) Uani 1 1 d . . . . .
 C7 C 0.18795(14) 0.6169(6) 0.4575(2) 0.0193(6) Uani 1 1 d . . . . .
 C1 C 0.14892(13) 0.8953(6) 0.2934(2) 0.0181(5) Uani 1 1 d . . . . .
 C6 C 0.10955(14) 1.0960(6) 0.2367(2) 0.0204(6) Uani 1 1 d . . . . .
 H6 H 0.113388 1.143607 0.160565 0.024 Uiso 1 1 calc R U . . .
 C2 C 0.14290(14) 0.8252(6) 0.4048(2) 0.0186(6) Uani 1 1 d . . . . .
 C13 C 0.28262(14) 0.1630(6) 0.4999(2) 0.0209(6) Uani 1 1 d . . . . .
 H13 H 0.249939 0.168970 0.548398 0.025 Uiso 1 1 calc R U . . .
 C3 C 0.09737(14) 0.9527(6) 0.4622(2) 0.0201(6) Uani 1 1 d . . . . .
 H3A H 0.092919 0.902541 0.537868 0.024 Uiso 1 1 calc R U . . .
 C4 C 0.05861(14) 1.1544(6) 0.4071(3) 0.0218(6) Uani 1 1 d . . . . .
 H4 H 0.027857 1.245508 0.445601 0.026 Uiso 1 1 calc R U . . .
 C9 C 0.32841(15) 0.3269(6) 0.3376(3) 0.0230(6) Uani 1 1 d . . . . .
 H9 H 0.326749 0.446156 0.274733 0.028 Uiso 1 1 calc R U . . .
 C11 C 0.38118(15) -0.0335(6) 0.4500(3) 0.0221(6) Uani 1 1 d . . . . .
 C12 C 0.33267(15) -0.0208(6) 0.5199(2) 0.0227(6) Uani 1 1 d . . . . .
 H12 H 0.334166 -0.141088 0.582447 0.027 Uiso 1 1 calc R U . . .
 C5 C 0.06463(15) 1.2239(6) 0.2950(3) 0.0229(6) Uani 1 1 d . . . . .
 H5 H 0.037510 1.361131 0.258051 0.027 Uiso 1 1 calc R U . . .
 C10 C 0.37868(15) 0.1427(7) 0.3579(3) 0.0238(6) Uani 1 1 d . . . . .
 H10 H 0.411373 0.135836 0.309433 0.029 Uiso 1 1 calc R U . . .
 C14 C 0.43449(15) -0.2330(7) 0.4733(3) 0.0241(6) Uani 1 1 d . . . . .

loop_
  _atom_site_aniso_label
  _atom_site_aniso_U_11
  _atom_site_aniso_U_22
  _atom_site_aniso_U_33
  _atom_site_aniso_U_23
  _atom_site_aniso_U_13
  _atom_site_aniso_U_12
 Se1 0.01944(18) 0.01797(19) 0.01513(18) 0.00036(10) 0.00578(11) 0.00155(11)
 O1 0.0267(10) 0.0225(11) 0.0140(9) 0.0005(8) 0.0070(8) 0.0005(9)
 O3 0.0310(12) 0.0256(12) 0.0321(12) 0.0064(10) 0.0046(10) 0.0099(10)
 O2 0.0268(12) 0.0310(13) 0.0387(14) 0.0035(10) 0.0127(10) 0.0079(10)
 N1 0.0204(11) 0.0170(12) 0.0153(11) 0.0002(9) 0.0049(9) -0.0001(9)
 C8 0.0189(13) 0.0160(13) 0.0188(13) -0.0021(10) 0.0015(10) -0.0003(11)
 C7 0.0180(13) 0.0174(14) 0.0232(14) -0.0034(11) 0.0049(11) -0.0024(11)
 C1 0.0176(12) 0.0200(14) 0.0170(13) -0.0037(11) 0.0034(10) -0.0016(11)
 C6 0.0210(13) 0.0209(15) 0.0194(13) 0.0019(11) 0.0032(11) -0.0015(12)
 C2 0.0184(13) 0.0171(14) 0.0206(14) -0.0004(11) 0.0035(11) -0.0018(11)
 C13 0.0236(14) 0.0212(15) 0.0193(14) 0.0005(11) 0.0075(11) 0.0003(12)
 C3 0.0199(13) 0.0236(15) 0.0172(13) -0.0029(11) 0.0043(10) -0.0016(11)
 C4 0.0180(13) 0.0240(15) 0.0241(14) -0.0055(12) 0.0056(11) 0.0011(12)
 C9 0.0265(15) 0.0228(15) 0.0212(14) 0.0039(11) 0.0080(12) 0.0028(12)
 C11 0.0240(14) 0.0162(14) 0.0259(15) -0.0008(11) 0.0031(11) 0.0034(12)
 C12 0.0282(15) 0.0211(15) 0.0191(14) 0.0011(11) 0.0045(11) 0.0015(12)
 C5 0.0199(14) 0.0206(15) 0.0281(16) -0.0010(12) 0.0030(12) 0.0012(12)
 C10 0.0232(14) 0.0243(16) 0.0252(15) 0.0016(12) 0.0083(12) 0.0023(12)
 C14 0.0232(14) 0.0238(16) 0.0256(15) 0.0017(12) 0.0039(12) 0.0007(12)

_geom_special_details
;
 All esds (except the esd in the dihedral angle between two l.s. planes)
 are estimated using the full covariance matrix.  The cell esds are taken
 into account individually in the estimation of esds in distances, angles
 and torsion angles; correlations between esds in cell parameters are only
 used when they are defined by crystal symmetry.  An approximate (isotropic)
 treatment of cell esds is used for estimating esds involving l.s. planes.
;
loop_
  _geom_bond_atom_site_label_1
  _geom_bond_atom_site_label_2
  _geom_bond_distance
  _geom_bond_site_symmetry_2
  _geom_bond_publ_flag
 Se1 N1 1.905(2) . ?
 Se1 C1 1.883(3) . ?
 O1 C7 1.237(4) . ?
 O3 H3 0.92(5) . ?
 O3 C14 1.279(4) . ?
 O2 C14 1.263(4) . ?
 N1 C8 1.417(4) . ?
 N1 C7 1.370(4) . ?
 C8 C13 1.396(4) . ?
 C8 C9 1.399(4) . ?
 C7 C2 1.472(4) . ?
 C1 C6 1.398(4) . ?
 C1 C2 1.392(4) . ?
 C6 H6 0.9500 . ?
 C6 C5 1.389(4) . ?
 C2 C3 1.392(4) . ?
 C13 H13 0.9500 . ?
 C13 C12 1.376(4) . ?
 C3 H3A 0.9500 . ?
 C3 C4 1.388(4) . ?
 C4 H4 0.9500 . ?
 C4 C5 1.399(4) . ?
 C9 H9 0.9500 . ?
 C9 C10 1.381(4) . ?
 C11 C12 1.393(4) . ?
 C11 C10 1.396(4) . ?
 C11 C14 1.480(4) . ?
 C12 H12 0.9500 . ?
 C5 H5 0.9500 . ?
 C10 H10 0.9500 . ?

loop_
  _geom_angle_atom_site_label_1
  _geom_angle_atom_site_label_2
  _geom_angle_atom_site_label_3
  _geom_angle
  _geom_angle_site_symmetry_1
  _geom_angle_site_symmetry_3
  _geom_angle_publ_flag
 C1 Se1 N1 85.88(11) . . ?
 C14 O3 H3 116(3) . . ?
 C8 N1 Se1 118.93(18) . . ?
 C7 N1 Se1 115.0(2) . . ?
 C7 N1 C8 126.0(2) . . ?
 C13 C8 N1 121.7(3) . . ?
 C13 C8 C9 118.9(3) . . ?
 C9 C8 N1 119.3(3) . . ?
 O1 C7 N1 124.4(3) . . ?
 O1 C7 C2 124.6(3) . . ?
 N1 C7 C2 111.0(2) . . ?
 C6 C1 Se1 127.5(2) . . ?
 C2 C1 Se1 111.8(2) . . ?
 C2 C1 C6 120.8(3) . . ?
 C1 C6 H6 120.9 . . ?
 C5 C6 C1 118.1(3) . . ?
 C5 C6 H6 120.9 . . ?
 C1 C2 C7 116.4(3) . . ?
 C1 C2 C3 120.7(3) . . ?
 C3 C2 C7 122.9(3) . . ?
 C8 C13 H13 120.0 . . ?
 C12 C13 C8 120.0(3) . . ?
 C12 C13 H13 120.0 . . ?
 C2 C3 H3A 120.6 . . ?
 C4 C3 C2 118.9(3) . . ?
 C4 C3 H3A 120.6 . . ?
 C3 C4 H4 119.9 . . ?
 C3 C4 C5 120.3(3) . . ?
 C5 C4 H4 119.9 . . ?
 C8 C9 H9 119.5 . . ?
 C10 C9 C8 121.1(3) . . ?
 C10 C9 H9 119.5 . . ?
 C12 C11 C10 119.3(3) . . ?
 C12 C11 C14 120.1(3) . . ?
 C10 C11 C14 120.6(3) . . ?
 C13 C12 C11 121.1(3) . . ?
 C13 C12 H12 119.5 . . ?
 C11 C12 H12 119.5 . . ?
 C6 C5 C4 121.2(3) . . ?
 C6 C5 H5 119.4 . . ?
 C4 C5 H5 119.4 . . ?
 C9 C10 C11 119.6(3) . . ?
 C9 C10 H10 120.2 . . ?
 C11 C10 H10 120.2 . . ?
 O3 C14 C11 117.0(3) . . ?
 O2 C14 O3 124.2(3) . . ?
 O2 C14 C11 118.8(3) . . ?

loop_
  _geom_torsion_atom_site_label_1
  _geom_torsion_atom_site_label_2
  _geom_torsion_atom_site_label_3
  _geom_torsion_atom_site_label_4
  _geom_torsion
  _geom_torsion_site_symmetry_1
  _geom_torsion_site_symmetry_2
  _geom_torsion_site_symmetry_3
  _geom_torsion_site_symmetry_4
  _geom_torsion_publ_flag
 Se1 N1 C8 C13 -164.1(2) . . . . ?
 Se1 N1 C8 C9 14.7(4) . . . . ?
 Se1 N1 C7 O1 -178.8(2) . . . . ?
 Se1 N1 C7 C2 -0.1(3) . . . . ?
 Se1 C1 C6 C5 -177.4(2) . . . . ?
 Se1 C1 C2 C7 -0.3(3) . . . . ?
 Se1 C1 C2 C3 178.2(2) . . . . ?
 O1 C7 C2 C1 178.9(3) . . . . ?
 O1 C7 C2 C3 0.4(5) . . . . ?
 N1 Se1 C1 C6 178.1(3) . . . . ?
 N1 Se1 C1 C2 0.2(2) . . . . ?
 N1 C8 C13 C12 179.2(3) . . . . ?
 N1 C8 C9 C10 -179.3(3) . . . . ?
 N1 C7 C2 C1 0.3(4) . . . . ?
 N1 C7 C2 C3 -178.3(3) . . . . ?
 C8 N1 C7 O1 -1.6(5) . . . . ?
 C8 N1 C7 C2 177.0(3) . . . . ?
 C8 C13 C12 C11 0.0(5) . . . . ?
 C8 C9 C10 C11 0.2(5) . . . . ?
 C7 N1 C8 C13 18.9(4) . . . . ?
 C7 N1 C8 C9 -162.3(3) . . . . ?
 C7 C2 C3 C4 177.5(3) . . . . ?
 C1 C6 C5 C4 -0.2(4) . . . . ?
 C1 C2 C3 C4 -0.9(4) . . . . ?
 C6 C1 C2 C7 -178.3(3) . . . . ?
 C6 C1 C2 C3 0.2(4) . . . . ?
 C2 C1 C6 C5 0.3(4) . . . . ?
 C2 C3 C4 C5 1.1(5) . . . . ?
 C13 C8 C9 C10 -0.5(5) . . . . ?
 C3 C4 C5 C6 -0.6(5) . . . . ?
 C9 C8 C13 C12 0.3(5) . . . . ?
 C12 C11 C10 C9 0.2(5) . . . . ?
 C12 C11 C14 O3 -2.8(5) . . . . ?
 C12 C11 C14 O2 176.7(3) . . . . ?
 C10 C11 C12 C13 -0.3(5) . . . . ?
 C10 C11 C14 O3 177.5(3) . . . . ?
 C10 C11 C14 O2 -3.0(5) . . . . ?
 C14 C11 C12 C13 -180.0(3) . . . . ?
 C14 C11 C10 C9 179.9(3) . . . . ?

_shelx_res_file
;
TITL tf-rx6_a.res in P2(1)/c
    tf-rx6.res
    created by SHELXL-2018/3 at 12:12:26 on 11-Feb-2020
REM Old TITL tf-rx6 in P2(1)/c
REM SHELXT solution in P2(1)/c: R1 0.059, Rweak 0.004, Alpha 0.032
REM <I/s> 0.341 for 292 systematic absences, Orientation as input
REM Formula found by SHELXT: C14 N O3 Se
CELL 1.54184 20.7252 4.9587 11.8879 90 98.111 90
ZERR 4 0.0004 0.0001 0.0002 0 0.002 0
LATT 1
SYMM -X,0.5+Y,0.5-Z
SFAC C H N O Se
UNIT 56 36 4 12 4

L.S. 10
PLAN  10
SIZE 0.022 0.034 0.16
TEMP -173
CONF
BOND
list 4
fmap 2 53
MORE -1
BOND $H
ACTA
OMIT 1 1 0
REM <olex2.extras>
REM <HklSrc "%.\\tf-rx6.hkl">
REM </olex2.extras>

WGHT    0.043900    1.957500
FVAR       0.45003
SE1   5    0.215747    0.699241    0.238335    11.00000    0.01944    0.01797 =
         0.01513    0.00036    0.00578    0.00155
O1    4    0.189714    0.534314    0.556115    11.00000    0.02669    0.02252 =
         0.01402    0.00048    0.00699    0.00052
O3    4    0.434835   -0.380754    0.561584    11.00000    0.03103    0.02559 =
         0.03207    0.00642    0.00455    0.00994
H3    2    0.465163   -0.518391    0.570132    11.00000   -1.50000
O2    4    0.476158   -0.249033    0.405657    11.00000    0.02676    0.03101 =
         0.03872    0.00350    0.01274    0.00787
N1    3    0.228735    0.530502    0.383761    11.00000    0.02040    0.01700 =
         0.01533    0.00020    0.00486   -0.00013
C8    1    0.279892    0.340667    0.408207    11.00000    0.01890    0.01603 =
         0.01881   -0.00215    0.00148   -0.00033
C7    1    0.187949    0.616914    0.457532    11.00000    0.01798    0.01738 =
         0.02317   -0.00343    0.00492   -0.00244
C1    1    0.148925    0.895318    0.293363    11.00000    0.01758    0.02003 =
         0.01704   -0.00369    0.00335   -0.00160
C6    1    0.109546    1.096009    0.236743    11.00000    0.02097    0.02087 =
         0.01944    0.00189    0.00316   -0.00153
AFIX  43
H6    2    0.113388    1.143607    0.160565    11.00000   -1.20000
AFIX   0
C2    1    0.142900    0.825176    0.404773    11.00000    0.01839    0.01711 =
         0.02056   -0.00036    0.00353   -0.00184
C13   1    0.282620    0.162972    0.499885    11.00000    0.02359    0.02122 =
         0.01931    0.00052    0.00747    0.00035
AFIX  43
H13   2    0.249939    0.168970    0.548398    11.00000   -1.20000
AFIX   0
C3    1    0.097374    0.952691    0.462222    11.00000    0.01988    0.02360 =
         0.01722   -0.00290    0.00434   -0.00155
AFIX  43
H3A   2    0.092919    0.902541    0.537868    11.00000   -1.20000
AFIX   0
C4    1    0.058605    1.154359    0.407075    11.00000    0.01804    0.02400 =
         0.02410   -0.00548    0.00556    0.00107
AFIX  43
H4    2    0.027857    1.245508    0.445601    11.00000   -1.20000
AFIX   0
C9    1    0.328415    0.326882    0.337614    11.00000    0.02648    0.02281 =
         0.02118    0.00390    0.00804    0.00280
AFIX  43
H9    2    0.326749    0.446156    0.274733    11.00000   -1.20000
AFIX   0
C11   1    0.381183   -0.033455    0.450022    11.00000    0.02399    0.01617 =
         0.02591   -0.00077    0.00308    0.00344
C12   1    0.332670   -0.020832    0.519924    11.00000    0.02819    0.02110 =
         0.01914    0.00114    0.00447    0.00146
AFIX  43
H12   2    0.334166   -0.141088    0.582447    11.00000   -1.20000
AFIX   0
C5    1    0.064633    1.223891    0.295016    11.00000    0.01989    0.02056 =
         0.02811   -0.00101    0.00304    0.00116
AFIX  43
H5    2    0.037510    1.361131    0.258051    11.00000   -1.20000
AFIX   0
C10   1    0.378677    0.142671    0.357902    11.00000    0.02321    0.02428 =
         0.02518    0.00162    0.00834    0.00232
AFIX  43
H10   2    0.411373    0.135836    0.309433    11.00000   -1.20000
AFIX   0
C14   1    0.434491   -0.233039    0.473328    11.00000    0.02321    0.02379 =
         0.02556    0.00174    0.00389    0.00074
HKLF 4




REM  tf-rx6_a.res in P2(1)/c
REM wR2 = 0.0953, GooF = S = 1.124, Restrained GooF = 1.124 for all data
REM R1 = 0.0346 for 2278 Fo > 4sig(Fo) and 0.0380 for all 2497 data
REM 175 parameters refined using 0 restraints

END

WGHT      0.0438      1.9641

REM Highest difference peak  0.830,  deepest hole -0.812,  1-sigma level  0.099
Q1    1   0.2160  0.9472  0.2387  11.00000  0.05    0.83
Q2    1   0.2173  0.4450  0.2343  11.00000  0.05    0.73
Q3    1   0.1577  0.8849  0.3588  11.00000  0.05    0.43
Q4    1   0.2622  0.8265  0.2733  11.00000  0.05    0.43
Q5    1   0.1756  0.5534  0.2034  11.00000  0.05    0.41
Q6    1   0.2405  0.7049  0.4187  11.00000  0.05    0.40
Q7    1   0.4015 -0.1458  0.4546  11.00000  0.05    0.38
Q8    1   0.0992  0.7092  0.4607  11.00000  0.05    0.35
Q9    1   0.2374  0.1956  0.3839  11.00000  0.05    0.35
Q10   1   0.2578  0.4258  0.3951  11.00000  0.05    0.34
;
_shelx_res_checksum                13214
_shelx_hkl_file
;
  -2   0   0 3964.91  168.68
   3   0   0 2512.16  106.92
   4   0   0  104.42    5.11
   5   0   0 1173.74   50.51
   6   0   0  356.61   16.07
   7   0   0 2531.24  108.35
   8   0   0  708.97   31.29
  -9   0   0 1463.02   63.80
   9   0   0 1447.98   63.05
 -10   0   0  350.27   17.11
  10   0   0  340.49   16.18
  11   0   0  402.24   18.78
 -11   0   0  386.43   19.85
 -11   0   0  426.77   21.14
  12   0   0 1237.99   55.42
 -12   0   0 1312.09   57.98
 -12   0   0 1268.85   56.60
 -13   0   0   55.47    5.49
 -13   0   0   63.79    6.60
 -14   0   0 1262.80   57.18
 -14   0   0 1218.08   54.88
 -14   0   0 1177.25   53.57
 -15   0   0   34.06    3.82
 -15   0   0   39.53    6.16
 -15   0   0   35.11    5.09
 -16   0   0  462.77   23.76
 -16   0   0  457.81   22.25
 -16   0   0  442.07   25.71
 -17   0   0  365.57   19.29
 -17   0   0  340.62   17.77
 -17   0   0  338.60   21.28
 -18   0   0  816.99   44.10
 -18   0   0  888.78   40.38
 -18   0   0  894.16   41.87
 -19   0   0  366.67   18.95
 -19   0   0  368.34   22.76
 -19   0   0  384.70   20.49
 -20   0   0  256.70   14.18
 -20   0   0  271.05   15.53
 -21   0   0   19.58    4.30
 -21   0   0   18.50    3.43
 -22   0   0   21.02    3.95
 -23   0   0   56.74    4.92
 -24   0   0   34.27    3.42
 -25   0   0  233.22   11.35
  -1  -1   0 1446.65   63.32
  -1   1   0 1454.30   63.33
   2  -1   0  628.60   27.73
  -3  -1   0  688.39   30.46
  -4  -1   0 9999.00  425.10
  -5  -1   0  263.16   12.62
  -7  -1   0  153.12    9.05
  -7  -1   0  157.93    8.29
  -8  -1   0 2400.63  105.02
  -8  -1   0 2498.89  106.05
  -9   1   0   36.46    3.68
  -9  -1   0   28.67    3.53
  -9  -1   0   26.68    4.05
  -9  -1   0   31.81    3.08
 -10  -1   0 1595.62   68.55
 -10  -1   0 1493.34   66.86
 -10   1   0 1551.41   67.61
 -10  -1   0 1532.59   67.51
 -11  -1   0  424.42   20.23
 -11  -1   0  388.92   19.17
 -11  -1   0  414.94   21.11
 -11   1   0  417.92   20.23
  11   1   0  413.38   19.82
  12   1   0  286.75   13.41
 -12   1   0  222.32   13.27
 -12  -1   0  260.62   14.62
 -12  -1   0  231.02   12.22
 -12  -1   0  256.41   13.74
 -13  -1   0  513.30   25.36
 -13   1   0  533.85   25.40
 -13  -1   0  548.23   26.35
 -13  -1   0  547.94   27.43
 -13   1   0  539.50   26.29
  13   1   0  555.42   25.75
 -13  -1   0  556.79   28.23
 -13   1   0  554.50   28.19
 -14   1   0   99.39    7.36
 -14  -1   0   82.68    7.85
 -14  -1   0   87.11    6.32
 -14   1   0   85.56    8.58
 -14  -1   0  104.90    7.45
  14   1   0   99.22    6.62
 -14   1   0   82.78    6.22
 -14  -1   0   91.63    8.69
 -15  -1   0 1129.02   53.60
  15   1   0 1145.68   50.27
 -15  -1   0 1065.90   49.94
 -15  -1   0 1112.14   52.47
 -15   1   0 1115.06   49.93
 -15  -1   0 1123.47   51.11
 -15   1   0 1093.80   51.00
 -15   1   0 1111.71   53.33
  16   1   0   40.31    4.21
 -16   1   0   46.40    5.42
 -16   1   0   38.28    4.19
 -16  -1   0   41.01    6.29
 -16  -1   0   42.36    4.53
 -16  -1   0   38.64    5.09
 -16   1   0   31.69    6.06
 -17   1   0  113.82   10.32
 -17  -1   0  117.98    9.00
 -17   1   0  115.75    8.79
 -17  -1   0  107.57   10.20
  17   1   0  110.12    7.64
 -17   1   0  114.23    7.70
 -18   1   0  488.24   29.47
 -18  -1   0  577.28   27.63
 -18  -1   0  550.21   30.01
 -18   1   0  544.14   26.17
 -18   1   0  543.83   27.33
 -19   1   0    5.06    4.00
 -19  -1   0   16.72    4.63
 -19   1   0   11.48    3.84
 -19   1   0    9.67    2.94
 -19  -1   0   14.74    4.13
 -20  -1   0   97.63    7.61
 -20   1   0   79.45    6.24
 -20   1   0   80.38    7.17
 -21  -1   0   -1.49    3.17
 -21   1   0    4.65    2.53
 -21   1   0    2.21    3.15
 -22   1   0  456.80   21.98
 -22  -1   0  460.89   22.47
 -22   1   0  477.74   22.55
 -23   1   0    1.43    1.87
 -23  -1   0   -1.71    2.12
 -23   1   0    0.64    1.85
 -24  -1   0  353.28   15.27
 -24   1   0  362.03   15.33
 -25  -1   0    6.78    1.42
 -25   1   0    9.19    1.51
   0  -2   0 1210.19   53.71
   1  -2   0   10.90    2.93
  -1  -2   0   10.10    2.86
   2  -2   0   41.29    4.32
   3   2   0  195.55    8.58
  -4   2   0 1136.03   48.28
  -4  -2   0  999.86   48.09
  -4   2   0 1091.10   47.97
  -4  -2   0 1277.76   48.91
  -4  -2   0 1307.62   50.40
  -5  -2   0   97.42    5.67
  -5  -2   0   90.25    6.47
  -5   2   0   88.80    5.22
  -5  -2   0   81.56    5.06
  -6  -2   0   91.14    5.97
  -6  -2   0  124.88    6.46
  -6  -2   0  121.06    7.27
  -6   2   0   84.20    5.92
  -7  -2   0  268.54   13.97
  -7   2   0  249.10   13.88
  -7  -2   0  293.38   14.75
  -7  -2   0  299.31   13.84
  -8   2   0   85.88    6.16
  -8  -2   0   73.12    5.92
  -8  -2   0   78.57    6.09
  -8  -2   0   92.13    6.46
  -9   2   0  177.64   10.94
  -9  -2   0  179.85    9.88
  -9  -2   0  195.89   11.06
  -9  -2   0  193.67   10.93
  -9  -2   0  182.83   10.76
 -10   2   0    8.21    2.82
 -10  -2   0    7.07    2.50
 -10  -2   0    6.45    2.88
 -10  -2   0    1.86    2.29
 -10  -2   0    0.64    2.28
 -11   2   0  418.58   20.14
 -11  -2   0  423.51   21.69
 -11   2   0  372.55   21.32
 -11  -2   0  414.94   21.16
 -11  -2   0  394.08   20.06
 -11  -2   0  434.89   20.83
 -11  -2   0  412.46   20.23
 -11   2   0  435.34   20.18
 -12  -2   0  536.93   25.75
 -12   2   0  542.24   27.13
 -12   2   0  516.37   25.32
 -12  -2   0  540.84   26.62
 -12  -2   0  549.89   25.47
 -12  -2   0  515.18   26.90
 -12  -2   0  517.08   25.42
 -12   2   0  539.98   25.45
 -13   2   0   93.99    6.89
 -13  -2   0   93.22    6.71
 -13  -2   0   93.93    8.37
 -13  -2   0   89.95    7.54
 -13  -2   0  102.57    7.20
 -13   2   0   92.61    6.79
 -13   2   0   89.54    8.05
  13   2   0  111.35    7.85
  14   2   0 1118.99   49.09
 -14  -2   0 1029.00   49.23
 -14   2   0 1060.86   48.08
 -14  -2   0  957.02   49.76
 -14   2   0 1024.02   50.13
 -14  -2   0 1076.31   47.75
 -14  -2   0 1072.40   48.23
 -14   2   0 1065.60   47.90
 -15   2   0   67.04    5.69
  15   2   0   65.81    6.13
 -15   2   0   61.65    7.01
 -15   2   0   63.81    5.79
 -15  -2   0   63.49    5.94
 -15  -2   0   68.40    5.42
 -15  -2   0   59.30    7.13
 -15  -2   0   66.16    6.64
 -16  -2   0  332.76   17.71
 -16  -2   0  327.36   16.94
 -16  -2   0  302.03   19.62
 -16   2   0  298.84   19.38
 -16   2   0  323.22   17.59
  16   2   0  386.88   18.67
 -16   2   0  362.53   17.49
 -17  -2   0   36.54    3.96
  17   2   0   39.18    4.60
 -17   2   0   40.77    4.43
 -17   2   0   35.17    4.75
 -17  -2   0   37.17    5.67
 -17   2   0   40.89    4.62
 -17  -2   0   34.26    4.70
 -18  -2   0  142.20    9.53
 -18   2   0  146.86    9.02
 -18   2   0  144.99    9.42
 -19  -2   0  288.23   15.72
 -19  -2   0  284.47   15.18
 -19   2   0  302.01   15.29
 -19   2   0  297.87   15.26
 -20  -2   0   88.65    6.10
 -20   2   0   92.39    6.18
 -20   2   0   77.49    5.92
 -21  -2   0  273.37   13.00
 -21   2   0  251.31   12.93
 -21   2   0  240.31   12.76
 -22  -2   0   14.54    2.23
 -22   2   0   23.36    2.63
 -23   2   0  164.79    8.32
 -24  -2   0    4.25    1.23
   0  -3   0    1.47    2.05
  -1  -3   0   47.60    5.42
  -1  -3   0   42.99    4.02
  -2  -3   0    3.40    3.21
  -2  -3   0    0.63    2.21
  -3  -3   0  181.46    9.88
  -4  -3   0  132.56    7.88
  -5  -3   0  188.64   10.60
  -5  -3   0  195.89   10.75
  -5  -3   0  174.96   11.99
  -6  -3   0   34.56    3.88
  -6  -3   0   27.20    3.74
  -6  -3   0   25.78    4.51
  -7  -3   0   16.83    3.20
  -7  -3   0   16.65    3.29
  -7  -3   0   20.69    4.21
  -8  -3   0  403.55   20.86
  -8   3   0  368.05   18.46
  -9  -3   0   15.49    3.95
  -9   3   0   12.73    2.69
 -10  -3   0  174.46   10.56
 -10  -3   0  169.17   11.36
 -10   3   0  155.53    9.56
 -11  -3   0  347.60   18.44
 -11   3   0  362.17   17.95
 -11  -3   0  339.95   19.35
 -12  -3   0   95.54    7.98
 -12  -3   0   99.09    7.70
 -12   3   0  104.87    7.35
 -13   3   0  130.72    8.88
 -13  -3   0  141.14    9.25
  13   3   0  134.76    9.79
  14   3   0   -1.90    3.13
 -14   3   0    0.34    2.91
 -14  -3   0   -2.86    2.93
  15   3   0  210.68   12.95
 -15   3   0  209.82   11.97
 -15  -3   0  200.07   12.00
 -16  -3   0    3.45    2.43
 -16   3   0    5.08    2.83
 -17   3   0  155.23    9.31
 -18   3   0   82.23    5.85
 -19   3   0   68.48    5.09
 -20   3   0  144.63    7.97
 -21  -3   0    0.67    1.68
 -21   3   0   -0.40    1.47
 -22  -3   0  147.97    6.63
 -22   3   0  105.82    5.94
   0  -4   0   24.42    3.91
   0  -4   0   18.62    3.02
  -1  -4   0   10.00    3.22
   1  -4   0    2.50    2.77
   1  -4   0    4.66    2.14
  -2  -4   0   17.80    3.62
   2  -4   0   14.06    3.49
  -3  -4   0   30.79    4.49
   3  -4   0   35.34    4.36
  -4  -4   0  154.68    9.81
   4  -4   0  134.59    9.02
  -5  -4   0   63.18    5.99
  -5  -4   0   61.73    5.83
  -6  -4   0    1.88    2.98
  -6  -4   0   -1.35    3.17
  -7  -4   0  335.97   18.09
  -8  -4   0   -0.40    3.18
  -8   4   0    3.74    2.99
  -9  -4   0  137.82    9.56
  -9   4   0  130.50    8.74
 -10  -4   0   20.22    3.10
 -10   4   0   19.21    3.60
 -10  -4   0   21.41    4.31
 -11   4   0   50.93    4.99
 -11  -4   0   44.98    4.33
 -12  -4   0    4.79    2.37
 -12   4   0    6.48    3.27
 -13  -4   0   51.68    4.51
 -13   4   0   39.50    4.84
 -14  -4   0    5.29    2.47
 -14   4   0    4.06    2.75
 -15  -4   0   -0.83    2.51
 -15   4   0    1.76    2.42
 -15  -4   0    0.66    1.95
 -16  -4   0   34.12    3.43
 -16   4   0   34.14    3.61
 -16  -4   0   37.64    3.78
 -17   4   0    3.19    1.84
 -17  -4   0    1.11    1.68
 -17  -4   0    1.00    1.72
 -18   4   0   -0.84    1.54
 -18  -4   0    4.42    1.54
 -18  -4   0    2.03    1.33
 -19   4   0    4.95    1.26
 -19  -4   0    3.71    1.20
   0  -5   0    0.97    2.90
   1  -5   0  140.83    9.17
  -1  -5   0  143.18    9.15
  -1  -5   0  143.40    8.41
   2  -5   0   43.23    4.87
  -2  -5   0   58.44    5.24
  -2  -5   0   52.76    4.57
   3  -5   0    3.71    2.73
  -3  -5   0    0.82    2.20
   4  -5   0    7.19    2.81
  -4  -5   0   16.57    3.15
  -5  -5   0   13.29    3.06
   5  -5   0   15.19    3.17
  -6  -5   0    0.60    2.62
   6  -5   0    0.53    2.32
  -7  -5   0    0.60    2.46
   7  -5   0    0.26    2.37
   8  -5   0    4.92    2.47
  -8  -5   0    9.17    2.93
  -9   5   0    0.76    2.38
  -9  -5   0    0.57    2.44
 -10  -5   0   23.23    3.48
 -10   5   0   26.99    3.51
 -11   5   0   26.12    3.36
 -11  -5   0   27.95    3.44
 -12   5   0    0.60    2.07
 -12  -5   0    1.28    1.94
 -13   5   0    4.21    1.85
 -14   5   0    0.25    1.39
 -15  -5   0   -0.42    1.10
 -15   5   0   -0.88    1.06
   0   6   0   83.71    5.32
   1  -6   0   -0.10    1.03
   1   6   0   -0.17    1.95
  -1   6   0   -0.33    1.71
   2   6   0  144.23    7.86
  -7   6   0   14.76    1.76
 -26   0   1    0.66    0.92
 -25   0   1   -0.15    1.57
 -24   0   1   -1.62    2.09
 -23   0   1    1.78    2.36
 -22   0   1    0.30    2.53
 -21   0   1   -3.25    3.39
 -20   0   1   -5.25    3.82
 -20   0   1   -0.57    2.55
 -20   0   1    0.43    3.38
 -19   0   1   -1.49    2.51
 -19   0   1    3.11    3.76
 -19   0   1   -2.26    4.25
 -18   0   1    2.21    3.88
 -18   0   1    3.98    3.58
 -18   0   1    1.18    2.65
 -17   0   1   -4.72    3.55
 -17   0   1   -1.41    4.03
 -17   0   1    0.28    2.31
 -16   0   1   -0.81    2.38
 -16   0   1   -1.32    3.58
 -16   0   1    3.25    3.35
 -15   0   1   -0.76    3.02
 -15   0   1   -0.75    2.07
 -15   0   1    6.77    3.94
 -14   0   1    2.78    3.15
 -14   0   1   -0.23    2.11
 -14   0   1    0.56    3.58
 -13   0   1    1.53    3.68
 -13   0   1    0.95    2.67
  13   0  -1    0.75    1.46
  12   0  -1   -0.84    1.44
 -12   0   1    0.86    2.67
 -12   0   1    1.38    3.33
 -11   0   1    1.23    3.39
 -11   0   1    1.28    2.61
  11   0  -1   -1.34    1.44
  10   0  -1    0.40    1.33
 -10   0   1    0.36    3.11
 -10   0   1    1.14    2.51
  -9   0   1    1.21    2.39
  -9   0   1   -0.56    3.28
   9   0  -1    0.23    1.34
  -8   0   1   -0.49    3.00
   8   0  -1   -0.10    1.26
  -7   0   1    0.84    2.83
   7   0  -1    0.93    1.24
  -6   0   1   -1.42    2.66
  -5   0   1    1.32    2.49
  -4   0   1    1.31    2.03
  -3   0   1    0.99    1.69
  -2   0   1    0.94    1.27
  -1   0   1    0.53    0.84
  -1   0   1    1.26    0.94
   0   0   1    1.02    0.70
   0   0   1   -0.19    0.81
   1   0   1    0.04    0.66
   2   0   1   -0.05    0.87
   3   0   1   -0.33    1.13
   4   0   1    0.98    1.59
   5   0   1   -2.60    1.81
   6   0   1    0.22    1.53
  -6   0  -1   -0.45    3.40
   7   0   1    0.89    1.52
  -7   0  -1    1.77    3.23
   8   0   1    1.00    1.62
   9   0   1   -0.64    1.63
  10   0   1    0.18    1.61
 -11   0  -1   -2.30    2.66
  11   0   1    1.38    1.72
 -12   0  -1   -0.97    2.81
 -13   0  -1   -1.07    3.12
 -13   0  -1    0.48    1.99
 -14   0  -1    1.05    2.17
 -14   0  -1   -1.16    3.15
 -15   0  -1    0.42    3.34
 -15   0  -1   -5.48    4.01
 -15   0  -1    0.29    2.27
 -16   0  -1    0.89    3.87
 -16   0  -1   -0.72    4.00
 -16   0  -1    0.61    2.51
 -17   0  -1   -0.65    2.66
 -17   0  -1   -2.79    4.04
 -17   0  -1    6.82    4.22
 -18   0  -1   -0.78    4.09
 -18   0  -1   -2.37    3.70
 -18   0  -1    2.97    2.90
 -19   0  -1   -0.77    3.86
 -19   0  -1   -2.34    3.75
 -19   0  -1    0.66    2.82
 -20   0  -1    0.44    3.65
 -20   0  -1   -1.89    2.88
 -21   0  -1    1.15    2.57
 -21   0  -1    2.42    3.34
 -22   0  -1    1.40    2.90
 -23   0  -1   -0.58    2.36
 -24   0  -1   -1.26    1.91
 -25   0  -1    1.58    1.26
 -25  -1   1    0.70    1.20
 -25   1   1    0.94    1.23
 -24  -1   1   79.36    5.31
 -24   1   1   93.98    5.52
 -23   1   1    3.51    2.13
 -23  -1   1    3.09    2.20
 -22   1   1  144.62    8.70
 -22   1   1  165.07    9.41
 -22  -1   1  165.65    9.48
 -21   1   1   28.03    4.13
 -21  -1   1   28.13    4.01
 -21   1   1   25.45    3.40
 -20   1   1   41.68    4.32
 -20   1   1   50.01    5.43
 -20  -1   1   42.37    5.47
 -19   1   1  123.78   11.60
 -19   1   1  155.96   10.45
 -19   1   1  158.70   11.22
 -19  -1   1  149.30   10.40
 -19  -1   1  153.12   11.13
 -19   1   1  150.78    9.16
 -19  -1   1  137.64   12.07
 -18   1   1   19.44    4.93
 -18   1   1   20.15    4.08
 -18  -1   1   28.69    4.78
 -18   1   1   22.11    3.49
 -18  -1   1   22.44    5.38
 -17   1   1  306.40   16.51
 -17  -1   1  286.80   16.40
 -17   1   1  298.43   18.77
 -17  -1   1  288.07   18.49
 -17   1   1  284.60   15.18
 -16  -1   1   22.15    4.25
 -16  -1   1   22.42    5.13
 -16   1   1   26.18    4.76
 -16   1   1   16.38    4.62
  16   1  -1   19.22    3.09
 -16   1   1   24.27    3.31
 -15   1   1  226.68   12.93
 -15   1   1  212.58   11.68
 -15  -1   1  197.39   11.62
 -15  -1   1  226.75   13.08
 -15   1   1  224.51   14.58
  15   1  -1  204.18   11.78
 -15  -1   1  248.82   15.16
 -14   1   1    0.69    3.13
 -14   1   1   -1.70    3.80
 -14  -1   1   -0.70    3.11
 -14   1   1   -0.24    1.95
 -14  -1   1    5.63    3.64
  14   1  -1   -1.39    1.90
 -14  -1   1    0.25    2.05
 -13  -1   1   29.80    5.09
 -13   1   1   31.26    4.13
  13   1  -1   29.46    3.33
 -13   1   1   25.45    4.99
 -13  -1   1   25.49    3.90
 -13  -1   1   26.73    4.42
 -12  -1   1   70.49    5.80
  12   1  -1   73.58    5.33
 -12  -1   1   68.86    6.98
 -12   1   1   66.76    5.68
 -12  -1   1   76.51    6.50
 -12   1   1   75.80    7.19
 -11  -1   1    0.66    2.69
 -11   1   1    1.27    3.02
 -11  -1   1    1.65    2.95
 -11  -1   1    0.41    1.14
 -11  -1   1    1.55    2.42
 -11   1   1    2.36    2.60
 -10  -1   1  169.49    9.40
 -10  -1   1  159.10    8.43
 -10   1   1  177.40    9.59
 -10  -1   1  177.82   10.76
 -10  -1   1  155.08    9.83
 -10   1   1  175.39   10.98
  -9  -1   1  192.32   10.62
  -9  -1   1  211.84   11.42
  -9  -1   1  182.67   10.00
  -9  -1   1  186.99    9.39
  -9   1   1  204.10   11.40
  -9   1   1  170.32    9.99
  -8  -1   1   -0.44    2.34
  -8   1   1    3.47    3.04
  -8  -1   1    0.28    1.50
  -8  -1   1    0.28    2.65
  -7  -1   1    4.52    1.72
  -7  -1   1    3.18    2.43
  -7  -1   1    6.15    2.76
  -7   1   1    3.47    2.57
  -6  -1   1  280.73   13.16
  -6  -1   1  280.32   13.64
  -6   1   1  278.48   13.75
  -6  -1   1  253.86   12.78
  -5  -1   1   57.46    3.87
  -5   1   1   50.79    4.13
  -5  -1   1   54.49    4.22
  -5  -1   1   55.59    3.77
  -4  -1   1 1008.78   42.22
  -4  -1   1  884.66   42.16
  -4  -1   1  987.04   41.90
   4  -1  -1  978.27   41.91
  -4   1   1  961.31   42.40
   3  -1  -1  179.67    8.24
  -3  -1   1  159.02    8.34
  -3   1   1  164.73    8.19
  -3  -1   1  166.10    7.82
  -3  -1   1  168.83    8.21
  -2   1   1   30.26    2.25
  -2  -1   1   28.12    2.23
  -2  -1   1   34.91    2.06
   2  -1  -1   28.04    2.71
  -2   1   1   30.82    1.98
  -1  -1   1   80.16    4.14
  -1   1   1   81.16    4.13
   0  -1   1   18.04    1.43
   0   1   1   22.06    1.53
   0  -1   1   22.18    1.70
   1  -1   1   21.95    1.64
   1   1   1   25.79    1.72
  -3   1  -1 5019.48  214.04
  -4   1  -1  571.08   25.90
  -5   1  -1 1599.56   69.81
  -6   1  -1  498.16   23.52
  -7   1  -1  117.54    7.88
  -8   1  -1 1529.82   68.02
  -9   1  -1    6.31    3.52
   9   1   1    6.17    2.44
  -9  -1  -1    1.41    3.11
 -10   1  -1  396.44   19.52
 -10  -1  -1  389.21   19.59
 -10   1  -1  417.24   21.04
  10   1   1  398.68   19.32
 -10  -1  -1  393.37   20.71
  11   1   1   97.62    6.35
 -11   1  -1   85.77    6.60
 -11  -1  -1   80.49    7.37
 -11  -1  -1   81.01    6.69
  12   1   1   56.90    4.87
 -12  -1  -1   48.78    5.26
 -12   1  -1   52.21    5.47
 -12  -1  -1   46.64    4.22
  13   1   1  249.19   13.30
 -13  -1  -1  262.11   14.10
 -13   1  -1  271.31   14.03
 -13  -1  -1  221.90   12.77
 -13  -1  -1  252.84   15.30
 -13   1  -1  249.64   13.01
 -13  -1  -1  220.63   12.52
 -14  -1  -1    0.39    3.33
 -14  -1  -1    0.86    2.52
 -14  -1  -1    0.56    3.35
 -14   1  -1    5.93    2.60
 -14   1  -1    5.70    3.30
  14   1   1    0.32    1.95
 -15  -1  -1  105.79    8.58
 -15   1  -1  120.01   10.15
 -15   1  -1  109.21    8.41
 -15   1  -1  109.62    7.43
 -15  -1  -1  101.80    9.85
  15   1   1   96.37    7.32
 -15  -1  -1  104.79    9.48
 -15  -1  -1  105.83    7.49
 -16   1  -1   74.75    6.30
 -16   1  -1   87.31    7.57
 -16  -1  -1   89.96    8.44
 -16  -1  -1   80.51    9.05
 -16   1  -1   73.03    8.34
 -16  -1  -1   81.30    6.54
  16   1   1   84.33    6.42
 -16  -1  -1   78.39    7.43
 -17   1  -1    9.33    3.09
 -17  -1  -1    7.40    4.30
 -17   1  -1   15.09    4.21
 -17   1  -1    6.58    4.45
 -17  -1  -1    4.99    3.61
 -18   1  -1   19.21    5.23
 -18   1  -1   18.97    3.70
 -18  -1  -1   17.16    5.01
 -18   1  -1   26.77    4.68
 -18  -1  -1   34.99    5.36
 -19   1  -1    2.18    2.59
 -19   1  -1   -3.61    3.80
 -19  -1  -1    7.27    4.04
 -19  -1  -1    2.64    3.44
 -19   1  -1    0.43    3.39
 -20   1  -1    5.85    2.68
 -20  -1  -1    4.50    3.24
 -20   1  -1    0.40    3.45
 -21  -1  -1   72.75    6.63
 -21   1  -1   77.97    5.92
 -21   1  -1   82.04    6.70
 -22   1  -1   33.63    4.21
 -22  -1  -1   28.46    4.01
 -22   1  -1   25.86    3.40
 -23   1  -1    3.20    2.01
 -23   1  -1   -0.18    1.81
 -23  -1  -1    1.40    1.92
 -24   1  -1    0.14    1.57
 -24  -1  -1    1.44    1.45
 -25  -1  -1   67.75    3.80
 -24  -2   1   14.89    1.80
 -23  -2   1   97.33    5.79
 -22   2   1    0.16    1.68
 -22  -2   1    3.71    1.63
 -21   2   1  182.07    9.67
 -21  -2   1  188.27    9.70
 -21   2   1  164.47    9.45
 -20   2   1   53.40    4.64
 -20   2   1   55.77    4.67
 -20  -2   1   55.96    4.74
 -19   2   1  228.74   12.53
 -19   2   1  237.27   12.56
 -19  -2   1  232.59   12.66
 -18   2   1  343.75   17.13
 -18  -2   1  333.53   17.10
 -18  -2   1  287.24   19.38
 -18   2   1  350.57   17.07
  17   2  -1   73.42    6.09
 -17  -2   1   74.47    6.16
 -17   2   1   60.01    5.29
 -17  -2   1   80.74    7.81
 -17   2   1   58.11    6.20
 -17   2   1   63.16    5.40
 -17   2   1   54.42    6.81
 -17   2   1   64.51    5.84
 -17  -2   1   54.18    5.16
 -16   2   1  188.21   13.48
 -16  -2   1  182.38   13.17
 -16  -2   1  194.45   11.63
  16   2  -1  210.47   12.11
 -16   2   1  191.98   12.34
 -16   2   1  182.30   11.53
 -16   2   1  201.07   11.18
 -16  -2   1  205.66   12.71
 -16  -2   1  189.95   10.76
  15   2  -1   73.52    6.47
 -15  -2   1   76.08    6.27
 -15  -2   1   81.19    5.80
 -15   2   1   72.12    7.57
 -15   2   1   80.56    6.92
 -15   2   1   73.90    6.18
 -15   2   1   76.41    5.95
 -15  -2   1   79.51    7.89
 -15  -2   1   74.85    7.00
 -14   2   1   84.56    5.83
 -14  -2   1   67.08    7.17
 -14   2   1   73.57    7.55
 -14   2   1   81.06    6.34
 -14   2   1   79.00    6.84
 -14   2   1   80.76    6.10
  14   2  -1   72.93    6.51
 -14  -2   1   78.20    5.89
 -14  -2   1   84.85    6.49
 -13   2   1   -0.58    2.44
 -13  -2   1    4.53    2.91
 -13   2   1   -0.51    3.10
 -13  -2   1    3.80    2.14
 -13  -2   1    0.61    2.43
 -13   2   1    0.30    2.48
 -13   2   1    2.41    1.96
 -12  -2   1  188.02   10.47
 -12   2   1  181.73   10.44
 -12   2   1  197.19   10.24
 -12   2   1  179.99   10.41
 -12   2   1  175.85   11.81
 -12  -2   1  182.12   10.37
 -12  -2   1  203.43   12.31
 -12  -2   1  187.31   10.59
 -12  -2   1  167.96   10.70
 -11   2   1  138.02    8.33
 -11  -2   1  137.90    8.41
 -11   2   1  141.65    9.76
 -11   2   1  154.83    8.50
 -11  -2   1  142.11    8.67
 -11  -2   1  141.77    8.75
 -11  -2   1  139.87    9.68
 -10  -2   1  135.09    8.02
 -10   2   1  139.77    9.22
 -10  -2   1  131.32    8.29
 -10  -2   1  157.26    9.49
 -10  -2   1  141.97    8.62
  -9  -2   1   91.72    5.88
  -9  -2   1  106.32    7.14
  -9   2   1   95.46    6.89
  -9  -2   1   86.16    6.10
  -9  -2   1  106.00    6.82
  -8   2   1   24.64    3.28
  -8  -2   1   24.34    3.19
  -8  -2   1   21.82    2.79
  -8  -2   1   18.29    3.26
  -7  -2   1  874.82   41.13
  -7   2   1  910.54   41.34
  -7  -2   1  916.21   40.77
  -7  -2   1  939.82   41.86
  -7   2   1  918.17   40.78
  -7  -2   1  855.70   40.68
  -6  -2   1   41.01    3.14
  -6   2   1   40.59    3.54
  -6  -2   1   40.08    3.26
  -6  -2   1   38.73    3.43
  -6   2   1   45.38    3.19
  -6  -2   1   51.55    4.12
  -6  -2   1   56.79    4.68
  -5  -2   1 1383.10   59.90
  -5  -2   1 1288.68   60.11
  -5   2   1 1431.63   59.98
  -5  -2   1 1549.70   61.81
  -5  -2   1 1519.08   60.62
  -5   2   1 1357.80   60.31
  -5  -2   1 1325.36   60.08
  -4  -2   1    2.15    2.11
  -4  -2   1    1.15    1.04
  -4  -2   1    2.27    2.50
  -4   2   1    1.23    1.18
  -4  -2   1   -0.07    0.83
   4  -2  -1    4.93    2.34
  -3  -2   1  125.30    6.42
   3  -2  -1  130.88    7.42
  -3  -2   1  137.41    7.72
   2  -2  -1  350.79   17.28
   1  -2  -1  264.60   13.54
  -1  -2   1  258.35   13.57
   0  -2  -1  544.30   25.57
  -1  -2  -1   46.83    4.43
  -2  -2  -1  142.23    8.68
   3   2   1  134.24    6.34
   4  -2   1  601.53   28.26
   4   2   1  703.25   28.48
  -5  -2  -1   41.85    3.61
  -5  -2  -1   46.29    4.74
  -6  -2  -1  878.47   40.35
  -7  -2  -1 2139.01   93.95
  -8  -2  -1    7.06    2.97
  -8  -2  -1    8.10    2.28
  -9  -2  -1  794.91   36.68
  -9  -2  -1  774.86   35.49
 -10  -2  -1  618.74   29.35
 -10  -2  -1  635.22   30.37
 -10  -2  -1  625.21   30.96
 -10   2  -1  645.03   29.32
 -11   2  -1   62.53    6.23
 -11  -2  -1   56.81    5.08
 -11  -2  -1   64.06    6.42
 -11   2  -1   50.95    4.87
  11   2   1   66.61    5.75
 -11  -2  -1   60.34    5.67
 -11  -2  -1   57.87    5.16
 -11  -2  -1   71.17    6.55
 -12   2  -1  736.23   34.24
 -12   2  -1  704.94   35.86
 -12  -2  -1  753.67   34.31
 -12  -2  -1  715.47   35.86
 -12  -2  -1  716.01   35.93
  12   2   1  767.80   35.16
 -12  -2  -1  753.59   34.43
 -12  -2  -1  717.75   34.78
  13   2   1  122.32    8.45
 -13  -2  -1  109.48    8.90
 -13  -2  -1  111.61    7.85
 -13   2  -1  110.01    7.61
 -13  -2  -1   99.37    7.52
 -13  -2  -1   98.25    8.85
 -13  -2  -1   97.88    7.25
 -13   2  -1  103.40    8.80
 -14   2  -1  149.24    9.39
 -14  -2  -1  166.34   10.11
 -14   2  -1  134.51    9.38
 -14  -2  -1  136.61   10.74
  14   2   1  155.70   10.28
 -14   2  -1  154.11   11.21
 -14  -2  -1  151.06    9.38
 -14  -2  -1  146.05   11.25
  15   2   1   72.28    6.40
 -15   2  -1   57.88    6.80
 -15  -2  -1   62.94    5.49
 -15   2  -1   67.60    5.67
 -15   2  -1   62.73    5.80
 -15  -2  -1   65.44    6.03
 -15  -2  -1   40.22    6.16
 -15  -2  -1   64.52    6.95
 -16   2  -1   14.12    4.35
 -16  -2  -1    9.55    2.74
 -16  -2  -1   16.80    3.69
  16   2   1   14.21    3.52
 -16  -2  -1   12.45    4.10
 -16   2  -1   12.41    3.22
 -16  -2  -1    8.31    3.86
 -16   2  -1   15.41    3.54
 -17  -2  -1   36.48    3.96
 -17  -2  -1   36.11    4.74
  17   2   1   30.26    4.22
 -17  -2  -1   23.06    5.20
 -17   2  -1   34.11    4.31
 -17   2  -1   36.89    4.59
 -18  -2  -1   52.16    4.44
 -18   2  -1   59.37    5.52
 -18   2  -1   57.82    5.20
 -18  -2  -1   60.06    5.61
 -19  -2  -1   74.42    6.31
 -19   2  -1   70.69    6.08
 -20   2  -1    6.54    2.18
 -20  -2  -1    9.15    2.88
 -20   2  -1   14.10    3.04
 -20  -2  -1   12.29    2.65
 -21   2  -1  231.87   11.67
 -21  -2  -1  213.73   11.37
 -22   2  -1   14.70    2.32
 -22  -2  -1   12.84    1.96
 -23   2  -1   42.54    3.18
 -24  -2  -1    8.47    1.35
 -22  -3   1  117.15    6.36
 -21  -3   1   52.14    4.05
 -20   3   1  162.55    9.06
 -20  -3   1  196.34    9.92
 -19   3   1   59.88    4.56
 -18   3   1  161.81    9.15
 -18  -3   1  156.53    8.81
 -17   3   1  137.67    8.27
 -17  -3   1  124.63    7.96
 -16   3   1   74.92    5.92
  15   3  -1  393.95   20.63
 -15   3   1  374.08   19.27
 -14   3   1   50.64    4.33
  14   3  -1   39.33    5.16
 -14   3   1   49.95    5.03
 -14  -3   1   48.10    5.06
 -13  -3   1   84.89    6.86
 -13   3   1   79.20    5.82
 -13   3   1   93.88    6.76
 -12   3   1  112.99    6.95
 -12  -3   1   99.69    7.60
 -12   3   1   97.74    7.18
 -11  -3   1  221.71   12.11
 -11   3   1  198.94   11.26
 -11   3   1  188.13   10.85
 -10  -3   1  259.34   14.23
 -10   3   1  251.81   13.43
  -9  -3   1  411.86   20.99
  -9   3   1  420.06   20.19
  -8  -3   1  647.01   30.38
  -7  -3   1    1.89    2.58
  -7  -3   1   -0.92    2.37
  -7  -3   1   -0.45    2.71
  -6  -3   1  427.91   22.23
  -6  -3   1  441.84   23.64
  -5  -3   1  284.99   14.06
  -5  -3   1  256.28   14.14
  -4  -3   1  123.43    7.63
  -3  -3   1 1735.45   75.88
  -2  -3   1    5.82    2.56
   2  -3  -1    3.20    2.93
  -1  -3   1 1328.71   56.82
   1  -3  -1 1255.20   56.43
   1  -3  -1 1271.87   58.58
   0  -3  -1   29.11    4.63
   0  -3  -1   28.79    3.15
  -1  -3  -1  212.44   12.98
  -1  -3  -1  209.90   10.93
  -2  -3  -1  114.27    6.98
  -2  -3  -1  123.72    8.93
  -3  -3  -1  452.11   20.74
  -3  -3  -1  408.28   22.55
  -4  -3  -1  666.70   30.70
  -5  -3  -1    8.49    2.73
  -5  -3  -1   11.70    3.80
  -5  -3  -1    6.17    2.61
  -6  -3  -1  683.53   29.98
  -6  -3  -1  598.07   30.17
  -6  -3  -1  648.25   32.00
  -7  -3  -1   37.97    4.32
  -7  -3  -1   45.77    5.63
  -8  -3  -1  706.55   34.52
  -8  -3  -1  686.17   32.83
  -9  -3  -1   48.62    6.00
 -10  -3  -1  386.89   21.28
 -11  -3  -1  696.78   33.38
  11   3   1  710.34   34.03
 -11  -3  -1  682.29   34.48
 -12  -3  -1    3.51    3.08
 -12  -3  -1    5.71    3.00
  12   3   1    1.88    2.95
  13   3   1  295.13   17.07
 -13  -3  -1  313.09   16.47
 -13  -3  -1  280.29   16.86
 -14  -3  -1   89.06    7.17
  14   3   1   84.54    7.50
 -15  -3  -1  280.32   14.83
 -15   3  -1  265.88   14.44
  15   3   1  245.20   15.26
 -16   3  -1   44.87    4.84
 -16  -3  -1   51.29    4.91
 -17  -3  -1  402.15   19.48
 -17   3  -1  380.01   19.32
 -18   3  -1   63.04    5.11
 -19   3  -1   42.33    3.93
 -20   3  -1   82.15    5.29
 -21   3  -1   13.32    1.91
 -21  -3  -1   11.78    2.10
 -22  -3  -1  126.38    6.84
 -22   3  -1  142.63    6.70
 -19  -4   1  174.78    8.60
 -18   4   1   69.70    4.45
 -18  -4   1   79.49    4.74
 -17  -4   1  135.83    7.29
 -17  -4   1  127.86    7.17
 -17   4   1  114.05    6.94
 -16  -4   1  218.17   11.05
 -16   4   1  189.00   10.84
 -16  -4   1  224.50   11.34
 -15   4   1    0.98    2.24
 -15  -4   1    1.37    2.35
 -15  -4   1   -0.46    2.19
 -14  -4   1  525.58   25.32
 -14   4   1  512.35   25.04
 -14  -4   1  531.92   24.81
 -13  -4   1  131.34    7.89
 -13  -4   1  122.09    8.41
 -13   4   1  112.94    8.04
 -12   4   1  350.54   18.06
 -12  -4   1  352.96   17.66
 -11  -4   1  139.93    8.74
 -11   4   1  150.94    9.26
 -10   4   1   23.28    3.79
 -10  -4   1   23.29    3.17
  -9  -4   1  245.23   13.22
  -9   4   1  269.10   14.04
  -8   4   1   44.00    4.74
  -7  -4   1 1191.79   54.21
  -6  -4   1   91.18    7.29
   5  -4  -1  704.92   34.33
  -5  -4   1  801.77   35.54
  -4  -4   1  766.76   34.59
   4  -4  -1  692.94   33.46
  -3  -4   1   53.43    5.21
   3  -4  -1   52.04    5.02
  -3  -4   1   63.65    5.79
  -2  -4   1  473.96   24.53
  -2  -4   1  536.74   25.11
   2  -4  -1  520.83   24.55
  -1  -4   1    7.54    2.79
   1  -4  -1   10.35    2.91
  -1  -4   1    7.65    3.42
   0  -4   1  678.71   31.07
   0  -4  -1  654.00   30.50
   0  -4   1  625.23   30.34
   1  -4   1  146.91    9.26
  -1  -4  -1  144.77    8.98
   1  -4   1  131.27    8.36
  -2  -4  -1  254.68   13.76
   2  -4   1  264.03   14.00
  -2  -4  -1  227.42   13.29
   3  -4   1  602.29   28.91
  -3  -4  -1  543.84   28.58
  -4  -4  -1   10.05    3.27
  -4  -4  -1   14.29    3.55
  -5  -4  -1  647.37   31.10
  -6  -4  -1   40.81    4.96
  -6  -4  -1   45.92    6.46
  -7  -4  -1  500.84   24.78
  -7  -4  -1  475.96   26.70
  -7   4  -1  491.32   24.01
  -8  -4  -1   54.63    5.80
  -8   4  -1   50.19    5.06
  -9  -4  -1  189.33   11.89
 -10  -4  -1  313.19   17.41
  10   4   1  330.58   18.28
 -11  -4  -1  198.78   12.18
 -13  -4  -1   34.35    3.78
 -13  -4  -1   41.96    4.78
 -14  -4  -1  282.12   14.30
 -15  -4  -1   33.19    3.47
 -15   4  -1   33.24    3.94
 -16   4  -1  149.89    8.55
 -16  -4  -1  148.30    8.14
 -17   4  -1   18.41    2.59
 -17  -4  -1   21.12    2.38
 -17  -4  -1   19.73    2.55
 -18  -4  -1   76.07    4.68
 -18  -4  -1   88.46    4.85
 -18   4  -1   88.70    5.10
 -19   4  -1  114.11    5.91
 -15  -5   1  255.89   11.95
 -14   5   1   40.87    3.11
 -14  -5   1   54.06    3.62
 -13   5   1  248.19   12.14
 -12   5   1   63.42    4.86
 -12  -5   1   77.52    5.24
 -11  -5   1  186.44    9.91
 -11   5   1  163.20    9.47
 -10   5   1  369.18   18.51
 -10  -5   1  395.35   18.91
  -9   5   1    9.28    2.76
  -9  -5   1   11.80    2.84
  -8   5   1  581.09   26.81
  -8  -5   1  555.96   27.04
  -7  -5   1    6.51    2.63
  -7   5   1    8.18    2.86
  -6   5   1  218.99   11.92
  -6  -5   1  210.95   12.00
  -5   5   1   75.97    5.88
  -5  -5   1   80.72    6.17
  -4  -5   1  308.23   16.64
  -4  -5   1  351.64   17.40
  -3  -5   1  306.62   15.99
  -3  -5   1  324.07   16.81
  -2  -5   1   98.78    7.44
  -2  -5   1   87.15    6.21
  -1  -5   1  524.86   23.84
  -1  -5   1  434.87   21.98
   0  -5   1   55.96    4.46
   0  -5   1   70.05    6.09
   1  -5   1  697.16   31.56
  -1  -5  -1  635.67   30.37
  -1  -5  -1  669.01   30.87
  -2  -5  -1   56.37    4.68
   2  -5   1   52.17    5.26
  -3  -5  -1  224.45   12.21
   3  -5   1  225.28   12.63
   4  -5   1  194.83   11.90
  -4  -5  -1  211.99   11.83
  -4   5  -1  233.48   12.19
  -5  -5  -1   33.57    4.02
   5  -5   1   23.45    3.81
  -5   5  -1   31.25    4.01
  -6  -5  -1  264.91   14.29
   6  -5   1  252.03   14.17
  -6   5  -1  288.41   14.46
  -7   5  -1   14.44    3.34
  -7  -5  -1   15.13    3.19
   7  -5   1   13.54    3.04
  -8   5  -1  304.79   14.67
  -8  -5  -1  285.11   14.73
   9  -5   1   37.56    4.28
  -9  -5  -1   41.35    4.23
 -10  -5  -1  387.53   18.14
  10  -5   1  340.89   17.78
 -11  -5  -1  172.78    9.44
  11  -5   1  158.16    9.24
 -12  -5  -1   61.97    4.62
 -13  -5  -1  127.96    7.19
 -14   5  -1    3.33    1.42
 -15  -5  -1  187.65    8.82
 -15   5  -1  179.78    8.69
  -6   6   1   20.17    2.03
  -5   6   1  135.57    7.04
  -4   6   1  130.88    7.24
   4   6  -1  147.35    7.56
   3   6  -1  207.85   10.78
  -3   6   1  221.78   10.62
   2   6  -1   99.99    5.90
  -2   6   1   92.59    5.60
  -1   6   1    0.30    1.70
   1   6  -1    1.50    1.77
   0   6  -1  230.27   10.94
   0  -6   1  206.24   10.23
  -1   6  -1   55.22    3.97
   1  -6   1   47.57    3.17
  -2   6  -1  289.74   13.95
  -3   6  -1   12.94    2.19
  -4   6  -1  116.47    6.50
  -5   6  -1  109.97    6.09
  -6   6  -1   18.49    2.09
  -7   6  -1  119.35    6.16
 -26   0   2   76.83    4.34
 -25   0   2  271.02   13.12
 -24   0   2   99.02    6.33
 -23   0   2  333.99   16.78
 -22   0   2  125.40    8.21
 -21   0   2 1464.51   65.63
 -20   0   2   98.81    7.65
 -20   0   2   92.56    9.67
 -20   0   2  107.57    8.23
 -19   0   2  954.90   45.17
 -19   0   2 1070.46   47.13
 -19   0   2 1006.38   49.84
 -19   0   2 1016.18   48.26
 -18   0   2  310.09   17.09
 -18   0   2  342.01   20.07
 -18   0   2  287.14   15.48
 -18   0   2  303.58   18.00
 -17   0   2   65.01    5.37
 -17   0   2   80.68    8.50
 -17   0   2   70.43    6.68
 -16   0   2  927.99   41.66
 -16   0   2  850.64   39.99
 -16   0   2  913.02   44.26
 -15   0   2   54.75    5.76
 -15   0   2   47.25    4.25
 -15   0   2   54.43    6.84
 -14   0   2  984.97   46.45
 -14   0   2  913.59   44.28
 -14   0   2  994.01   43.70
 -13   0   2  568.10   27.42
 -13   0   2  581.20   29.39
 -12   0   2 2744.42  120.88
 -12   0   2 2849.35  122.79
 -11   0   2 2017.19   89.26
 -11   0   2 2118.78   91.01
  11   0  -2 2038.71   88.01
 -10   0   2   40.62    4.08
  10   0  -2   40.86    2.86
 -10   0   2   43.97    5.07
  -9   0   2 3976.24  163.80
  -9   0   2 3790.77  162.37
   9   0  -2 3726.45  161.31
   8   0  -2  375.56   16.95
  -8   0   2  397.91   19.12
  -7   0   2 2813.58  121.79
  -6   0   2  126.17    7.69
  -5   0   2 1031.70   45.56
  -4   0   2 1663.48   72.05
  -3   0   2   15.04    2.37
  -2   0   2 1524.57   68.04
  -2   0   2 1622.13   67.82
  -1   0   2 6460.65  275.26
  -1   0   2 6496.00  275.53
   0   0   2   10.99    1.90
   0   0   2   11.50    1.73
   1   0   2   11.67    1.79
   2   0   2 1269.14   54.71
   2   0   2 1265.28   54.48
   3   0   2 1863.24   79.89
   4   0   2    2.93    2.03
   5   0   2  752.99   33.17
   6   0   2   53.41    3.88
   7   0   2 2166.29   93.54
  -7   0  -2 2176.88   95.22
  -8   0  -2   48.19    5.45
   8   0   2   47.31    3.86
  -9   0  -2  254.05   13.97
   9   0   2  226.64   11.84
  10   0   2  907.36   40.56
 -10   0  -2  907.48   42.71
 -11   0  -2 1933.83   86.80
 -12   0  -2   16.48    4.60
 -13   0  -2  497.25   24.40
 -13   0  -2  467.79   22.87
 -14   0  -2  707.48   34.37
 -14   0  -2  813.66   36.24
 -15   0  -2   11.73    4.24
 -16   0  -2  884.31   42.42
 -17   0  -2   57.74    7.15
 -17   0  -2   60.44    8.03
 -18   0  -2  325.27   18.53
 -18   0  -2  316.81   20.69
 -19   0  -2  385.81   20.98
 -19   0  -2  376.52   23.38
 -20   0  -2    5.24    3.47
 -21   0  -2  975.95   45.34
 -22   0  -2  218.13   12.50
 -23   0  -2   60.59    5.05
 -24   0  -2   76.18    4.94
 -25   0  -2   45.82    2.98
 -25  -1   2   90.60    5.23
 -25   1   2   97.07    5.32
 -24  -1   2  260.93   12.67
 -24   1   2  249.37   12.58
 -23   1   2   47.57    4.07
 -23  -1   2   34.27    3.26
 -23  -1   2   41.72    3.95
 -22   1   2  370.34   17.75
 -22  -1   2  338.54   17.64
 -21  -1   2  134.86    8.33
 -21   1   2  113.66    7.25
 -21   1   2  117.24    8.10
 -20   1   2  267.74   14.60
 -20  -1   2  308.27   15.78
 -20   1   2  299.95   15.68
 -19   1   2   97.61    6.61
 -19  -1   2   87.85    8.16
 -19   1   2  103.58    7.42
 -19  -1   2  101.74    9.65
 -19   1   2   82.38    8.90
 -19   1   2   89.50    8.06
 -19  -1   2   98.35    7.38
 -18   1   2    4.27    2.40
 -18  -1   2    6.57    3.29
 -18   1   2    4.85    3.01
 -18   1   2    1.65    3.30
 -18  -1   2    8.38    3.99
 -18  -1   2    6.45    3.99
 -18   1   2    2.14    3.63
 -17   1   2 1051.80   49.16
 -17   1   2 1000.30   46.45
 -17  -1   2 1086.02   49.35
 -17  -1   2 1079.51   48.13
 -17  -1   2 1065.13   50.86
 -17   1   2  994.29   50.53
 -17   1   2 1000.06   47.75
 -16  -1   2  166.45   10.79
 -16   1   2  159.00   12.46
 -16   1   2  158.35    9.30
 -16   1   2  166.48   11.38
 -16  -1   2  166.98   12.65
 -16   1   2  154.87   10.49
 -15  -1   2 1407.89   61.43
 -15   1   2 1321.19   59.99
 -15   1   2 1384.45   63.88
 -15   1   2 1379.25   61.31
 -15  -1   2 1422.73   63.87
  15   1  -2 1316.40   60.20
 -14   1   2  139.91    8.17
 -14   1   2  139.07   10.93
  14   1  -2  134.93    8.33
 -14   1   2  136.54    9.24
 -14  -1   2  160.05   11.26
 -14  -1   2  148.07    9.49
 -13  -1   2 1312.46   58.39
 -13  -1   2 1252.53   60.14
 -13   1   2 1328.12   60.65
 -13   1   2 1360.95   57.84
  13   1  -2 1248.81   57.62
 -13   1   2 1313.41   58.44
 -12   1   2  697.88   33.62
 -12  -1   2  657.28   31.43
 -12  -1   2  678.05   33.17
 -12   1   2  682.09   31.57
 -11   1   2  860.43   39.13
 -11  -1   2  784.91   37.08
 -11   1   2  817.87   37.26
 -11  -1   2  829.85   38.73
 -10   1   2  593.66   27.94
 -10  -1   2  584.44   27.90
 -10   1   2  639.47   29.54
 -10  -1   2  623.08   29.45
  -9   1   2   22.45    3.82
  -9  -1   2   19.22    3.67
  -9   1   2   20.77    3.03
  -9  -1   2   17.96    2.73
  -8   1   2 1624.32   71.77
  -8  -1   2 1617.49   71.53
  -7   1   2  489.94   23.17
  -7  -1   2  479.63   23.11
  -6   1   2  578.04   26.49
  -6  -1   2  587.69   26.50
  -6   1   2  553.85   25.88
   5  -1  -2  621.50   27.36
  -5  -1   2  600.72   28.20
  -5   1   2  643.47   27.89
  -5  -1   2  618.25   27.90
  -5   1   2  635.23   28.39
   4  -1  -2  360.62   15.97
  -4   1   2  350.82   16.44
  -4   1   2  362.70   16.06
  -4  -1   2  328.20   16.36
  -4  -1   2  344.38   16.07
   3  -1  -2 1168.28   50.54
  -3  -1   2 1142.34   50.73
  -3   1   2 1198.14   50.43
  -3  -1   2 1165.25   50.43
  -3   1   2 1145.61   50.73
  -2   1   2   87.48    4.80
  -2  -1   2   84.41    4.75
  -1   1   2 1186.63   49.08
  -1  -1   2 1041.72   48.76
  -1   1   2 1138.11   48.93
  -1  -1   2 1241.77   49.08
  -1  -1   2 1207.08   49.03
  -1   1   2 1027.03   48.82
   0   1   2  179.27    8.76
   0   1  -2  191.87    8.33
   0  -1   2  180.18    8.71
   1   1   2  932.32   37.28
   1  -1   2  824.13   37.17
  -1   1  -2  824.80   37.09
  -2   1  -2  897.26   39.80
   2  -1   2  925.79   39.68
   2   1   2  910.54   39.71
   3   1   2 9735.36  411.52
  -3   1  -2 9786.34  411.85
   3  -1   2 9547.88  411.50
  -4   1  -2  370.31   17.65
  -5   1  -2   59.40    5.00
   5   1   2   59.40    4.27
   6   1   2 2836.68  122.14
  -6   1  -2 2840.81  122.96
   7   1   2    0.60    2.20
  -7   1  -2    1.19    3.24
   8   1   2   26.62    3.33
  -8   1  -2   26.82    4.46
   9   1   2   18.70    3.07
  -9   1  -2   18.36    4.08
  10   1   2  423.17   20.20
 -10   1  -2  419.15   21.75
 -10  -1  -2  388.22   21.84
 -11  -1  -2  747.35   37.62
  11   1   2  758.24   35.62
 -11   1  -2  828.21   37.83
  12   1   2  274.64   14.69
 -12   1  -2  284.75   16.71
 -12   1  -2  274.53   14.32
 -12  -1  -2  264.76   16.84
 -12  -1  -2  277.87   14.41
 -12   1  -2  289.57   15.43
 -12  -1  -2  267.85   15.26
 -13  -1  -2  793.90   37.03
 -13  -1  -2  747.59   35.80
 -13   1  -2  793.98   35.86
 -13  -1  -2  754.60   38.66
  13   1   2  790.37   36.29
 -13   1  -2  779.44   36.85
  14   1   2    4.86    2.40
 -14  -1  -2    2.11    3.45
 -14   1  -2    3.59    2.62
 -14   1  -2    2.47    3.63
 -14  -1  -2   -2.48    3.89
 -14  -1  -2   -0.62    2.60
 -15  -1  -2 1017.93   48.64
 -15  -1  -2 1063.58   46.95
  15   1   2 1030.64   45.76
 -15  -1  -2  900.02   44.46
 -15   1  -2 1039.14   46.73
 -16   1  -2   31.29    5.19
 -16  -1  -2   18.92    4.65
 -16  -1  -2   19.00    5.13
 -17   1  -2  624.03   30.44
 -17  -1  -2  575.40   32.74
 -17  -1  -2  573.88   31.90
 -17   1  -2  627.61   33.10
 -17  -1  -2  608.84   30.41
 -18  -1  -2  585.48   28.45
 -18   1  -2  527.22   30.59
 -18  -1  -2  497.04   30.49
 -18   1  -2  594.11   28.57
 -19   1  -2   45.08    5.60
 -19  -1  -2   32.37    4.93
 -20  -1  -2  549.58   27.30
 -20   1  -2  547.45   27.30
 -21   1  -2    2.30    2.66
 -21  -1  -2    4.49    2.96
 -21   1  -2    9.29    3.31
 -22   1  -2  254.70   12.47
 -22  -1  -2  230.60   12.90
 -22   1  -2  227.40   12.91
 -23  -1  -2    0.18    1.80
 -23   1  -2    3.03    1.82
 -24   1  -2   27.02    2.50
 -24  -1  -2   31.74    2.59
 -24  -2   2   14.30    1.75
 -23  -2   2   89.74    5.51
 -22  -2   2   43.91    3.91
 -22  -2   2   38.06    3.30
 -21   2   2   93.10    6.01
 -21  -2   2   91.48    6.03
 -20  -2   2   85.60    5.81
 -20   2   2   82.32    5.53
 -20   2   2   69.46    5.46
 -19  -2   2  123.26    7.94
 -19   2   2  125.04    7.82
 -19   2   2  137.45    8.13
 -18  -2   2  235.82   15.13
 -18   2   2  224.99   12.47
 -18  -2   2  232.10   12.60
 -18   2   2  227.11   12.27
 -17   2   2    7.93    2.65
 -17   2   2    8.32    2.61
 -17  -2   2    5.50    2.57
 -17   2   2    9.10    3.73
 -17  -2   2    7.30    3.87
 -17   2   2    5.88    3.03
 -16   2   2  170.27   10.08
 -16   2   2  173.92   10.23
 -16  -2   2  179.20   10.37
  16   2  -2  180.21   10.94
 -16   2   2  157.05   11.17
 -16  -2   2  190.52   11.81
 -16  -2   2  172.16   12.51
 -16   2   2  190.08   12.78
 -15  -2   2   17.82    2.95
 -15   2   2   20.23    3.77
 -15   2   2   15.05    2.97
  15   2  -2   12.19    3.07
 -15  -2   2   15.81    3.52
 -15   2   2   18.91    3.12
 -15   2   2   12.68    3.93
 -15  -2   2   15.50    4.02
 -15   2   2   14.01    2.89
 -14   2   2    9.68    2.42
 -14  -2   2    2.16    2.80
 -14   2   2    4.33    2.30
 -14  -2   2    1.85    1.99
 -14   2   2    3.27    3.11
 -14   2   2    4.36    2.45
 -14  -2   2    3.31    2.46
 -14   2   2    3.66    2.63
 -13  -2   2  177.48   11.70
 -13   2   2  159.51    9.60
 -13  -2   2  157.12   10.44
 -13   2   2  179.13    9.90
 -13  -2   2  180.13    9.81
 -13   2   2  174.76    9.93
 -13   2   2  149.39   11.33
 -13   2   2  180.23   10.73
 -12  -2   2  200.81   12.95
 -12   2   2  230.55   11.65
 -12   2   2  214.01   13.25
 -12  -2   2  213.72   11.76
 -12  -2   2  222.33   11.66
 -12   2   2  220.93   11.65
 -12   2   2  208.33   12.29
 -12   2   2  201.20   11.23
 -12  -2   2  218.76   12.44
 -11   2   2  319.72   16.70
 -11   2   2  322.58   17.68
 -11  -2   2  312.49   16.03
 -11  -2   2  320.59   17.50
 -11  -2   2  335.76   16.85
 -11  -2   2  320.63   16.13
 -11   2   2  327.33   16.00
 -10   2   2   55.07    5.45
 -10   2   2   56.73    4.82
 -10  -2   2   61.58    5.47
 -10  -2   2   56.96    4.83
  -9  -2   2  676.50   33.14
  -9   2   2  710.95   33.45
  -9   2   2  756.69   32.78
  -9  -2   2  701.65   32.56
  -8  -2   2   24.06    2.80
  -8   2   2   32.61    3.67
  -8   2   2   22.52    2.72
  -8  -2   2   23.57    3.22
  -7  -2   2  754.25   33.88
  -7   2   2  753.90   34.52
  -7   2   2  762.97   33.94
  -7  -2   2  761.04   34.41
  -6   2   2  340.50   16.25
  -6  -2   2  321.43   15.98
  -6   2   2  337.67   15.70
  -6  -2   2  338.25   15.65
  -5   2   2 1018.19   44.69
  -5  -2   2  962.23   44.47
   5  -2  -2 1091.55   45.38
  -4  -2   2  152.99    7.96
  -4   2   2  153.77    8.07
  -3  -2   2    4.47    2.00
  -3  -2   2    4.47    1.44
  -3   2   2    5.90    1.31
   3  -2  -2    3.26    2.39
   2  -2  -2 1505.32   66.25
   1  -2  -2  260.08   13.55
   0  -2  -2 1781.60   78.10
   1   2   2  130.48    5.61
   1  -2   2   87.71    5.10
   1   2   2  107.36    5.32
  -1  -2  -2  150.80    7.85
  -2  -2  -2 1131.27   45.30
   2   2   2 1094.32   43.09
   2   2   2 1045.46   43.34
   2  -2   2 1019.86   43.26
   3  -2   2  593.37   27.01
   3   2   2  630.18   27.14
  -3  -2  -2  640.66   29.05
   4   2   2   47.35    3.26
   4  -2   2   40.83    3.08
   5  -2   2  919.28   41.05
   5   2   2  945.19   41.27
  -6  -2  -2   59.30    5.43
   6   2   2   52.71    4.01
   6  -2   2   52.50    4.03
  -7  -2  -2 4186.59  175.02
   7   2   2 4046.38  173.61
   7  -2   2 3953.01  173.52
  -8  -2  -2  213.47   12.56
  -9  -2  -2  564.93   27.18
  -9  -2  -2  565.45   28.36
   9   2   2  611.42   27.98
 -10   2  -2  954.95   43.97
 -10   2  -2  956.79   43.87
 -10  -2  -2 1007.20   44.31
  10   2   2  980.38   44.86
 -10  -2  -2  967.97   45.28
 -11  -2  -2  161.09    9.74
 -11  -2  -2  149.22   10.19
 -11   2  -2  151.24    9.33
  11   2   2  165.53   10.24
 -11  -2  -2  150.82   11.19
 -11   2  -2  140.41    9.18
  12   2   2  298.40   16.24
 -12  -2  -2  285.12   17.40
 -12  -2  -2  282.95   15.65
 -12  -2  -2  301.56   16.49
 -12   2  -2  293.49   15.69
 -12   2  -2  290.74   15.54
 -13  -2  -2   21.27    3.65
 -13  -2  -2   24.68    5.07
 -13  -2  -2   27.71    4.13
 -13   2  -2   24.89    4.67
 -13   2  -2   23.68    4.04
 -13   2  -2   22.33    3.83
 -13  -2  -2   14.19    3.39
  13   2   2   25.56    4.12
 -14   2  -2  583.22   34.06
 -14  -2  -2  692.83   32.13
 -14   2  -2  694.33   32.06
 -14  -2  -2  626.09   34.29
 -14   2  -2  681.29   32.39
 -14  -2  -2  692.14   34.69
 -14  -2  -2  686.35   32.58
  14   2   2  713.76   33.23
 -15   2  -2   60.52    5.93
 -15   2  -2   57.38    7.19
 -15  -2  -2   61.20    5.97
 -15  -2  -2   56.77    5.50
 -15  -2  -2   67.26    7.39
  15  -2   2   50.80    6.28
 -15  -2  -2   61.09    7.30
  15   2   2   82.81    6.71
  16   2   2  265.11   14.57
 -16  -2  -2  250.58   13.36
 -16  -2  -2  253.54   14.25
  16   2   2  248.61   14.97
 -16  -2  -2  232.90   15.74
 -16   2  -2  226.61   13.68
  17   2   2  275.07   16.58
 -17   2  -2  289.62   15.53
  17   2   2  298.00   16.02
 -17  -2  -2  258.04   16.90
 -17  -2  -2  304.34   15.84
 -17  -2  -2  286.49   14.67
 -18  -2  -2  131.31    8.00
 -18   2  -2  130.05    8.86
 -18  -2  -2  136.84    9.16
 -19   2  -2  106.96    7.54
 -19  -2  -2  111.21    7.78
 -20   2  -2   16.38    2.92
 -20  -2  -2   13.38    2.95
 -21  -2  -2  167.10    9.07
 -21   2  -2  180.07    9.48
 -22   2  -2   15.61    2.30
 -22  -2  -2   11.09    1.68
 -23   2  -2   68.54    4.15
 -22  -3   2    9.93    1.72
 -21  -3   2   66.70    4.67
 -20  -3   2   67.07    4.49
 -20  -3   2   78.34    5.35
 -19  -3   2   33.59    3.85
 -19   3   2   22.86    2.89
 -18   3   2   12.86    2.55
 -18  -3   2   17.29    3.31
 -17   3   2  168.89    9.45
 -17  -3   2  158.83    9.31
 -16  -3   2    8.24    2.55
 -16   3   2    3.77    2.44
 -15   3   2   24.89    3.20
 -15  -3   2   18.29    3.41
  15   3  -2   28.02    4.21
 -15   3   2   22.98    3.58
 -14   3   2   19.55    3.02
 -14   3   2   15.93    3.43
 -13   3   2    7.09    2.80
 -13   3   2   10.57    2.78
 -12   3   2   10.81    2.69
 -12   3   2    9.72    2.69
 -11   3   2  206.09   11.47
 -11   3   2  207.13   11.47
 -10   3   2  302.64   15.67
 -10  -3   2  320.50   16.55
  -9   3   2  106.20    6.72
  -9  -3   2   97.10    7.35
  -8  -3   2  412.89   20.46
  -7  -3   2  167.00    9.99
  -6  -3   2  317.35   16.33
  -6  -3   2  290.75   15.40
  -5  -3   2   43.19    4.24
  -4  -3   2  308.12   15.56
  -3  -3   2  169.93    9.35
   3  -3  -2  146.88   10.20
   2  -3  -2    3.18    2.95
   2  -3  -2   -0.73    1.85
  -2  -3   2    4.50    2.94
   1  -3  -2 1627.23   71.57
   1  -3  -2 1597.51   73.74
  -1  -3   2 1702.37   72.28
   0  -3  -2    6.63    3.46
   0  -3  -2    1.82    2.01
  -1  -3  -2  175.86   11.32
  -1  -3  -2  169.36    9.12
  -2  -3  -2  381.30   21.57
  -2  -3  -2  432.00   19.75
  -3  -3  -2  277.90   13.40
  -3  -3  -2  229.20   14.99
  -4  -3  -2  177.53    9.70
  -4  -3  -2  172.35   10.16
  -5  -3  -2    0.31    2.32
  -6  -3  -2  579.01   28.27
  -6  -3  -2  612.96   30.10
  -7   3  -2    2.78    2.09
  -7  -3  -2   -2.07    2.67
  -7  -3  -2    2.10    2.91
  -8   3  -2  618.24   29.73
  -8  -3  -2  663.24   32.45
  -8  -3  -2  649.95   30.76
  -9  -3  -2  240.71   15.10
  -9   3  -2  236.08   12.90
 -10  -3  -2  149.61   11.15
 -10  -3  -2  163.86   11.66
 -10   3  -2  169.12    9.93
 -11  -3  -2  550.49   29.03
 -11  -3  -2  578.73   27.88
 -11   3  -2  554.93   27.08
  12   3   2   16.46    3.90
 -12  -3  -2   23.24    4.26
 -12  -3  -2   20.51    3.99
 -12   3  -2   13.13    3.63
 -13   3  -2  124.31    8.53
 -13  -3  -2  107.77    9.17
  13   3   2  115.97    9.01
 -13  -3  -2  118.97    8.69
 -14   3  -2   -1.01    2.80
  14   3   2    1.40    2.81
 -14  -3  -2    1.12    2.97
 -15  -3  -2   45.60    5.14
 -16  -3  -2   13.62    3.35
 -17  -3  -2  121.78    7.84
 -18  -3  -2   97.60    6.38
 -20   3  -2   18.68    2.44
 -21   3  -2   -0.12    1.33
 -19  -4   2    9.47    1.56
 -18  -4   2   10.03    1.98
 -17  -4   2    9.66    2.00
 -17  -4   2   10.11    2.19
 -16  -4   2   64.43    4.78
 -16   4   2   61.49    4.47
 -16  -4   2   57.07    4.65
 -15  -4   2   15.79    2.89
 -15  -4   2   14.64    2.77
 -15   4   2   15.74    2.80
 -14  -4   2  213.10   11.60
 -14  -4   2  200.65   11.11
 -14   4   2  192.62   11.11
 -13  -4   2   13.47    3.04
 -13   4   2   16.45    3.17
 -13   4   2   10.87    2.38
 -13  -4   2   11.49    2.90
 -12  -4   2   66.43    5.84
 -12   4   2   56.76    5.32
 -12   4   2   59.30    4.91
 -12  -4   2   64.43    5.25
 -11   4   2   11.86    2.82
 -11   4   2   13.35    3.27
 -10  -4   2   33.43    3.75
 -10   4   2   33.59    4.07
  -9  -4   2    6.89    2.48
  -9  -4   2    7.67    3.28
  -9   4   2    4.74    2.79
  -8   4   2  173.77    9.84
  -8  -4   2  150.96    9.06
  -8  -4   2  165.74   10.54
  -7  -4   2   66.53    6.33
  -7  -4   2   62.11    5.85
  -6  -4   2  147.61   10.18
  -6  -4   2  181.22   10.95
  -5  -4   2  265.23   15.30
  -5  -4   2  304.28   16.21
  -4  -4   2   87.80    7.10
  -4  -4   2   75.52    6.37
  -3  -4   2    2.76    3.33
  -3  -4   2    4.37    2.52
  -2  -4   2  141.33    9.33
  -2  -4   2  136.64    8.96
  -1  -4   2    1.23    2.43
  -1  -4   2   -1.39    3.13
   1  -4  -2    3.11    2.26
   0  -4  -2    5.41    2.42
   0  -4   2    8.66    3.44
   0  -4   2    8.17    2.78
   0  -4  -2    7.11    2.77
   1  -4   2   77.80    5.68
   1  -4   2   74.92    6.38
  -1  -4  -2   58.96    5.31
  -1  -4  -2   73.51    7.66
  -1  -4  -2   69.83    5.70
  -2  -4  -2   16.76    3.23
  -2  -4  -2   24.10    3.55
   2  -4   2   17.46    2.86
  -2  -4  -2   14.74    4.35
   2  -4   2   20.50    3.98
  -3  -4  -2   52.94    5.38
  -3  -4  -2   58.62    5.10
  -3  -4  -2   56.74    7.11
  -4  -4  -2  235.17   13.33
  -4  -4  -2  232.87   15.51
  -5  -4  -2    2.21    2.70
  -6  -4  -2    6.64    3.49
  -6   4  -2    1.59    2.67
  -6  -4  -2    2.30    2.98
   7  -4   2   23.90    3.04
  -7   4  -2   21.18    3.62
  -7  -4  -2   16.24    3.95
  -7  -4  -2   19.25    4.78
  -8  -4  -2   -0.80    3.20
  -8   4  -2   -2.64    2.80
   8   4   2   -0.94    2.64
  -8  -4  -2   -3.26    3.91
  -9  -4  -2   -2.00    3.21
   9   4   2   -0.47    2.80
  -9   4  -2    0.33    2.89
  -9  -4  -2    3.17    3.28
 -10   4  -2    4.04    3.05
 -10  -4  -2    0.39    3.39
 -11  -4  -2    6.48    3.32
 -11   4  -2    5.73    3.26
 -12   4  -2   28.13    4.31
 -13   4  -2    4.63    3.16
 -14  -4  -2   61.98    5.37
 -14   4  -2   51.27    4.93
 -15  -4  -2    2.32    1.70
 -16  -4  -2    4.81    1.69
 -17  -4  -2   -0.33    1.60
 -17  -4  -2   -1.88    1.31
 -18  -4  -2    8.74    1.44
 -19   4  -2    2.47    1.02
 -15  -5   2    2.30    1.03
 -14  -5   2    3.05    1.44
 -13   5   2    2.17    1.41
 -12   5   2    3.17    1.75
 -11  -5   2    5.54    2.38
 -11   5   2    7.12    2.22
 -10   5   2   18.77    2.95
 -10  -5   2   24.67    3.29
  -9   5   2    7.75    2.43
  -9  -5   2   13.77    2.80
  -8   5   2   -1.20    2.14
  -8  -5   2    3.09    2.46
  -7   5   2    6.95    2.65
  -7  -5   2   12.62    2.98
  -6  -5   2   21.82    3.56
  -6   5   2   34.62    3.83
  -5  -5   2    1.42    2.36
  -5   5   2    0.77    2.40
  -4  -5   2   24.54    3.42
  -4  -5   2   21.03    3.96
  -3  -5   2   44.76    4.30
  -3  -5   2   46.67    5.22
  -2  -5   2   10.16    3.56
  -2  -5   2    6.24    2.25
  -1  -5   2    2.80    2.04
  -1  -5   2    3.19    3.34
   0  -5   2   96.28    7.03
   0  -5   2   77.86    5.55
   1  -5   2  206.64   12.06
   2  -5   2    9.01    3.20
  -2  -5  -2    0.99    2.00
  -3  -5  -2    6.42    2.49
  -3   5  -2    2.96    2.78
   3  -5   2   10.51    3.16
  -4  -5  -2    1.99    2.26
   4  -5   2    0.31    2.76
  -4   5  -2   -1.18    2.74
   5  -5   2   24.36    3.89
   5  -5   2   28.67    3.17
  -5  -5  -2   32.09    4.04
  -5   5  -2   32.47    4.19
  -6   5  -2   23.46    3.82
   6  -5   2   18.74    3.38
  -6  -5  -2   17.32    3.32
   6  -5   2   18.38    2.48
  -7   5  -2    5.26    2.89
   7  -5   2    2.93    2.74
   8  -5   2    9.11    3.04
  -8   5  -2   14.50    3.34
  -9  -5  -2    9.39    2.74
  -9   5  -2   17.54    3.17
 -10   5  -2   15.02    3.01
  10  -5   2    9.82    2.89
 -10  -5  -2   16.46    2.84
  11  -5   2    2.64    2.17
 -11   5  -2    6.28    2.46
 -11  -5  -2    4.40    2.18
 -12  -5  -2   19.25    2.66
 -12   5  -2   17.94    2.62
 -13   5  -2   18.12    2.36
 -13  -5  -2   22.70    2.45
   5   6  -2   26.97    2.42
  -5   6   2   27.15    2.24
   4   6  -2   47.78    3.63
  -4   6   2   58.65    3.54
  -3   6   2   12.41    1.87
   3   6  -2   13.05    2.08
   2   6  -2    5.42    1.77
  -2  -6   2    4.75    1.45
  -2   6   2    1.52    1.54
  -1  -6   2    1.71    1.20
   1   6  -2   -0.15    1.70
  -1   6   2   -0.13    1.49
   0  -6   2    0.32    1.16
   0   6   2    0.92    1.50
   0   6  -2   -0.91    1.65
   1  -6   2   25.26    2.17
   1   6   2   26.84    2.56
   2   6   2    0.26    1.44
  -2   6  -2    1.62    1.60
  -3   6  -2   16.48    2.27
  -4   6  -2    0.94    1.50
  -5   6  -2   64.06    4.07
  -6   6  -2    1.71    1.18
 -26   0   3   -0.29    0.98
 -25   0   3   -1.71    1.51
 -24   0   3   -0.61    1.90
 -23   0   3   -0.74    2.14
 -22   0   3    2.27    2.55
 -21   0   3   -2.53    2.78
 -20   0   3    2.05    1.71
 -20   0   3   -0.34    2.86
 -19   0   3   -4.42    3.98
 -19   0   3    0.56    2.55
 -19   0   3   -0.35    2.88
 -18   0   3   -0.55    2.86
 -18   0   3    0.24    1.94
 -18   0   3   -1.40    3.03
 -18   0   3   -0.73    3.72
 -17   0   3   -2.60    2.29
 -17   0   3   -0.68    2.67
 -17   0   3    1.61    2.95
 -17   0   3    0.83    3.26
 -17   0   3    4.25    4.04
 -16   0   3    2.56    3.03
 -16   0   3    2.03    1.96
 -16   0   3   -1.62    2.42
 -16   0   3   -2.76    3.77
 -16   0   3   -0.67    3.48
 -15   0   3   -0.63    3.65
 -15   0   3   -1.47    1.70
 -15   0   3   -2.89    2.89
 -15   0   3   -1.24    2.56
 -15   0   3   -0.37    2.78
 -14   0   3    0.29    2.32
 -14   0   3    2.40    2.91
 -14   0   3   -1.75    4.17
 -14   0   3   -0.44    2.76
 -13   0   3    2.67    3.27
 -13   0   3    3.66    3.14
 -13   0   3   -0.63    3.02
 -12   0   3    2.42    3.09
 -12   0   3   -0.57    2.73
 -12   0   3   -0.37    2.76
 -11   0   3    0.66    2.59
 -11   0   3    1.30    3.08
 -11   0   3    0.52    2.59
 -10   0   3    1.55    3.33
 -10   0   3    2.37    2.54
 -10   0   3    0.23    2.31
  -9   0   3   -0.21    2.17
   9   0  -3    0.33    1.00
  -9   0   3    1.72    3.23
  -9   0   3    1.05    2.43
  -8   0   3   -0.23    2.41
  -8   0   3    1.81    2.12
  -8   0   3   -0.91    2.89
  -7   0   3   -0.81    2.07
  -7   0   3    0.27    2.65
  -6   0   3   -0.88    1.87
  -6   0   3    0.70    2.65
  -5   0   3    0.93    1.73
  -5   0   3    1.23    2.56
  -4   0   3    1.12    2.44
  -4   0   3   -0.14    1.58
  -3   0   3   -1.91    2.70
  -3   0   3    0.41    2.29
  -2   0   3    0.83    2.39
  -2   0   3   -0.77    2.15
  -1   0   3    0.79    2.34
  -1   0   3   -0.12    1.93
   0   0   3   -1.08    1.87
   1   0   3    0.13    2.11
   2   0   3    1.38    2.13
   3   0   3   -1.07    2.32
   4   0   3    0.17    2.17
  -8   0  -3    3.98    4.04
  -9   0  -3   -1.31    3.89
 -10   0  -3    0.47    3.78
 -11   0  -3   -3.13    4.06
 -12   0  -3   -0.25    2.20
 -12   0  -3    3.42    3.73
 -13   0  -3    0.83    2.32
 -13   0  -3    0.62    3.76
 -14   0  -3   -0.60    2.42
 -14   0  -3   -3.33    4.35
 -14   0  -3   -0.46    3.84
 -15   0  -3   -0.48    3.74
 -15   0  -3   -1.93    2.82
 -15   0  -3    2.11    4.12
 -16   0  -3    1.00    4.22
 -16   0  -3   -0.34    2.79
 -17   0  -3   -1.50    4.06
 -17   0  -3    1.04    2.74
 -18   0  -3    0.80    3.98
 -18   0  -3    1.38    3.06
 -18   0  -3    0.98    4.17
  18   0   3   -1.20    3.39
 -19   0  -3    3.00    2.97
 -19   0  -3    5.52    3.91
 -20   0  -3    1.22    2.96
 -20   0  -3   -1.25    3.58
 -21   0  -3    2.16    2.97
 -22   0  -3    1.48    2.47
 -23   0  -3   -1.36    1.80
 -24   0  -3    0.88    1.24
 -25   1   3   16.67    1.93
 -25  -1   3   13.78    1.80
 -24   1   3   58.55    4.08
 -24  -1   3   50.82    4.00
 -23  -1   3    2.19    2.06
 -23   1   3   -0.65    1.94
 -22   1   3   43.87    4.20
 -22  -1   3   38.29    3.62
 -22  -1   3   44.01    4.30
 -21  -1   3    0.24    1.91
 -21   1   3    4.30    2.55
 -21  -1   3    4.08    2.64
 -20  -1   3   41.89    4.44
 -20   1   3   34.11    4.22
 -19  -1   3   15.63    3.49
 -19   1   3    9.14    3.96
 -19  -1   3   16.23    4.51
 -19   1   3   12.92    2.51
 -19   1   3   16.46    3.42
 -19  -1   3   19.27    4.08
 -19   1   3   16.92    3.83
 -18   1   3  335.48   17.22
 -18  -1   3  312.58   20.14
 -18  -1   3  344.11   17.33
 -18   1   3  313.85   18.57
 -18   1   3  299.98   15.99
 -18   1   3  321.47   20.17
 -18  -1   3  365.84   19.28
 -17   1   3    1.00    2.58
 -17   1   3   -0.23    1.91
 -17   1   3    2.10    2.88
 -17   1   3   -0.28    2.33
 -17   1   3   -2.09    3.93
 -17  -1   3   -1.38    3.46
 -17  -1   3    2.10    2.80
 -17  -1   3    0.33    2.57
 -16  -1   3  182.02   10.52
 -16   1   3  175.09   10.58
 -16   1   3  167.93    9.93
 -16   1   3  181.79   13.05
 -16   1   3  183.20   12.01
 -16  -1   3  179.32   11.84
 -16  -1   3  188.95   13.21
 -16   1   3  159.16    9.47
 -15   1   3   17.25    2.65
 -15   1   3   16.90    3.24
 -15  -1   3   21.75    3.29
 -15  -1   3    9.93    3.43
 -15   1   3   20.94    3.00
 -15   1   3   12.96    3.67
 -15   1   3   18.23    4.09
 -15  -1   3   23.80    4.15
 -15  -1   3   21.11    4.84
 -15   1   3    9.53    4.37
 -14   1   3   70.52    7.36
 -14   1   3   60.50    6.36
 -14  -1   3   70.74    7.36
 -14   1   3   68.16    6.09
 -14  -1   3   63.62    5.83
 -14   1   3   55.89    4.48
 -14   1   3   69.41    5.39
 -14  -1   3   66.31    6.41
 -14   1   3   66.28    4.98
 -13   1   3  211.45   14.17
 -13  -1   3  192.33   13.70
 -13   1   3  240.93   11.98
 -13  -1   3  193.36   12.18
 -13  -1   3  233.60   12.43
 -13   1   3  217.33   12.39
 -13   1   3  213.86   12.98
 -13  -1   3  216.76   13.06
 -12   1   3   55.81    6.09
 -12  -1   3   37.50    4.32
 -12  -1   3   40.17    5.32
 -12   1   3   51.30    5.39
 -12  -1   3   37.66    4.60
 -12   1   3   41.96    4.46
 -11  -1   3  118.51    8.98
 -11  -1   3  123.04    7.80
 -11   1   3  125.65    7.91
 -11   1   3  126.34    8.52
 -11  -1   3  125.87    8.33
 -11   1   3  140.84    9.59
 -10  -1   3   -0.29    2.29
 -10   1   3    5.23    3.43
 -10  -1   3    2.31    2.42
 -10   1   3    0.24    2.31
 -10   1   3    0.61    2.41
 -10  -1   3   -1.16    2.99
  -9  -1   3  543.51   24.91
  -9   1   3  506.62   24.81
  -9  -1   3  561.15   26.54
  -9   1   3  544.66   25.51
  -9  -1   3  536.30   25.54
  -9   1   3  545.05   26.37
  -8   1   3  250.82   13.35
  -8   1   3  238.47   12.49
  -8  -1   3  235.93   12.40
  -8  -1   3  235.39   13.10
  -7  -1   3  101.56    6.93
  -7  -1   3   93.66    6.19
  -7   1   3   95.16    6.15
  -7   1   3   89.23    6.66
   6  -1  -3  754.05   33.69
  -6   1   3  790.00   35.30
  -6  -1   3  807.66   35.33
  -6   1   3  791.21   34.72
  -6  -1   3  766.83   34.65
  -5  -1   3  970.73   42.62
   5  -1  -3  971.95   41.49
  -5   1   3  949.34   42.00
  -5  -1   3  906.91   41.92
  -5   1   3  964.06   42.59
  -4   1   3  384.43   18.60
  -4  -1   3  398.68   18.65
  -3   1   3  153.29    8.49
  -3  -1   3  157.50    8.58
  -2  -1   3   11.92    2.42
  -2  -1   3    6.66    2.33
  -2   1   3    8.54    2.49
  -2   1   3    4.01    2.11
  -2   1   3   10.59    2.52
  -2  -1   3    7.67    2.21
  -2   1   3    9.01    1.09
  -1   1   3  303.36   14.59
  -1  -1   3  314.06   14.86
  -1   1   3  306.15   14.40
  -1  -1   3  294.89   14.66
  -1   1   3  307.19   14.73
  -1  -1   3  309.43   14.36
  -1   1   3  307.76   13.76
   0  -1   3   42.50    3.64
   0   1   3   34.22    3.12
   0   1   3   41.33    2.75
   0  -1   3   36.89    3.20
   1  -1   3   82.94    4.82
   1   1   3   68.15    4.71
   1   1   3   80.90    4.55
  -1   1  -3   81.09    4.76
   2   1   3   25.09    2.70
   2  -1   3   34.12    3.05
  -2   1  -3   31.86    3.27
   2   1   3   29.48    2.91
  -3   1  -3 1046.55   45.69
   3   1   3 1062.19   45.37
   3  -1   3  995.22   45.23
   3   1   3 1027.20   45.23
   4  -1   3  432.30   20.06
   4   1   3  407.37   20.01
  -4   1  -3  457.40   20.69
   5  -1   3  190.84   10.55
  -5   1  -3  190.58   11.13
   5   1   3  216.10   10.67
  -6   1  -3  227.01   12.61
   7   1   3    5.18    2.22
  -7   1  -3    1.35    3.47
   8   1   3    4.45    2.29
  -8   1  -3    2.66    3.50
   9   1   3   -2.42    2.26
  -9   1  -3   -1.28    3.36
 -10   1  -3    0.47    3.67
  10   1   3    2.63    2.39
 -11   1  -3   27.18    3.60
 -11  -1  -3   31.43    5.98
 -11  -1  -3   32.73    3.79
  11   1   3   39.87    4.32
 -11   1  -3   38.90    5.65
  12   1   3   27.63    3.80
 -12  -1  -3   19.87    4.86
 -12  -1  -3   26.95    3.67
 -12   1  -3   23.83    3.44
 -12   1  -3   26.59    5.58
 -13   1  -3  136.97    8.51
 -13  -1  -3  119.66    8.32
  13   1   3  128.35    8.72
 -13   1  -3  135.57    9.60
 -13  -1  -3  135.27   11.11
 -13   1  -3  136.46   11.01
  14   1   3   10.95    3.05
 -14  -1  -3   19.73    3.51
 -14  -1  -3   14.28    5.13
 -14   1  -3   10.39    3.18
 -14   1  -3   15.12    4.34
 -14  -1  -3   15.37    4.26
 -15  -1  -3    1.69    2.87
 -15   1  -3   -0.66    2.78
 -15  -1  -3   -1.89    4.27
 -15  -1  -3    1.42    3.90
 -15   1  -3   -2.80    4.37
 -16  -1  -3    2.88    3.88
 -16   1  -3    4.74    3.92
 -16   1  -3   -0.34    2.91
 -16  -1  -3   -0.72    4.03
 -16  -1  -3    1.38    2.07
  17  -1   3    4.09    3.03
  17   1   3   11.25    4.20
 -17  -1  -3    6.65    3.92
 -17   1  -3    3.71    2.87
 -17   1  -3    5.18    3.79
 -17  -1  -3    6.44    4.49
 -18   1  -3    7.21    3.32
 -18  -1  -3    6.39    3.76
 -18   1  -3    0.91    3.68
 -19  -1  -3   -2.11    3.96
 -19   1  -3    6.13    3.21
 -19   1  -3    0.84    3.25
 -20   1  -3    3.32    2.67
 -20  -1  -3    1.50    3.11
 -20   1  -3    4.49    2.97
 -21   1  -3   17.97    3.14
 -21   1  -3   18.31    3.36
 -21  -1  -3   14.90    3.28
 -22   1  -3   18.32    2.90
 -22  -1  -3   14.10    2.84
 -23   1  -3    6.20    1.70
 -23  -1  -3    7.43    1.74
 -24   1  -3   74.06    4.03
  24  -1   3   70.64    4.31
 -24  -1  -3   66.57    3.99
  24   1   3   74.23    4.35
 -24  -2   3   20.23    1.88
 -23  -2   3   62.45    4.23
 -22  -2   3    8.54    1.83
 -22  -2   3    5.87    2.20
 -21  -2   3   72.86    5.66
 -21   2   3   73.57    5.20
 -21  -2   3   85.33    5.40
 -20  -2   3   14.87    3.21
 -20   2   3   17.72    2.85
 -20  -2   3   18.55    2.87
 -19   2   3   77.42    5.55
 -19   2   3   93.38    6.25
 -19  -2   3   90.38    6.14
 -18   2   3  123.26    7.88
 -18   2   3  141.35    8.53
 -18  -2   3  147.03    8.61
 -17  -2   3   66.83    7.04
 -17  -2   3   66.88    5.25
 -17   2   3   65.90    5.18
 -17   2   3   47.90    5.54
 -17   2   3   53.46    4.66
 -16  -2   3  308.54   18.63
 -16   2   3  298.73   15.54
 -16   2   3  330.91   16.35
 -16   2   3  316.72   18.81
 -16   2   3  309.21   15.97
 -16   2   3  299.99   17.38
 -16  -2   3  303.05   17.40
 -16  -2   3  318.61   16.07
 -15   2   3   75.42    5.53
 -15   2   3   65.86    7.49
 -15  -2   3   69.93    5.32
 -15  -2   3   81.56    6.86
 -15   2   3   80.04    5.78
 -15   2   3   78.05    6.04
  15   2  -3   73.18    6.21
 -15  -2   3   82.76    5.80
 -15   2   3   66.82    6.47
 -15  -2   3   69.24    7.26
 -14   2   3  593.93   28.76
 -14  -2   3  594.16   30.03
 -14  -2   3  605.46   28.83
 -14   2   3  566.40   27.11
 -14  -2   3  579.43   27.32
 -14   2   3  594.24   30.04
 -14   2   3  626.27   27.79
 -14   2   3  579.36   27.30
 -14  -2   3  537.63   27.00
 -13  -2   3    5.38    2.48
 -13  -2   3    7.56    3.21
 -13   2   3    6.15    2.22
 -13   2   3    7.29    2.45
 -13   2   3    7.31    2.64
 -13   2   3    6.69    3.37
 -13   2   3    7.11    2.27
 -12   2   3  385.30   19.05
 -12   2   3  422.56   19.63
 -12   2   3  382.99   18.93
 -12   2   3  377.41   20.96
 -12   2   3  418.04   20.28
 -12  -2   3  381.56   20.05
 -12  -2   3  396.44   21.16
 -11   2   3   46.78    4.26
 -11   2   3   43.19    5.19
 -11  -2   3   35.54    4.70
 -11   2   3   47.20    4.60
 -11  -2   3   43.29    4.38
 -10  -2   3   82.65    6.02
 -10  -2   3   88.10    6.79
 -10   2   3   75.96    6.53
 -10   2   3   86.10    6.11
  -9  -2   3  893.19   42.59
  -9   2   3  910.62   42.77
  -9   2   3  951.66   42.00
  -9  -2   3  944.43   41.91
  -8   2   3   21.88    3.38
  -8  -2   3   19.22    3.15
  -8  -2   3   25.53    3.27
  -8  -2   3   20.14    2.68
  -8   2   3   19.59    2.69
  -7  -2   3  297.93   15.86
  -7   2   3  313.60   16.16
  -7  -2   3  343.72   15.93
   6  -2  -3   60.34    4.43
  -6   2   3   49.47    4.35
  -6  -2   3   44.07    4.10
  -6  -2   3   51.25    4.00
  -5  -2   3  228.32   11.10
  -5   2   3  213.94   11.36
  -5  -2   3  216.27   11.18
   5  -2  -3  213.57   11.49
  -4  -2   3  332.96   15.72
   4  -2  -3  336.59   16.44
  -4   2   3  332.29   15.90
  -4  -2   3  324.03   15.77
   3  -2  -3   21.18    3.11
  -3  -2   3   22.79    2.74
   2  -2  -3  723.87   33.21
   1  -2  -3  338.16   16.98
   0  -2  -3 1152.01   47.09
   0   2   3 1142.57   45.70
   0   2   3 1058.05   45.40
   1  -2   3  207.71    9.90
   1   2   3  200.65    9.90
   1   2   3  211.13    9.60
   2   2   3  112.84    6.88
   2  -2   3  120.96    6.90
   2   2   3  125.63    6.55
   2  -2   3  123.39    6.53
   3   2   3 1109.35   44.67
   3  -2   3  936.60   44.37
   4   2   3    3.12    1.64
   4  -2   3    4.03    1.64
   5  -2   3  103.67    6.34
   5   2   3  108.98    6.45
   6  -2   3  450.67   21.49
   6   2   3  470.11   21.64
   6   2   3  449.17   22.01
   7   2   3   20.28    3.04
   7  -2   3   15.48    2.77
   8  -2   3    1.69    2.07
   8   2   3   -0.57    2.30
   9   2   3  398.89   19.39
   9  -2   3  367.55   19.02
  -9   2  -3  368.47   18.53
 -10   2  -3  374.56   19.84
 -10   2  -3  402.81   19.81
  10  -2   3  399.64   20.35
  10   2   3  394.53   20.35
  10   2   3  425.26   20.77
  11   2   3   24.38    4.12
 -11  -2  -3   22.89    5.42
 -11   2  -3   28.42    4.15
 -11   2  -3   25.96    3.87
  11  -2   3   29.80    4.14
  11   2   3   24.93    4.02
 -11  -2  -3   29.89    4.19
 -11  -2  -3   19.99    4.00
 -12   2  -3  153.70    9.28
 -12  -2  -3  143.44    9.69
 -12   2  -3  143.58    9.38
  12   2   3  137.61    9.70
  12   2   3  138.81    9.85
  12  -2   3  124.20    9.54
 -12  -2  -3  141.32   11.51
 -12  -2  -3  137.12   10.03
  13   2   3   32.74    4.66
 -13  -2  -3   39.21    4.94
 -13   2  -3   27.64    4.15
 -13  -2  -3   22.78    5.18
  13  -2   3   21.94    4.31
 -13   2  -3   33.37    4.55
 -13  -2  -3   31.02    4.59
  13   2   3   34.23    4.90
  14   2   3  169.95   10.94
 -14  -2  -3  156.30   12.35
 -14   2  -3  153.06   10.42
  14  -2   3  145.45   10.87
 -14  -2  -3  146.29   10.60
 -14  -2  -3  165.00   10.27
 -14   2  -3  172.27   10.12
  14   2   3  174.76   11.37
 -14  -2  -3  156.12   10.59
 -15   2  -3   15.41    4.17
  15   2   3   17.94    3.56
  15   2   3   17.54    3.96
 -15  -2  -3   18.22    4.11
 -15   2  -3   17.48    3.93
 -15  -2  -3   16.33    4.61
 -15  -2  -3   19.14    3.77
 -15   2  -3   23.71    3.83
 -15  -2  -3    7.97    4.14
 -16   2  -3  106.67    7.61
 -16  -2  -3  110.83    8.15
 -16  -2  -3   99.57    9.42
  16   2   3  110.22    8.23
 -16   2  -3  110.09    8.13
 -16  -2  -3   99.05    7.34
  16   2   3   94.60    8.51
 -16  -2  -3   92.01    9.17
 -17  -2  -3  130.78    9.43
 -17   2  -3  153.34    9.37
 -17  -2  -3  145.08    8.93
 -17   2  -3  148.99    9.64
 -18  -2  -3   76.99    5.63
 -18   2  -3   86.66    6.40
 -18  -2  -3   71.82    6.46
 -18   2  -3   90.64    6.68
 -19   2  -3   80.94    5.85
 -19  -2  -3   76.60    5.98
 -19   2  -3   66.03    5.69
 -20   2  -3   31.71    3.45
 -20  -2  -3   20.09    3.03
 -21  -2  -3   57.57    4.00
  21   2   3   59.46    4.38
 -21  -3   3    2.57    1.77
 -21  -3   3    1.14    1.23
 -20  -3   3  197.83   10.08
 -20  -3   3  200.85   10.63
 -19  -3   3  229.48   12.31
 -18  -3   3  105.32    7.25
 -17  -3   3  296.10   14.60
 -17   3   3  268.60   14.34
 -16   3   3    7.27    2.53
 -16   3   3   10.65    2.56
 -16  -3   3   14.32    3.32
 -16  -3   3   13.41    2.74
 -15  -3   3  336.75   17.34
 -15   3   3  327.57   16.99
 -15   3   3  346.88   17.36
 -15  -3   3  363.26   18.00
 -14  -3   3   87.97    6.81
 -14   3   3   76.56    6.03
 -14   3   3   76.00    5.99
 -14  -3   3   84.15    6.35
 -13  -3   3  286.48   15.22
 -13  -3   3  282.15   15.01
 -13   3   3  247.34   14.42
 -13   3   3  305.63   15.01
 -12   3   3  597.06   27.85
 -12   3   3  555.13   27.46
 -12  -3   3  605.73   28.16
 -12  -3   3  585.45   28.10
 -11   3   3   -0.78    2.08
 -11  -3   3    3.33    2.55
 -11  -3   3   -0.31    2.52
 -10   3   3  904.28   41.33
 -10  -3   3  930.20   41.89
  -9   3   3   16.23    2.72
  -9  -3   3   13.23    2.98
  -8  -3   3  448.76   21.82
  -8   3   3  463.57   21.74
  -8  -3   3  467.17   22.17
  -7  -3   3  212.11   11.30
  -7  -3   3  206.63   11.08
  -6  -3   3  410.41   19.32
  -6  -3   3  408.88   19.21
  -6  -3   3  375.68   19.72
  -5  -3   3  745.00   35.38
  -5  -3   3  783.52   34.80
   5  -3  -3  772.32   36.42
   4  -3  -3  655.60   31.69
  -4  -3   3  641.62   30.51
  -4  -3   3  669.29   30.47
  -3  -3   3  384.85   18.79
  -3  -3   3  385.78   18.73
   3  -3  -3  364.96   19.85
  -2  -3   3   86.19    6.01
  -2  -3   3   78.34    5.57
  -1  -3   3  603.94   28.04
   1  -3  -3  599.78   29.61
   0  -3  -3  171.92   11.14
  -1  -3  -3  363.05   19.64
  -2  -3  -3   99.70    8.16
  -3  -3  -3   91.58    6.56
  -3  -3  -3   87.15    7.84
  -4  -3  -3  252.39   13.77
  -4  -3  -3  255.72   15.48
  -5  -3  -3   30.42    4.13
   6   3   3  745.98   34.52
  -6   3  -3  731.74   33.41
  -6  -3  -3  702.26   34.20
   7   3   3  123.59    8.99
  -7  -3  -3  125.94    8.93
  -7  -3  -3  140.01   10.69
  -7   3  -3  143.62    8.45
   7  -3   3  133.79    7.85
  -8  -3  -3  742.95   34.96
  -8   3  -3  745.94   34.04
  -8  -3  -3  703.77   36.53
   8  -3   3  726.89   33.29
   8   3   3  734.46   35.11
  -9  -3  -3   40.98    5.85
  -9   3  -3   32.49    4.11
  -9  -3  -3   32.22    4.59
   9   3   3   33.22    4.67
  10   3   3  828.54   38.09
 -10   3  -3  793.30   36.80
 -10  -3  -3  841.75   39.51
 -11  -3  -3  125.97   10.41
 -11  -3  -3  142.70   10.69
 -11   3  -3  129.21    8.85
 -12  -3  -3  240.22   14.22
 -12   3  -3  245.18   13.85
 -12  -3  -3  245.13   15.46
 -13  -3  -3  922.97   42.49
 -13   3  -3  933.02   42.06
 -13  -3  -3  812.69   43.40
  13   3   3  947.31   43.20
 -14   3  -3    4.55    3.25
 -14  -3  -3    3.75    2.98
 -15   3  -3  404.33   20.14
 -15  -3  -3  398.79   20.52
 -16  -3  -3   32.84    4.15
 -16   3  -3   25.77    3.79
 -17  -3  -3   78.48    5.77
 -17   3  -3   72.21    5.70
 -18   3  -3  169.85    9.80
 -18  -3  -3  189.67    9.78
 -19   3  -3   28.82    3.12
 -20   3  -3  129.74    7.04
 -21  -3  -3    0.29    1.01
 -19  -4   3   26.51    2.33
 -18  -4   3  219.19   10.88
 -17  -4   3    2.98    1.46
 -17  -4   3    2.91    1.91
 -16  -4   3  565.33   26.28
 -16  -4   3  580.85   26.50
 -15  -4   3    7.01    2.36
 -15   4   3    9.34    2.18
 -15  -4   3   11.23    2.65
 -14  -4   3  645.86   28.95
 -14  -4   3  646.59   29.18
 -14   4   3  609.66   28.42
 -14   4   3  587.26   28.40
 -13  -4   3  115.05    7.45
 -13   4   3  110.23    7.11
 -13  -4   3  119.22    7.85
 -13   4   3  105.67    7.21
 -12  -4   3  183.48   10.75
 -12   4   3  162.74   10.00
 -12   4   3  170.30   10.02
 -12  -4   3  187.14   10.21
 -11  -4   3  631.94   29.51
 -11   4   3  610.51   29.44
 -11  -4   3  661.10   30.41
 -11   4   3  624.87   29.60
 -10   4   3    2.78    2.34
 -10  -4   3    0.81    2.30
  -9   4   3  473.19   22.45
  -9  -4   3  449.34   22.08
  -8  -4   3   46.30    5.18
  -8   4   3   44.69    4.36
  -8  -4   3   42.58    5.26
  -8  -4   3   36.73    3.97
  -7  -4   3  240.11   13.16
  -7  -4   3  213.32   11.64
  -7  -4   3  214.36   13.09
  -6  -4   3   32.29    4.41
  -6  -4   3   35.58    5.24
  -5  -4   3  344.00   18.79
  -5  -4   3  389.53   19.63
  -4  -4   3  317.69   16.71
  -4  -4   3  301.78   16.79
  -3  -4   3   60.82    5.95
  -3  -4   3   51.51    5.26
  -2  -4   3  691.86   32.58
  -2  -4   3  670.72   32.07
   1  -4  -3   24.64    4.79
  -1  -4   3   33.34    3.98
  -1  -4   3   36.14    4.89
   0  -4   3  641.19   29.87
   0  -4  -3  606.79   32.46
   0  -4   3  640.87   30.53
  -1  -4  -3  175.85   10.88
   1  -4   3  215.37   11.18
  -1  -4  -3  167.91   13.02
   1  -4   3  217.75   12.16
  -2  -4  -3  735.98   37.13
   2   4   3  827.70   37.89
   2  -4   3  821.59   36.95
  -2  -4  -3  751.86   40.01
   2  -4   3  900.32   38.27
  -3  -4  -3  519.87   26.05
   3  -4   3  550.70   25.28
   3   4   3  535.17   26.49
  -3  -4  -3  531.39   28.84
   4   4   3  507.83   25.18
  -4  -4  -3  522.70   27.69
  -4  -4  -3  480.56   24.68
  -5  -4  -3  338.85   18.62
   5   4   3  354.18   18.99
  -5   4  -3  365.08   18.33
  -6   4  -3    7.26    3.09
  -6  -4  -3    6.33    3.30
   6  -4   3   13.18    2.81
   6   4   3    8.29    2.96
  -7  -4  -3  350.00   19.79
   7   4   3  363.30   20.14
   7  -4   3  394.63   18.62
  -7   4  -3  402.13   19.62
  -7  -4  -3  356.52   21.86
  -8  -4  -3   90.01    7.51
  -8   4  -3   95.45    7.08
   8  -4   3   93.11    6.06
  -8  -4  -3   69.97    8.04
   8   4   3   80.14    7.18
  -9   4  -3  364.42   18.43
  -9  -4  -3  337.14   18.72
 -10   4  -3  153.88    9.77
 -10  -4  -3  148.13   10.06
 -11   4  -3  198.06   11.77
 -11  -4  -3  196.19   11.96
 -12   4  -3  318.87   16.73
 -12  -4  -3  314.02   16.91
 -13   4  -3   70.76    5.81
 -14  -4  -3  721.63   32.54
 -14   4  -3  674.35   32.03
 -15   4  -3   89.58    6.18
 -15  -4  -3  103.47    6.62
 -16   4  -3  263.59   13.06
 -17   4  -3  271.55   13.03
 -18   4  -3   37.05    2.71
 -15  -5   3  153.39    7.41
 -14  -5   3   16.01    1.90
 -13  -5   3  168.21    8.77
 -11  -5   3  194.93   10.43
 -10   5   3  233.21   12.00
 -10   5   3  206.85   11.59
  -9   5   3   13.03    2.58
  -9   5   3    9.66    2.22
  -8   5   3  226.68   12.73
  -8   5   3  258.38   12.99
  -7  -5   3   65.81    5.32
  -7   5   3   68.01    5.07
  -6   5   3  176.71    9.84
  -6  -5   3  175.85   10.16
  -5  -5   3   21.30    3.28
  -5   5   3   26.27    3.30
  -5  -5   3   23.94    4.07
  -4  -5   3  207.19   11.85
  -4  -5   3  186.38   10.83
  -3  -5   3  326.00   17.19
  -3  -5   3  316.07   16.15
  -2  -5   3  234.52   13.29
  -2  -5   3  213.65   11.73
  -1  -5   3  762.97   36.29
  -1  -5   3  873.35   37.87
   0  -5   3    8.69    2.12
   0  -5   3    6.01    3.24
   1  -5   3  311.44   16.45
  -2  -5  -3  226.46   12.53
   2  -5   3  233.46   13.44
   3  -5   3  100.56    7.33
  -3  -5  -3   89.42    6.53
  -3   5  -3  107.65    7.24
  -4   5  -3  521.73   23.84
   4  -5   3  492.14   22.92
   4  -5   3  450.60   23.64
  -5   5  -3    2.85    2.68
   5  -5   3    1.52    2.85
   5  -5   3   -0.80    1.75
   6  -5   3  419.18   21.10
  -6   5  -3  464.31   21.17
   6  -5   3  409.93   19.85
  -7   5  -3   24.89    3.53
   7  -5   3   22.05    3.64
   7  -5   3   17.12    2.26
  -8   5  -3  300.15   15.14
   8  -5   3  282.87   15.21
  -9   5  -3   45.51    4.30
   9  -5   3   35.88    4.29
 -10   5  -3   80.48    5.43
  10  -5   3   60.02    5.46
 -11  -5  -3  287.59   14.51
 -11   5  -3  303.83   14.55
 -12  -5  -3   14.96    2.19
 -12   5  -3    9.72    2.11
 -13   5  -3  170.77    8.59
 -13  -5  -3  174.10    8.72
 -14  -5  -3    1.68    0.95
 -14   5  -3    3.13    0.99
  -5  -6   3  164.54    7.95
  -4  -6   3   44.12    2.95
  -3  -6   3   25.09    2.20
  -2  -6   3  122.25    5.67
   2   6  -3   88.36    5.46
   1   6  -3   31.68    2.80
  -1   6   3   28.76    2.44
   0   6  -3  242.68   11.22
   0  -6   3  262.40   11.02
  -1   6  -3   17.32    2.05
   1   6   3   10.89    1.62
   1  -6   3   15.40    1.55
  -2   6  -3   94.36    4.94
   2   6   3   72.28    4.40
  -3   6  -3  134.59    6.97
 -26   0   4   56.21    3.35
 -25   0   4  160.48    8.28
 -24   0   4   -0.59    1.87
 -23   0   4  144.23    8.62
 -22   0   4   -3.04    2.76
 -21   0   4  326.45   16.95
 -20   0   4   66.14    5.86
 -19   0   4  167.75   10.19
 -19   0   4  141.99   12.08
 -19   0   4  152.33   11.17
 -18   0   4  684.30   34.65
 -18   0   4  650.66   32.63
 -18   0   4  697.14   30.98
 -18   0   4  599.57   29.43
 -17   0   4   22.70    4.39
 -17   0   4   28.41    4.17
 -17   0   4   26.90    3.96
 -17   0   4   32.19    5.73
 -17   0   4   23.56    3.09
 -16   0   4  348.04   18.13
 -16   0   4  367.21   18.33
 -16   0   4  348.12   21.08
 -16   0   4  327.80   19.55
 -15   0   4  186.33   13.47
 -15   0   4  180.88   10.79
 -15   0   4  188.06   11.07
 -15   0   4  188.38   12.28
 -14   0   4  562.25   27.93
 -14   0   4  615.96   28.34
 -14   0   4  601.23   29.69
 -14   0   4  594.80   30.96
 -13   0   4    8.64    2.54
 -13   0   4    6.70    2.61
 -13   0   4    4.99    3.60
 -13   0   4   13.41    3.45
 -12   0   4  215.41   13.71
 -12   0   4  213.13   12.66
 -11   0   4 1586.36   72.14
 -11   0   4 1667.94   73.42
 -10   0   4 1096.01   50.51
 -10   0   4 1089.69   49.45
  -9   0   4 1157.25   52.87
  -9   0   4 1155.55   51.88
  -8   0   4   64.55    5.90
  -8   0   4   69.05    5.19
  -7   0   4   91.84    6.93
  -7   0   4   87.43    6.09
  -6   0   4  441.34   21.73
  -6   0   4  441.45   20.77
  -5   0   4  230.03   12.44
  -4   0   4  309.98   15.35
  -4   0   4  315.12   15.79
  -3   0   4  260.70   13.57
  -3   0   4  275.87   13.94
  -3   0   4  272.21   13.46
  -2   0   4 3135.40  140.04
  -2   0   4 3285.54  139.70
  -2   0   4 3344.70  140.29
  -1   0   4  147.63    8.12
  -1   0   4  152.03    8.79
  -1   0   4  144.99    8.67
   0   0   4 2357.07  101.63
   1   0   4  862.13   38.34
   2   0   4  616.42   28.09
   3   0   4  944.50   42.08
   4   0   4   68.47    5.15
   5   0   4 1862.33   81.35
   6   0   4   71.80    5.58
   7   0   4 1836.70   80.83
   8   0   4  761.12   35.59
  -9   0  -4 1962.25   88.48
   9   0   4 1966.50   86.94
 -10   0  -4  527.28   27.79
 -11   0  -4  198.49   13.46
 -11   0  -4  184.67   10.40
 -12   0  -4  672.13   31.14
 -12   0  -4  661.16   34.49
 -13   0  -4  118.07    7.93
 -13   0  -4  121.56   10.60
  13   0   4  129.95    9.95
 -14   0  -4  635.76   31.51
 -14   0  -4  690.92   35.49
  14   0   4  724.88   34.32
  15   0   4   73.92    7.80
 -15   0  -4   86.66    6.83
 -15   0  -4   91.57    8.44
 -15   0  -4   91.36    9.38
 -16   0  -4  640.32   32.35
 -16   0  -4  619.98   33.98
  16   0   4  656.48   32.94
 -16   0  -4  625.45   30.36
 -17   0  -4  543.14   27.68
  17   0   4  546.29   28.33
 -17   0  -4  520.35   25.99
 -17   0  -4  508.15   29.16
 -18   0  -4  151.28   11.21
 -18   0  -4  154.66    9.89
 -19   0  -4  301.50   16.94
 -19   0  -4  290.66   15.75
 -20   0  -4    3.05    3.18
 -21   0  -4  337.94   17.55
 -22   0  -4   46.17    4.30
  23   0   4  173.60    9.30
  24   0   4  111.90    5.79
 -24   0  -4  100.80    5.41
 -25  -1   4   17.41    2.00
 -25   1   4   20.94    1.99
 -24   1   4  246.09   12.41
 -24  -1   4  261.07   12.48
 -23   1   4    5.24    2.09
 -23  -1   4    4.23    2.10
 -22  -1   4  292.92   14.94
 -22   1   4  321.21   15.77
 -22  -1   4  326.84   15.87
 -21  -1   4   25.33    3.73
 -21   1   4   36.14    4.04
 -21  -1   4   28.36    3.34
 -20  -1   4   91.23    6.49
 -20   1   4   94.50    6.98
 -20  -1   4  107.43    7.17
 -19  -1   4  453.52   22.04
 -19  -1   4  413.57   24.87
 -19   1   4  403.20   24.81
 -19  -1   4  451.57   21.57
 -19   1   4  447.93   22.05
 -18   1   4  297.76   15.73
 -18  -1   4  311.61   15.87
 -18  -1   4  286.22   18.56
 -18   1   4  280.21   18.44
 -18   1   4  283.87   15.19
 -18   1   4  272.36   16.99
 -18  -1   4  306.45   17.55
 -17   1   4  528.07   24.96
 -17   1   4  532.38   28.44
 -17  -1   4  473.83   27.76
 -17   1   4  502.77   24.54
 -17   1   4  500.81   26.44
 -17  -1   4  509.62   26.63
 -17  -1   4  501.26   24.82
 -16   1   4   42.41    6.19
 -16  -1   4   35.38    5.70
 -16  -1   4   35.51    5.13
 -16   1   4   30.89    4.17
 -16   1   4   37.71    4.27
 -16   1   4   30.97    4.82
 -16  -1   4   38.93    4.42
 -15  -1   4  548.54   27.92
 -15   1   4  593.66   31.27
 -15   1   4  606.96   28.00
 -15   1   4  639.42   28.38
 -15   1   4  635.29   30.11
 -15  -1   4  544.52   29.45
 -15  -1   4  580.81   31.11
 -15   1   4  580.94   28.14
 -14   1   4  103.10    7.36
 -14  -1   4  110.24    7.48
 -14   1   4  108.18    9.67
 -14   1   4  126.91    7.77
 -14  -1   4  119.67    9.90
 -14  -1   4  124.18    8.32
 -14   1   4  118.12    7.44
 -14   1   4  109.30    8.55
 -14  -1   4  100.27    8.48
 -13   1   4  463.61   22.91
 -13  -1   4  458.21   22.73
 -13   1   4  493.41   25.72
 -13  -1   4  518.31   23.67
 -13  -1   4  489.01   25.49
 -13   1   4  469.57   22.79
 -13   1   4  485.48   23.01
 -13   1   4  473.27   24.40
 -13  -1   4  452.24   24.07
 -12  -1   4  198.26   11.20
 -12   1   4  211.01   13.73
 -12  -1   4  232.41   12.07
 -12  -1   4  208.36   13.57
 -12   1   4  209.65   11.38
 -12   1   4  201.60   12.46
 -12  -1   4  189.03   12.33
 -12   1   4  221.85   11.50
 -11   1   4   31.19    4.10
 -11  -1   4   27.08    3.93
 -11  -1   4   26.99    4.51
 -11   1   4   29.04    4.90
 -10   1   4 1336.83   61.47
 -10  -1   4 1385.01   61.43
 -10   1   4 1367.09   60.58
 -10  -1   4 1318.64   60.31
  -9  -1   4  159.72   10.36
  -9   1   4  156.58   10.24
  -9   1   4  153.61    9.44
  -9  -1   4  159.02    9.47
  -8  -1   4  954.78   44.08
  -8   1   4  966.93   44.19
  -8   1   4  967.92   43.33
  -8  -1   4  947.93   43.22
  -7   1   4  670.32   31.57
  -7  -1   4  671.97   31.64
  -7   1   4  654.64   30.73
  -7  -1   4  685.41   30.83
  -6   1   4 2687.02  114.36
  -6  -1   4 2754.37  114.33
   6  -1  -4 2557.35  112.41
  -5   1   4  452.86   21.94
  -5  -1   4  456.06   21.96
  -4  -1   4  614.84   29.32
  -4   1   4  650.69   29.44
  -3   1   4 1582.94   65.19
  -3   1   4 1435.76   65.48
  -3  -1   4 1454.76   65.05
  -3  -1   4 1472.79   65.58
  -2  -1   4    3.93    2.73
  -2   1   4    0.90    2.61
  -2  -1   4    5.45    2.72
  -2   1   4    1.10    2.16
  -2  -1   4    5.04    2.28
  -2   1   4   -1.77    2.70
  -1   1   4 1494.35   66.18
  -1  -1   4 1429.10   66.06
  -1   1   4 1490.07   64.75
  -1   1   4 1552.23   65.69
  -1  -1   4 1564.55   65.66
   0   1   4  579.27   24.94
   0   1   4  554.04   24.18
   0  -1   4  500.08   25.19
   0   1   4  528.51   25.46
   0  -1   4  539.10   24.76
   1   1   4 2168.67   92.65
   1  -1   4 2103.85   92.59
   1   1   4 2150.74   92.09
   2   1   4  161.19    8.33
   2  -1   4  154.81    8.69
   2   1   4  161.04    8.85
  -3   1  -4  287.44   14.66
   3  -1   4  291.34   14.23
   3   1   4  278.06   13.78
   3   1   4  285.53   14.17
   4   1   4 1144.53   52.56
   4  -1   4 1232.54   52.74
  -4   1  -4 1215.72   53.41
   4   1   4 1179.40   52.36
   5   1   4   30.90    3.33
   5   1   4   31.38    3.70
  -5   1  -4   30.87    4.27
   5  -1   4   24.38    3.55
   6  -1   4 1672.44   75.29
   6   1   4 1701.68   75.33
  -6   1  -4 1780.99   76.27
  -7   1  -4  369.23   19.56
   7   1   4  372.44   18.77
   7  -1   4  365.85   18.59
   8   1   4  836.90   39.12
   8   1   4  868.35   39.84
   8  -1   4  862.58   39.76
  -8   1  -4  879.66   40.83
   9  -1   4  745.06   35.43
   9   1   4  719.78   34.76
   9   1   4  772.53   35.72
  -9   1  -4  785.82   36.83
 -10  -1  -4  469.54   21.85
 -10   1  -4  438.05   21.45
  10   1   4  455.27   22.22
  10   1   4  449.02   23.14
  10  -1   4  431.02   22.76
 -10   1  -4  434.93   23.95
 -11   1  -4  486.64   24.01
  11   1   4  497.31   24.79
  11   1   4  537.28   26.04
  11  -1   4  515.09   25.84
 -11   1  -4  514.15   27.01
 -11  -1  -4  496.38   24.25
  12   1   4   16.32    3.34
 -12  -1  -4   16.45    3.18
 -12   1  -4   16.48    3.24
  12  -1   4   18.15    4.20
 -12   1  -4   12.15    4.43
  12   1   4   16.88    4.09
 -13  -1  -4 1081.77   51.29
  13   1   4 1222.18   53.98
  13  -1   4 1166.74   53.45
 -13  -1  -4 1109.61   54.94
 -13   1  -4 1129.38   51.31
 -13   1  -4 1154.44   54.70
  14   1   4    3.95    3.55
 -14   1  -4    6.15    2.96
  14  -1   4    2.73    3.51
 -14  -1  -4    7.64    4.13
 -14   1  -4   11.39    4.37
 -14   1  -4    8.14    4.61
 -14  -1  -4    3.67    4.36
 -14  -1  -4    6.34    3.11
 -15  -1  -4  141.91   10.31
 -15   1  -4  125.81    8.73
 -15   1  -4  130.33   10.13
  15   1   4  133.66   10.66
  15  -1   4  122.55   10.28
 -15  -1  -4  144.79   11.86
 -16  -1  -4  155.19   13.05
 -16   1  -4  170.01   10.45
 -16  -1  -4  177.26   11.96
 -16   1  -4  170.65   11.80
  16   1   4  181.51   12.48
  16  -1   4  147.36   11.75
 -17  -1  -4  206.03   12.74
 -17   1  -4  216.64   12.99
 -17  -1  -4  198.99   14.25
  17   1   4  187.79   13.20
  17  -1   4  172.27   12.73
 -17  -1  -4  163.68   10.17
 -17   1  -4  185.05   11.18
 -18   1  -4  280.77   15.24
 -18   1  -4  284.10   16.37
 -18  -1  -4  285.98   16.34
 -19  -1  -4   72.14    6.63
 -19   1  -4   65.99    5.65
 -19   1  -4   69.22    6.55
 -20   1  -4  310.04   15.96
 -20  -1  -4  317.77   16.78
 -20   1  -4  317.45   16.83
 -21   1  -4    0.21    2.18
 -21  -1  -4    1.93    2.31
 -21   1  -4   -1.92    2.41
  22  -1   4  134.06    8.01
  22   1   4  142.19    8.10
 -23   1  -4   50.59    3.29
 -23  -1  -4   46.85    3.24
  23   1   4   50.32    3.62
  23  -1   4   42.23    3.54
 -24  -2   4    1.49    1.12
 -23  -2   4  161.05    8.22
 -22  -2   4   23.88    2.58
 -22  -2   4   25.45    2.84
 -21  -2   4  326.83   15.72
 -21  -2   4  339.03   16.11
 -21   2   4  308.25   15.61
 -20  -2   4   55.73    4.52
 -20  -2   4   55.33    4.86
 -20   2   4   55.53    4.51
 -19  -2   4   89.14    6.46
 -19  -2   4   99.41    6.36
 -18   2   4  347.76   17.35
 -18  -2   4  337.64   17.69
 -18  -2   4  343.88   17.35
 -17  -2   4   30.00    3.67
 -17   2   4   18.76    3.26
 -17  -2   4   23.30    4.51
 -17  -2   4   33.35    4.26
 -16  -2   4  276.26   14.34
 -16   2   4  276.07   16.98
 -16  -2   4  281.44   17.06
 -16   2   4  233.16   15.14
 -16  -2   4  285.22   14.83
 -16   2   4  273.48   14.56
 -16   2   4  264.33   14.21
 -15  -2   4  240.85   14.53
 -15   2   4  262.51   13.49
 -15   2   4  205.84   15.31
 -15  -2   4  233.86   15.79
 -15   2   4  246.18   14.53
 -15   2   4  274.95   13.97
 -15  -2   4  257.35   13.41
 -14  -2   4 1229.10   56.60
 -14   2   4 1302.77   60.16
 -14  -2   4 1244.41   59.72
 -14   2   4 1247.16   56.99
 -14   2   4 1358.95   57.58
 -14  -2   4 1325.17   58.70
 -14  -2   4 1301.69   57.05
 -14   2   4 1258.74   58.46
 -13  -2   4  230.07   12.01
 -13   2   4  242.18   12.61
 -13  -2   4  215.84   14.19
 -13  -2   4  210.21   11.87
 -13   2   4  225.66   12.06
 -13   2   4  227.29   13.25
 -13  -2   4  224.47   13.17
 -13   2   4  212.79   14.27
 -12  -2   4  451.81   22.95
 -12   2   4  459.54   20.99
 -12   2   4  451.88   23.05
 -12   2   4  416.43   21.44
 -12  -2   4  398.25   21.26
 -12  -2   4  391.57   20.27
 -12   2   4  419.81   20.33
 -11  -2   4  603.16   28.30
 -11   2   4  611.81   30.37
 -11  -2   4  635.48   30.35
 -11   2   4  626.56   28.25
 -11   2   4  584.11   27.95
 -10  -2   4   16.94    2.66
 -10   2   4   25.41    4.12
 -10  -2   4   19.93    3.58
  -9   2   4  712.74   33.47
  -9  -2   4  672.40   33.05
  -9  -2   4  701.56   31.97
  -8  -2   4    5.65    2.30
  -8   2   4    0.72    2.50
  -8  -2   4    1.36    2.41
   7  -2  -4 1501.62   69.91
  -7  -2   4 1527.92   70.89
  -7   2   4 1585.22   71.22
   6  -2  -4  467.21   22.94
  -6  -2   4  512.66   22.81
  -6  -2   4  493.69   23.50
  -6   2   4  479.31   23.63
  -5  -2   4  951.91   42.74
  -5  -2   4  916.55   43.27
  -5   2   4 1030.92   43.77
   5  -2  -4  971.95   43.33
  -4  -2   4 2618.84  118.02
  -4   2   4 2813.69  118.29
   4  -2  -4 2685.81  118.22
  -4  -2   4 2787.28  117.52
   3  -2  -4   26.91    3.47
  -3  -2   4   31.49    3.13
  -3   2   4   27.94    2.01
  -2   2   4 1312.44   56.44
   2  -2  -4 1285.73   58.05
  -1   2   4   10.69    2.37
  -1   2   4   14.26    1.95
  -1  -2   4   12.63    2.48
   0   2   4  328.95   15.44
   0  -2   4  331.00   16.11
   0   2   4  330.74   16.04
   0   2   4  312.62   15.73
   0  -2   4  326.73   15.82
   1  -2   4  490.08   22.13
   1   2   4  462.70   22.02
   1   2   4  480.32   21.67
   1  -2   4  432.31   21.41
   1   2   4  458.37   21.43
   2   2   4  673.59   29.94
   2  -2   4  631.71   30.25
   2   2   4  640.03   30.37
   2   2   4  720.69   30.04
   2  -2   4  620.09   29.71
   3   2   4  869.27   37.09
   3  -2   4  788.01   36.87
   3   2   4  817.16   37.16
   4   2   4   65.06    4.75
   4  -2   4   59.94    4.65
   4   2   4   57.96    4.87
   5   2   4 1477.73   65.47
   5   2   4 1512.79   65.25
   5  -2   4 1450.94   65.12
   6   2   4  351.38   18.29
   6  -2   4  370.62   18.14
   6   2   4  374.13   18.16
   7   2   4   84.05    6.22
   7  -2   4   88.22    6.48
   7   2   4   95.45    6.82
   8   2   4  103.79    7.72
  -8   2  -4  114.65    7.44
   8  -2   4  112.33    7.72
   8  -2   4  116.17    6.89
   8   2   4  124.98    8.07
  -9   2  -4  483.32   23.48
   9   2   4  503.54   24.27
   9  -2   4  499.04   24.14
   9  -2   4  468.87   22.59
 -10   2  -4  256.30   13.93
  10   2   4  265.15   14.74
  10  -2   4  241.90   14.29
 -11   2  -4  151.22    9.40
  11   2   4  156.24   10.29
  11  -2   4  125.04    9.64
  11   2   4  154.88   10.05
  12   2   4  334.55   18.04
 -12  -2  -4  311.82   17.86
 -12   2  -4  333.37   17.82
 -12   2  -4  346.15   17.36
  12   2   4  336.77   18.46
  12  -2   4  299.85   17.97
 -12  -2  -4  309.31   20.29
 -12  -2  -4  351.82   19.06
 -13   2  -4    9.53    3.15
  13   2   4   12.00    3.35
 -13  -2  -4    7.81    3.35
 -13  -2  -4   11.23    3.73
 -13   2  -4    3.19    3.18
  13  -2   4   12.15    3.49
 -13  -2  -4   13.37    4.66
  13   2   4    6.27    3.26
  14   2   4  398.16   20.13
 -14   2  -4  389.65   19.10
 -14  -2  -4  342.50   19.64
 -14   2  -4  379.23   19.66
  14   2   4  364.82   20.49
 -14  -2  -4  338.04   21.77
 -14  -2  -4  351.34   20.32
 -15  -2  -4   16.06    3.69
 -15  -2  -4   15.87    4.73
 -15  -2  -4   15.55    4.02
 -15   2  -4   19.55    3.99
  15   2   4   13.48    3.66
 -15   2  -4   17.79    3.68
 -16  -2  -4  162.75    9.94
 -16   2  -4  163.73    9.91
 -16  -2  -4  174.28   10.75
 -16   2  -4  139.49   10.09
 -17  -2  -4   28.40    3.77
 -17   2  -4   24.06    3.95
 -17  -2  -4   31.76    4.36
 -17   2  -4   29.86    3.99
 -18  -2  -4   80.88    6.62
 -18  -2  -4   80.72    5.74
 -18   2  -4   95.74    6.45
 -18   2  -4   85.40    6.49
  19  -2   4   48.10    4.60
 -19   2  -4   75.54    5.17
 -19  -2  -4   55.22    5.02
  19   2   4   64.99    5.14
  20   2   4   41.80    3.81
 -20   2  -4   38.69    3.73
 -21   2  -4  272.53   13.18
 -22   2  -4    3.12    1.29
 -21  -3   4    9.87    1.59
 -20  -3   4   77.97    4.99
 -20  -3   4   77.68    5.32
 -19  -3   4  205.13   10.89
 -19  -3   4  212.96   11.33
 -18  -3   4    6.95    2.38
 -18  -3   4   10.26    2.97
 -17  -3   4  211.73   11.99
 -16   3   4    6.69    2.43
 -16  -3   4    3.31    2.04
 -16  -3   4    3.79    3.01
 -15  -3   4  213.39   11.76
 -15   3   4  183.02   11.10
 -15  -3   4  191.64   10.88
 -14  -3   4  236.63   12.87
 -14   3   4  222.18   12.20
 -14  -3   4  247.19   13.46
 -14   3   4  242.81   13.11
 -13  -3   4  207.05   11.96
 -13   3   4  206.71   11.55
 -13  -3   4  219.26   12.47
 -13   3   4  225.12   12.29
 -12  -3   4   23.47    3.38
 -12   3   4   18.34    2.99
 -12  -3   4   15.48    3.32
 -12   3   4   16.75    3.45
 -11   3   4    7.56    2.33
 -11  -3   4    6.86    2.73
 -11  -3   4    1.60    2.54
 -10  -3   4  338.10   17.28
 -10  -3   4  341.05   16.88
 -10   3   4  312.03   16.23
 -10  -3   4  334.21   17.07
  -9  -3   4    2.92    2.47
  -9  -3   4    6.52    2.40
  -9   3   4    4.24    1.90
  -9  -3   4    6.06    3.21
  -9  -3   4    4.72    2.67
  -8  -3   4  724.81   30.66
  -8  -3   4  640.68   30.29
  -8   3   4  599.66   29.10
  -8  -3   4  637.94   29.89
  -8  -3   4  627.65   29.67
  -7  -3   4   54.17    4.69
  -7  -3   4   58.62    5.67
  -7  -3   4   57.97    4.85
  -6  -3   4  168.67    9.95
  -6  -3   4  189.70   10.66
   6  -3  -4  178.99   11.02
  -6  -3   4  188.20   10.21
   5  -3  -4  138.57    9.77
  -5  -3   4  163.42    9.47
  -5  -3   4  159.93    9.46
  -5  -3   4  150.61    8.82
  -5   3   4  148.51    9.93
  -5  -3   4  170.08    9.11
  -4  -3   4   79.59    5.40
  -4  -3   4   74.56    5.29
  -4   3   4   72.07    6.19
   4  -3  -4   67.21    6.28
  -4  -3   4   70.78    5.94
  -4  -3   4   70.70    5.56
  -3  -3   4  797.06   37.51
  -3   3   4  844.70   38.30
  -3  -3   4  844.54   37.25
  -3  -3   4  833.51   37.04
   3  -3  -4  763.49   38.65
   2  -3  -4   73.81    6.72
  -2  -3   4   75.14    5.67
  -2   3   4   74.86    6.14
  -2  -3   4   74.96    5.37
  -2  -3   4   75.06    5.15
  -1  -3   4  165.40    9.55
  -1   3   4  165.21    9.05
   1  -3  -4  179.13   11.28
  -1   3   4  168.02   10.09
   0   3   4  342.96   16.75
   0  -3  -4  328.94   18.74
   0  -3   4  365.02   17.05
   0   3   4  320.81   17.37
   1   3   4  260.01   13.64
   1  -3   4  271.07   13.59
   1   3   4  260.14   14.26
  -1  -3  -4  259.62   15.70
   2   3   4   23.71    3.16
   2   3   4   22.64    3.56
   2  -3   4   26.59    3.18
  -2  -3  -4   29.63    4.93
   3  -3   4   44.25    3.88
   3   3   4   44.39    4.40
  -3  -3  -4   36.76    5.40
   4   3   4  307.41   16.41
  -4   3  -4  327.09   15.82
  -4  -3  -4  289.53   18.27
   5   3   4   81.61    6.54
  -5   3  -4   89.20    6.14
  -5  -3  -4   80.21    8.18
  -6   3  -4  231.15   12.02
   6  -3   4  205.42   11.54
   6   3   4  209.32   12.53
   7   3   4   59.34    5.58
  -7   3  -4   49.90    4.87
   7  -3   4   47.14    4.39
  -8   3  -4   51.84    4.96
  -8  -3  -4   34.89    5.66
   8  -3   4   41.74    4.12
   8   3   4   46.71    5.14
  -9  -3  -4  149.29    9.98
  -9   3  -4  150.25    9.35
   9  -3   4  128.34    8.20
   9   3   4  144.76    9.86
  -9  -3  -4  149.95   11.47
 -10  -3  -4  656.38   31.53
  10   3   4  660.30   31.68
 -10   3  -4  626.45   30.67
 -10  -3  -4  627.61   33.12
  11   3   4  185.54   11.53
 -11   3  -4  173.58   10.88
 -11  -3  -4  157.39   12.83
 -11  -3  -4  169.83   12.49
  12   3   4    5.81    2.76
 -12  -3  -4    6.51    3.72
 -12  -3  -4   11.89    4.18
 -12   3  -4    2.74    2.99
 -12  -3  -4   11.08    3.71
 -13  -3  -4  166.80   11.05
 -13   3  -4  182.07   10.74
 -14  -3  -4   18.32    3.93
 -14   3  -4   22.61    3.69
 -15  -3  -4   51.65    5.25
 -15   3  -4   44.76    4.72
 -16  -3  -4    1.72    2.48
 -16   3  -4    1.02    2.50
 -17  -3  -4  108.00    6.61
 -17   3  -4   88.65    6.30
 -18   3  -4   47.12    4.00
 -18  -3  -4   48.24    3.80
 -19   3  -4    9.98    1.98
 -20   3  -4   87.18    4.96
 -19  -4   4    1.05    1.04
 -18  -4   4  289.66   13.74
 -17  -4   4   29.26    2.98
 -16  -4   4   -0.17    1.65
 -16  -4   4   -0.20    2.00
 -15   4   4    6.76    2.10
 -15  -4   4   10.83    2.38
 -15  -4   4   11.77    2.48
 -14  -4   4    3.25    2.26
 -14   4   4    2.75    2.11
 -14  -4   4    8.14    2.42
 -13  -4   4    8.76    2.64
 -13   4   4   11.84    2.86
 -13  -4   4    9.65    2.76
 -12  -4   4   -0.93    2.38
 -12   4   4   -0.28    2.20
 -12   4   4   -2.29    2.36
 -12  -4   4   -2.42    2.50
 -11  -4   4   30.36    4.12
 -11   4   4   22.19    3.27
 -11   4   4   20.42    3.49
 -11  -4   4   28.68    3.65
 -10   4   4   33.13    3.70
 -10  -4   4   37.34    3.94
  -9   4   4    4.50    2.23
  -9  -4   4    1.34    2.16
  -8  -4   4    2.52    3.18
  -8   4   4    6.32    2.41
  -8  -4   4    1.83    2.12
  -7  -4   4   11.52    3.32
  -7   4   4   11.31    2.81
  -7  -4   4    7.56    2.37
  -6  -4   4    1.44    2.83
  -6  -4   4    2.18    2.02
  -5  -4   4   19.10    3.77
  -5  -4   4   21.39    4.57
  -4  -4   4   54.02    5.30
  -4  -4   4   49.30    5.71
  -3  -4   4    1.34    2.76
  -3  -4   4    2.89    3.34
  -2  -4   4   17.83    4.13
  -2  -4   4   21.33    3.52
   2  -4  -4   17.55    4.06
  -1  -4   4    5.11    3.47
  -1  -4   4    6.54    2.85
   1  -4  -4    9.43    3.67
   0  -4   4   81.59    6.87
   0  -4   4   73.44    5.89
   0  -4  -4   76.43    7.80
  -1  -4  -4   -1.51    2.25
   1  -4   4    0.73    3.27
   1  -4   4   -0.57    2.20
  -1  -4  -4    0.63    3.33
  -2  -4  -4  159.77    9.97
   2  -4   4  165.38    9.60
  -2  -4  -4  171.47   12.53
   2  -4   4  156.45   10.43
  -3   4  -4  108.89    7.58
  -3  -4  -4  110.64   10.13
  -3  -4  -4  100.32    7.75
  -4  -4  -4   77.02    6.50
   4   4   4   69.60    6.00
  -4   4  -4   80.75    6.29
  -5   4  -4   89.62    6.96
   5   4   4   85.15    7.08
  -5  -4  -4   89.76    7.53
   5  -4   4   92.72    6.61
  -5  -4  -4   93.58    9.41
  -6  -4  -4   39.17    5.21
  -6   4  -4   35.30    4.73
   6  -4   4   41.23    4.29
   6   4   4   49.54    5.16
  -7  -4  -4  108.89    8.26
   7   4   4   91.00    7.67
   7  -4   4  118.72    7.19
  -7  -4  -4   94.21    9.52
  -7   4  -4  107.34    7.75
  -8  -4  -4   41.57    5.19
  -8   4  -4   37.78    4.68
   8  -4   4   38.21    3.92
  -9   4  -4   93.09    7.07
  -9  -4  -4   85.89    7.23
   9  -4   4   83.37    5.75
 -10  -4  -4   29.99    4.53
 -10   4  -4   33.36    4.63
 -11  -4  -4   18.14    3.84
 -11   4  -4   18.85    3.76
 -12  -4  -4   42.27    4.75
 -12   4  -4   44.96    4.65
 -13   4  -4    1.26    2.27
 -14   4  -4  221.63   11.67
 -15   4  -4   35.56    3.46
 -15  -4  -4   38.64    3.72
 -16   4  -4   -0.45    1.63
 -17   4  -4   46.51    3.22
 -14  -5   4   23.77    2.09
 -13  -5   4   12.93    1.99
 -12   5   4    9.43    1.50
 -11   5   4    0.14    1.33
 -10  -5   4   -0.64    1.98
 -10   5   4   -0.50    1.67
  -9  -5   4   16.29    2.77
  -9   5   4   13.55    2.42
  -8  -5   4   14.74    2.85
  -7  -5   4    2.50    2.11
  -7   5   4   -1.47    2.14
  -6  -5   4  200.96   10.45
  -6   5   4  170.71    9.68
  -5   5   4   50.24    4.31
  -5  -5   4   64.56    5.62
  -5  -5   4   55.38    4.78
  -4   5   4   -0.21    2.03
  -4  -5   4   -2.22    3.07
  -4  -5   4    5.52    2.34
  -3  -5   4    8.50    2.53
  -3  -5   4    6.30    3.31
  -2   5   4   34.30    3.67
  -2  -5   4   43.66    5.16
  -2  -5   4   37.61    3.76
  -1  -5   4   10.97    3.51
   0  -5   4   22.80    3.81
   0   5  -4   26.20    3.65
  -1   5  -4   -0.80    2.58
   1  -5   4    5.58    2.96
  -2   5  -4   52.34    4.77
   2  -5   4   40.45    4.75
   2  -5   4   44.73    4.23
  -3   5  -4   -1.08    2.67
   3  -5   4   -0.91    2.75
   3  -5   4    0.23    2.10
  -4   5  -4   -1.08    2.74
   4  -5   4    4.43    2.86
   4  -5   4    2.94    2.15
  -5   5  -4    1.32    2.51
   5  -5   4    3.27    1.91
   5  -5   4    3.73    2.73
   6  -5   4    6.11    2.85
   6  -5   4    6.11    1.88
   7  -5   4   -0.14    1.39
   7  -5   4    0.53    2.46
  -8   5  -4    4.29    2.53
   8  -5   4    6.14    2.56
  -9   5  -4    0.64    2.14
   9  -5   4   -1.71    2.37
 -10   5  -4   16.36    2.59
  10  -5   4   12.95    2.64
 -11  -5  -4    8.48    1.89
 -11   5  -4   12.01    2.05
 -12  -5  -4   29.61    2.66
 -12   5  -4   36.70    2.73
 -13  -5  -4    3.34    1.04
  -4  -6   4   24.50    1.94
  -3  -6   4   -0.26    0.89
  -2  -6   4   48.22    3.01
  -1  -6   4   10.84    1.35
 -25   0   5    0.13    1.25
 -24   0   5    3.42    1.80
 -23   0   5   -1.13    2.10
 -22   0   5   -1.60    2.29
 -21   0   5    1.79    2.60
 -20   0   5    1.29    2.59
 -19   0   5    1.02    2.83
 -19   0   5   -2.95    3.75
 -18   0   5   -0.74    3.67
 -18   0   5   -1.11    2.72
 -18   0   5   -2.88    3.18
 -18   0   5   -0.69    2.69
 -17   0   5   -1.47    4.09
 -17   0   5    1.10    3.01
 -17   0   5    1.47    2.87
 -17   0   5    2.74    2.68
 -16   0   5    0.73    2.96
 -16   0   5    2.00    2.70
 -16   0   5    0.53    3.13
 -16   0   5   -0.89    1.75
 -16   0   5   -0.71    3.74
 -15   0   5   -4.08    4.86
 -15   0   5   -2.81    3.15
 -15   0   5    0.98    2.01
 -15   0   5    1.02    2.59
 -15   0   5    0.32    2.34
 -15   0   5   -0.66    1.83
 -14   0   5   -3.19    3.35
 -14   0   5    0.74    1.83
 -14   0   5   -0.96    2.74
 -14   0   5    1.67    2.43
 -14   0   5    1.21    2.41
 -14   0   5    0.43    1.54
 -13   0   5   -0.60    3.49
 -13   0   5    0.49    1.99
 -13   0   5    0.31    2.51
 -13   0   5    0.21    1.50
 -13   0   5   -0.45    2.68
 -13   0   5   -0.28    2.19
 -12   0   5   -0.82    2.50
 -12   0   5    2.09    2.17
 -12   0   5    2.20    3.26
 -12   0   5    0.29    2.34
 -11   0   5   -0.38    2.47
 -11   0   5    2.02    3.49
 -10   0   5   -0.46    3.50
 -10   0   5   -1.03    2.48
  -9   0   5   -0.43    3.02
  -9   0   5    0.63    2.31
  -8   0   5    0.39    3.12
  -8   0   5    1.16    2.23
  -7   0   5   -0.36    3.15
  -6   0   5    2.04    3.19
  -5   0   5   -0.32    3.14
  -4   0   5    1.47    2.52
  -4   0   5    0.31    2.98
  -3   0   5   -1.13    3.07
  -3   0   5    1.51    3.05
  -3   0   5    0.23    2.67
  -2   0   5   -3.28    3.31
  -2   0   5    1.16    3.03
  -2   0   5   -0.46    2.57
  -1   0   5   -0.23    2.70
  -1   0   5   -0.29    2.83
   0   0   5    0.29    2.96
   0   0   5    2.01    2.56
   1   0   5   -1.38    2.48
   2   0   5    3.58    2.45
   3   0   5   -0.25    2.50
   4   0   5    0.27    2.73
   5   0   5    0.85    2.44
   6   0   5   -1.56    2.95
   7   0   5    1.03    2.84
   8   0   5   -2.26    2.91
   9   0   5    2.49    2.96
  -9   0  -5    2.84    4.10
 -10   0  -5    0.49    2.14
 -10   0  -5   -1.82    4.33
  10   0   5   -0.45    3.08
 -11   0  -5   -2.91    2.07
  11   0   5    0.49    3.43
 -11   0  -5   -1.92    4.38
 -12   0  -5    1.14    2.29
 -12   0  -5   -2.05    4.18
  12   0   5    2.12    3.66
 -13   0  -5    1.22    2.53
  13   0   5    0.56    3.50
 -13   0  -5   -2.86    4.43
 -14   0  -5    0.96    2.54
  14   0   5    2.36    3.85
 -14   0  -5    2.97    4.40
 -15   0  -5   -2.66    2.93
  15   0   5   -0.60    3.35
 -15   0  -5    3.77    4.30
  16   0   5    1.21    3.57
 -16   0  -5    1.00    2.84
 -16   0  -5   -1.02    4.24
 -16   0  -5    2.23    4.29
 -17   0  -5    0.66    2.91
 -17   0  -5    1.46    4.14
 -18   0  -5    4.32    3.05
 -18   0  -5    2.66    3.59
 -19   0  -5    2.36    3.03
 -20   0  -5    0.66    2.71
 -21   0  -5   -2.92    2.35
  21   0   5   -0.25    2.65
  22   0   5   -2.55    2.30
  23   0   5   -0.52    1.48
 -25   1   5   30.22    2.32
 -25  -1   5   32.34    2.34
 -24   1   5    7.31    1.76
 -24  -1   5    4.12    1.59
 -23   1   5   20.94    2.83
 -23  -1   5   23.74    2.84
 -22  -1   5   49.52    4.28
 -22   1   5   40.40    3.97
 -21   1   5    0.55    2.34
 -21  -1   5    4.13    2.28
 -21  -1   5    1.97    1.80
 -20   1   5   19.31    3.46
 -20  -1   5   27.88    3.84
 -20  -1   5   19.96    2.95
 -19   1   5    3.87    2.69
 -19  -1   5    2.57    2.57
 -19  -1   5    1.54    2.11
 -18   1   5   16.72    4.59
 -18  -1   5   13.60    4.71
 -18   1   5   12.29    3.06
 -18  -1   5   14.83    3.00
 -18   1   5   21.37    4.12
 -18  -1   5    8.47    3.46
 -18   1   5   10.05    3.20
 -18  -1   5   10.28    3.14
 -17  -1   5   70.77    8.33
 -17   1   5   84.08    6.31
 -17   1   5   76.82    8.65
 -17  -1   5   78.57    5.97
 -17   1   5   70.01    7.26
 -17  -1   5   71.45    7.18
 -17   1   5   78.94    6.45
 -17  -1   5   81.82    6.44
 -16   1   5   27.32    5.64
 -16  -1   5   23.73    5.33
 -16   1   5   21.70    3.66
 -16  -1   5   25.43    3.70
 -16  -1   5   20.36    3.40
 -16   1   5   25.46    4.35
 -16  -1   5   24.34    4.39
 -16   1   5   30.42    3.97
 -15   1   5   86.16    8.82
 -15   1   5   79.98    6.32
 -15  -1   5   87.25    7.11
 -15  -1   5   71.74    8.26
 -15  -1   5   79.72    6.07
 -15   1   5   67.12    6.99
 -15  -1   5   62.17    6.68
 -15   1   5   80.23    6.22
 -15   1   5   86.28    6.40
 -15  -1   5   84.28    6.33
 -14   1   5   23.69    5.00
 -14  -1   5   19.68    4.90
 -14  -1   5   21.43    4.01
 -14   1   5   21.58    3.49
 -14  -1   5   16.98    3.20
 -14  -1   5   19.67    3.17
 -14   1   5   23.87    4.17
 -14  -1   5   16.48    3.73
 -14   1   5   24.37    3.72
 -13   1   5   28.76    3.69
 -13   1   5   33.44    5.60
 -13  -1   5   34.41    4.74
 -13   1   5   36.48    4.05
 -13  -1   5   28.54    5.28
 -13  -1   5   37.04    3.81
 -13   1   5   35.17    4.71
 -13  -1   5   38.94    4.04
 -12  -1   5  110.62    7.56
 -12   1   5  125.77    9.90
 -12   1   5  122.41    7.59
 -12  -1   5  104.90    7.15
 -12   1   5  129.68    8.79
 -12  -1   5  113.57    8.52
 -12   1   5  120.37    7.46
 -12  -1   5  116.30    7.37
 -11   1   5    4.24    3.22
 -11  -1   5    2.65    2.28
 -11  -1   5    4.61    3.69
 -11   1   5    3.10    2.23
 -11  -1   5    5.35    2.57
 -11   1   5    4.70    2.36
 -11  -1   5    6.73    2.11
 -11   1   5    8.19    3.01
 -11  -1   5    1.52    2.63
 -11   1   5    4.03    2.04
 -11  -1   5    2.94    2.19
 -10   1   5   51.05    5.82
 -10  -1   5   42.14    5.75
 -10   1   5   50.06    5.01
 -10  -1   5   53.22    5.12
  -9   1   5  116.66    8.80
  -9  -1   5  113.98    8.90
  -8   1   5   33.19    4.64
  -8  -1   5   43.51    5.15
  -7   1   5   12.87    3.41
  -7  -1   5   17.42    3.83
  -6   1   5   69.11    6.18
  -6  -1   5   77.39    6.53
  -5   1   5   28.58    4.07
  -5  -1   5   22.37    4.03
  -4   1   5  134.40    8.68
  -4  -1   5  127.98    8.69
  -3  -1   5  659.39   30.94
  -3   1   5  682.91   30.35
  -3  -1   5  629.46   30.23
  -3   1   5  636.83   30.75
  -2  -1   5  402.43   20.81
  -2   1   5  413.20   21.05
  -2   1   5  445.80   20.77
  -2  -1   5  438.95   20.55
  -1  -1   5   48.66    5.42
  -1   1   5   53.49    5.42
  -1   1   5   54.84    4.65
  -1  -1   5   49.80    4.44
   0  -1   5  461.75   23.80
   0   1   5  481.19   24.02
   0   1   5  527.33   23.47
   0  -1   5  490.34   23.21
   1   1   5    3.08    2.50
   1  -1   5    2.11    2.23
   2   1   5  197.45   10.14
   2   1   5  204.83   10.96
   2  -1   5  194.71   10.81
   3   1   5  223.14   12.77
   3  -1   5  249.33   12.94
   3   1   5  253.24   12.29
   4   1   5   63.78    4.76
  -4   1  -5   59.06    5.82
   4   1   5   66.33    5.42
   4  -1   5   67.73    5.40
   5   1   5   10.39    2.38
   5   1   5    8.48    2.75
   5  -1   5    9.09    2.97
  -5   1  -5    5.17    3.38
   6   1   5  221.75   11.78
   6   1   5  208.14   12.21
   6  -1   5  211.97   12.22
  -6   1  -5  219.79   13.09
  -7   1  -5   25.17    4.77
   7   1   5   33.35    4.27
   7  -1   5   28.88    4.19
  -8   1  -5    2.91    3.77
   8  -1   5    8.31    3.14
   8   1   5    4.62    2.81
   9  -1   5   31.80    4.54
  -9  -1  -5   25.02    3.59
  -9   1  -5   21.79    3.16
  -9   1  -5   23.11    5.32
   9   1   5   21.21    4.16
 -10  -1  -5   15.02    3.08
 -10   1  -5   16.13    2.80
  10  -1   5   13.01    3.76
 -10   1  -5   12.51    4.33
  10   1   5   11.12    3.70
  11  -1   5   31.44    4.90
  11   1   5   43.67    5.54
 -11  -1  -5   37.22    4.27
 -11   1  -5   35.92    5.77
 -11   1  -5   42.81    4.22
 -12   1  -5   61.03    5.36
  12  -1   5   54.83    6.44
  12   1   5   66.17    6.94
 -12   1  -5   67.46    7.57
 -13   1  -5   93.47    6.90
  13   1   5   82.95    8.12
  13  -1   5  105.51    8.88
 -13   1  -5   96.30    9.36
 -14   1  -5  101.59    7.38
  14   1   5  118.22    9.49
  14  -1   5   87.99    8.56
 -14   1  -5   92.12    9.43
 -15   1  -5  144.74    9.12
 -15  -1  -5  123.74   10.20
  15   1   5  151.98   10.97
  15  -1   5  130.69   10.42
 -15  -1  -5  132.39   11.91
 -15   1  -5  120.61   10.16
 -16   1  -5  180.19   10.84
 -16  -1  -5  184.46   12.35
 -16   1  -5  181.84   12.39
  16   1   5  188.52   12.90
  16  -1   5  163.40   12.48
 -16  -1  -5  181.94   13.85
 -17   1  -5    5.23    2.92
 -17  -1  -5    6.54    2.22
 -17  -1  -5    0.90    3.47
 -17   1  -5    6.26    3.64
 -18   1  -5   26.39    3.91
 -18  -1  -5   20.63    4.48
 -18   1  -5   23.84    4.75
 -19   1  -5    6.56    2.79
 -19  -1  -5    9.13    3.42
 -19   1  -5    9.78    3.35
  20   1   5   79.30    6.26
 -20   1  -5   87.94    5.86
 -20  -1  -5   76.51    6.17
 -20   1  -5   74.43    6.24
  20  -1   5   90.84    6.52
  21   1   5   24.53    3.28
  21  -1   5   24.42    3.36
 -21  -1  -5   17.23    2.77
 -21   1  -5   15.44    2.71
  22  -1   5   48.46    3.84
  22   1   5   50.85    3.80
 -24  -2   5    0.66    1.05
 -23  -2   5   45.63    3.30
 -23  -2   5   37.53    2.82
 -22  -2   5   12.07    1.82
 -22  -2   5    9.32    1.91
 -21  -2   5  293.23   14.59
 -21  -2   5  295.34   14.30
 -20  -2   5   89.34    6.29
 -20   2   5   93.52    6.11
 -20  -2   5   99.38    6.18
 -19  -2   5   48.80    4.68
 -19   2   5   41.68    4.07
 -19  -2   5   50.81    4.38
 -18  -2   5  295.81   15.40
 -18   2   5  284.01   15.06
 -18  -2   5  298.93   15.17
 -17  -2   5   15.99    3.03
 -17   2   5   12.81    2.85
 -17  -2   5   12.46    3.20
 -16   2   5  226.97   12.30
 -16   2   5  215.98   11.95
 -16  -2   5  189.17   14.33
 -16  -2   5  229.42   12.65
 -16   2   5  227.38   12.65
 -16  -2   5  222.97   12.23
 -15   2   5   74.51    8.14
 -15  -2   5   84.25    8.39
 -15  -2   5   87.41    6.70
 -15   2   5   81.14    6.26
 -15   2   5   87.65    6.23
 -15   2   5   87.55    6.72
 -15  -2   5   90.35    6.35
 -14  -2   5   12.18    2.92
 -14  -2   5   19.51    2.58
 -14   2   5   16.27    3.28
 -14   2   5   19.19    3.10
 -14   2   5   20.12    4.76
 -14  -2   5   23.83    4.87
 -14   2   5   21.74    3.19
 -13   2   5   11.04    2.71
 -13  -2   5    9.78    2.60
 -13  -2   5    9.87    2.36
 -13   2   5   15.95    2.91
 -13   2   5   11.55    3.17
 -13   2   5    8.76    3.49
 -13  -2   5    7.39    3.44
 -12  -2   5    5.74    2.13
 -12   2   5    3.68    2.00
 -12  -2   5    4.64    2.18
 -12   2   5    4.66    2.46
 -12   2   5    3.84    2.45
 -12   2   5    4.98    3.40
 -12  -2   5    1.07    3.03
 -11  -2   5  163.38    9.66
 -11   2   5  189.89   12.14
 -11  -2   5  183.64   11.93
 -11   2   5  186.60   10.08
 -11   2   5  160.40    9.58
 -10  -2   5    5.12    3.10
 -10   2   5   -0.46    1.83
 -10  -2   5   -1.77    2.19
 -10   2   5    0.80    2.06
 -10  -2   5   -0.55    2.20
 -10   2   5    1.94    2.94
  -9   2   5  474.77   22.66
  -9   2   5  463.06   24.16
  -9  -2   5  435.98   23.79
  -9  -2   5  491.93   22.58
  -9  -2   5  464.38   22.34
  -8  -2   5   93.94    6.27
  -8  -2   5  102.21    6.47
  -8   2   5   93.50    7.04
  -8  -2   5   83.25    7.13
  -8   2   5   94.62    6.43
  -8   2   5   97.80    7.54
  -8  -2   5   84.83    6.20
  -7   2   5  679.48   32.45
  -7  -2   5  651.94   31.33
  -7   2   5  687.31   32.90
  -7  -2   5  625.27   32.39
  -6  -2   5  103.18    6.18
  -6   2   5   97.59    7.18
   6  -2  -5   86.54    6.02
  -5  -2   5   17.40    3.18
  -5   2   5   16.07    3.32
   5  -2  -5   18.10    2.97
   4  -2  -5  550.78   27.29
  -4  -2   5  600.46   26.61
  -3  -2   5  280.21   13.46
   3  -2  -5  256.42   14.23
  -2   2   5  847.58   37.04
  -1   2   5   32.66    2.69
  -1  -2   5   29.97    3.67
  -1   2   5   38.69    3.90
   0   2   5  118.56    6.51
   0  -2   5  121.20    7.73
   0   2   5  113.46    7.67
   0   2   5  113.27    7.37
   0  -2   5  105.39    7.29
   1   2   5  467.45   21.92
   1  -2   5  474.72   23.15
   1   2   5  462.06   23.10
   1   2   5  498.15   22.68
   1  -2   5  460.22   22.53
   2   2   5  233.45   11.85
   2  -2   5  236.80   13.00
   2   2   5  226.64   12.91
   2   2   5  217.74   12.24
   2  -2   5  228.80   12.26
   3   2   5   28.35    3.32
   3  -2   5   31.38    4.28
   3   2   5   27.52    4.19
   3   2   5   28.54    3.39
   3  -2   5   24.63    3.24
   4   2   5   15.85    2.77
   4   2   5   20.78    3.05
   4  -2   5   21.08    3.06
   5   2   5  116.01    7.35
   5  -2   5  112.40    7.31
   5   2   5  117.41    7.34
   6   2   5  271.66   14.11
   6   2   5  255.55   14.01
   6  -2   5  244.87   13.11
   6  -2   5  268.38   14.11
   7   2   5  445.51   21.47
  -7   2  -5  409.36   20.62
   7  -2   5  427.19   20.38
   7   2   5  438.78   21.51
   7  -2   5  408.85   21.29
   8  -2   5  312.13   17.29
  -8   2  -5  347.42   17.71
   8  -2   5  354.27   17.19
   8  -2   5  341.15   18.25
   8   2   5  378.80   18.43
   8   2   5  364.88   18.51
   9   2   5  221.79   13.03
  -9   2  -5  240.31   13.33
   9  -2   5  245.28   12.74
   9   2   5  254.55   14.21
   9  -2   5  250.90   14.17
   9   2   5  258.34   14.11
  10  -2   5  506.39   26.39
 -10   2  -5  549.68   25.52
  10  -2   5  490.13   24.54
  10   2   5  565.11   26.57
  10   2   5  540.02   26.64
 -11   2  -5  207.36   11.73
  11   2   5  184.46   12.55
  11  -2   5  210.10   12.71
 -12   2  -5  233.11   12.57
 -12  -2  -5  201.23   15.41
  12   2   5  238.96   14.04
  12  -2   5  207.47   13.45
 -12   2  -5  205.90   13.03
 -13   2  -5    0.64    2.79
  13   2   5    0.49    2.79
 -13  -2  -5    0.73    4.20
 -13  -2  -5    6.88    3.56
 -13   2  -5    4.91    3.52
 -13  -2  -5    4.42    2.95
  14   2   5  124.75    9.62
 -14   2  -5  135.14    8.50
 -14  -2  -5  120.29    9.14
 -14   2  -5  112.18    8.74
 -14  -2  -5  106.78    9.07
 -14  -2  -5  129.60   11.13
 -15   2  -5   38.25    4.48
 -15  -2  -5   48.72    5.62
 -15   2  -5   37.69    5.02
 -16  -2  -5  134.54    9.05
  16   2   5  136.42    9.20
 -16   2  -5  166.19    9.23
 -16  -2  -5  134.69    9.47
  16  -2   5  143.89    9.22
 -16   2  -5  138.67    9.43
  17  -2   5   11.54    3.19
  17   2   5   10.20    3.31
 -17  -2  -5   20.89    3.20
 -17   2  -5   16.77    3.27
 -17  -2  -5   11.03    3.22
 -17   2  -5   19.96    3.22
  18   2   5   -0.25    2.94
 -18  -2  -5    7.09    2.43
 -18   2  -5   -0.23    2.32
  18  -2   5    2.63    2.37
  19   2   5   89.08    6.07
 -19   2  -5   94.95    5.98
 -20   2  -5   11.81    2.19
 -21   2  -5   50.72    3.42
 -22  -3   5   97.10    5.12
 -21  -3   5  127.75    6.63
 -20  -3   5   37.21    3.27
 -19  -3   5   82.81    5.62
 -19  -3   5   89.69    5.91
 -18  -3   5   18.92    2.95
 -18  -3   5   16.60    3.08
 -17  -3   5  204.19   11.24
 -17  -3   5  199.06   11.34
 -16  -3   5   21.01    2.76
 -16  -3   5   29.99    3.88
 -16   3   5   33.12    3.93
 -16  -3   5   35.85    4.35
 -15  -3   5  152.03    9.53
 -15  -3   5  145.47    8.81
 -15  -3   5  168.03    9.92
 -15   3   5  160.48    9.64
 -14  -3   5  287.38   15.57
 -14  -3   5  299.45   16.20
 -14  -3   5  332.00   16.59
 -14   3   5  324.83   16.49
 -13  -3   5  382.05   18.97
 -13  -3   5  378.04   19.29
 -13  -3   5  379.71   19.50
 -13   3   5  373.75   19.34
 -12  -3   5  311.76   16.48
 -12  -3   5  317.96   16.67
 -12   3   5  326.94   16.96
 -12  -3   5  318.91   16.85
 -11  -3   5  935.40   43.59
 -11  -3   5  962.30   43.66
 -11  -3   5  967.74   43.90
 -10  -3   5  182.87   10.74
 -10  -3   5  178.03   10.51
 -10   3   5  168.39   10.16
 -10  -3   5  190.97   10.84
  -9  -3   5   80.44    6.30
  -9  -3   5   75.95    5.92
  -9  -3   5   81.54    6.57
  -9   3   5   71.54    5.88
  -9  -3   5   78.01    6.14
  -8  -3   5  518.42   25.71
  -8  -3   5  585.67   26.20
  -8   3   5  521.33   25.59
  -8  -3   5  510.25   25.34
  -8  -3   5  543.27   25.70
  -7  -3   5   28.14    3.89
  -7  -3   5   27.80    3.52
  -7   3   5   32.52    3.90
  -7  -3   5   35.96    4.58
  -7   3   5   27.87    3.52
  -7  -3   5   28.19    3.62
  -6  -3   5  623.73   29.08
  -6  -3   5  648.80   29.59
  -6   3   5  609.01   30.37
  -6   3   5  596.84   28.87
  -6  -3   5  629.71   29.16
  -5  -3   5  196.72   10.68
  -5   3   5  172.06   10.11
  -5  -3   5  173.10   10.43
  -5  -3   5  172.24   10.11
  -5   3   5  189.52   11.52
  -5  -3   5  185.05   10.27
   5  -3  -5  171.10   11.10
  -4   3   5  154.35   10.07
  -4  -3   5  160.86    9.57
  -4  -3   5  153.30    9.35
  -4  -3   5  153.75    9.04
  -4  -3   5  143.81    8.92
   4  -3  -5  161.25   10.42
  -3  -3   5  602.25   27.86
  -3  -3   5  623.35   28.15
  -3  -3   5  607.71   28.15
  -3  -3   5  594.00   27.68
  -3   3   5  568.80   28.68
   3  -3  -5  547.83   29.20
  -2  -3   5   52.53    4.99
  -2  -3   5   53.91    4.71
  -2  -3   5   51.63    4.36
  -2   3   5   46.30    5.42
   2  -3  -5   50.91    5.78
  -1  -3   5  679.32   31.81
  -1   3   5  689.90   32.74
  -1  -3   5  688.35   31.50
   1  -3  -5  634.61   33.61
  -1  -3   5  724.13   32.19
   0   3   5   23.18    2.64
   0  -3   5   22.81    3.21
   0   3   5   21.25    4.04
   0  -3   5   23.12    3.11
   0  -3  -5   22.28    4.42
   1   3   5 1086.19   46.91
  -1  -3  -5 1002.59   48.47
   1  -3   5 1005.94   45.24
   1  -3   5 1003.11   45.59
   1   3   5  992.83   45.43
  -2   3  -5  572.99   25.70
   2   3   5  531.58   25.89
  -2  -3  -5  517.44   28.56
  -3   3  -5  318.36   15.66
   3   3   5  298.72   15.93
  -3  -3  -5  300.45   18.77
   4   3   5 1150.40   53.30
  -4   3  -5 1175.39   52.69
   4  -3   5 1205.76   52.75
  -4  -3  -5 1184.35   56.65
   5   3   5   19.35    3.31
  -5   3  -5   14.26    2.98
   5  -3   5   18.34    3.16
  -5  -3  -5   18.20    5.25
  -6   3  -5 1440.99   63.26
   6  -3   5 1428.99   62.99
   6   3   5 1382.07   63.92
   7   3   5   80.44    6.87
  -7   3  -5   90.86    6.80
   7  -3   5   97.10    6.56
   8   3   5  233.59   13.89
  -8   3  -5  231.03   13.27
  -8  -3  -5  238.66   16.15
   8  -3   5  244.86   12.85
   9   3   5   74.10    6.37
  -9   3  -5   64.17    6.12
  -9  -3  -5   77.10    8.08
   9  -3   5   63.62    5.23
  10   3   5    2.15    2.52
 -10   3  -5    4.17    3.15
  10  -3   5    3.04    2.08
 -10  -3  -5    7.74    3.54
  11   3   5  351.14   18.66
 -11   3  -5  368.69   18.03
 -11  -3  -5  336.42   20.23
 -12   3  -5    4.74    3.01
 -13  -3  -5  199.47   12.46
 -13   3  -5  209.29   11.68
 -14  -3  -5   30.05    4.48
 -14   3  -5   32.74    4.04
 -15  -3  -5  156.40    9.66
 -15   3  -5  154.43    9.16
 -16  -3  -5  119.02    7.61
 -16   3  -5  116.56    7.25
 -17  -3  -5   40.11    3.62
 -17   3  -5   39.25    3.65
 -18   3  -5  135.72    7.29
 -18  -3  -5  130.67    7.06
 -19   3  -5    1.15    1.30
 -19  -4   5   64.31    3.65
 -18  -4   5  190.50    9.38
 -17  -4   5   61.03    4.24
 -16  -4   5  238.05   11.94
 -16  -4   5  265.11   12.57
 -15  -4   5    4.96    1.78
 -15  -4   5    6.79    2.29
 -15   4   5    2.99    1.96
 -14  -4   5  221.94   11.80
 -14  -4   5  237.01   12.08
 -14   4   5  222.68   11.94
 -13  -4   5  115.57    7.42
 -13   4   5  115.72    7.69
 -13  -4   5  141.90    7.98
 -13  -4   5  125.78    7.80
 -12  -4   5  129.22    8.19
 -12  -4   5  128.29    7.96
 -12   4   5  129.67    8.26
 -12  -4   5  129.20    8.02
 -11  -4   5  301.68   15.73
 -11  -4   5  319.73   16.14
 -11   4   5  315.94   16.24
 -11  -4   5  303.79   15.80
 -10  -4   5   40.40    4.50
 -10  -4   5   35.29    3.91
 -10  -4   5   30.00    3.79
  -9  -4   5  593.67   28.15
  -9  -4   5  605.50   28.20
  -8   4   5   17.25    2.57
  -8  -4   5   26.36    4.38
  -8  -4   5   17.62    3.05
  -7  -4   5  838.10   36.80
  -7  -4   5  899.61   37.30
  -7  -4   5  798.90   35.80
  -6  -4   5  301.69   16.63
  -6  -4   5  356.84   17.61
  -6   4   5  291.04   15.47
  -6  -4   5  333.26   16.00
  -5  -4   5  282.50   14.67
  -5   4   5  247.30   14.09
  -5   4   5  258.92   13.91
  -5  -4   5  242.79   13.47
  -4   4   5  418.50   20.71
  -4  -4   5  388.89   20.07
  -3  -4   5   89.50    6.80
   3  -4  -5   80.83    7.80
  -2  -4   5  469.06   22.74
  -2   4   5  458.90   23.43
   2  -4  -5  436.97   24.71
  -1  -4   5   45.82    4.68
  -1   4   5   43.11    5.22
   1  -4  -5   30.06    5.27
   0  -4   5  748.87   34.14
   0   4   5  737.28   35.02
   0  -4  -5  685.26   36.77
  -1  -4  -5   20.66    3.53
  -1   4  -5   22.46    3.66
  -1  -4  -5   32.11    5.53
  -2  -4  -5  519.86   25.99
  -2   4  -5  564.91   25.88
  -2  -4  -5  499.17   28.95
  -3  -4  -5  274.52   15.64
  -3  -4  -5  260.09   18.21
  -3   4  -5  309.54   15.30
   3  -4   5  273.77   15.00
  -4   4  -5   16.15    3.59
  -4  -4  -5   20.95    5.29
   4  -4   5   26.30    3.77
  -4  -4  -5   23.98    4.64
  -5  -4  -5  644.63   32.89
  -5  -4  -5  632.46   35.87
  -5   4  -5  700.45   32.02
   5  -4   5  694.50   31.70
  -6  -4  -5   73.94    6.90
  -6   4  -5   71.86    6.05
   6  -4   5   64.16    5.41
  -7  -4  -5  444.12   23.76
   7  -4   5  463.16   22.47
  -7   4  -5  491.64   23.35
  -8  -4  -5  229.91   13.83
  -8   4  -5  237.30   13.41
   8  -4   5  242.72   12.59
  -9  -4  -5  176.11   11.25
  -9   4  -5  189.46   11.05
   9  -4   5  178.23    9.84
 -10  -4  -5  327.66   18.06
 -10   4  -5  363.89   17.88
 -11  -4  -5   63.93    5.84
 -11   4  -5   70.99    5.56
 -12  -4  -5  219.00   12.47
 -12   4  -5  233.01   12.09
 -13  -4  -5   10.18    2.82
 -13   4  -5    7.88    2.36
 -14   4  -5  200.32   10.35
 -15  -4  -5   -1.40    1.64
 -15   4  -5    0.29    1.55
 -16   4  -5   97.10    5.35
 -12   5   5  121.63    6.31
 -11   5   5   52.52    3.69
 -10   5   5  472.17   23.69
 -10  -5   5  527.07   23.55
  -9  -5   5    8.30    2.18
  -9   5   5    8.60    2.22
  -9  -5   5   12.44    2.14
  -8  -5   5  436.31   19.73
  -8   5   5  387.94   19.45
  -7  -5   5  229.47   12.03
  -6  -5   5   40.63    3.88
  -5  -5   5  241.79   12.58
   4   5  -5    6.42    1.94
   3   5  -5  116.74    7.20
  -3   5   5  123.51    7.31
   2   5  -5   -2.72    2.27
  -2  -5   5   -2.56    3.00
  -2   5   5    1.86    2.06
  -2  -5   5    1.96    2.46
  -1  -5   5  270.14   13.74
   1   5  -5  223.74   12.27
  -1   5   5  223.69   12.46
  -1  -5   5  272.49   13.04
   0  -5   5   84.97    6.34
   0   5  -5   74.19    5.36
   0   5   5   67.82    5.56
   0  -5   5   79.72    5.68
   1  -5   5  198.02   10.99
  -1   5  -5  174.74   10.07
   1  -5   5  191.57   10.34
   2  -5   5  209.87   11.70
  -2   5  -5  193.41   11.03
   2  -5   5  221.10   11.19
   3  -5   5  111.94    7.47
  -3   5  -5  110.98    7.07
   3  -5   5  114.04    6.93
   4  -5   5  317.30   16.36
  -4   5  -5  305.32   15.93
   4  -5   5  340.94   15.76
  -5   5  -5   15.44    2.80
   5  -5   5   16.69    3.03
   5  -5   5   15.52    2.37
  -6   5  -5  266.65   12.76
   6  -5   5  243.13   12.81
   6  -5   5  227.77   11.81
   7  -5   5   41.15    3.93
  -7   5  -5   35.72    3.63
   7  -5   5   32.93    2.75
  -8   5  -5  137.60    7.81
   8  -5   5  141.33    8.15
  -9   5  -5  125.95    6.92
 -10   5  -5   84.27    4.90
 -11  -5  -5   67.83    3.98
  11   5   5   57.45    3.87
 -25   0   6  204.84    9.77
 -24   0   6   64.79    4.38
 -23   0   6  375.64   18.05
 -22   0   6   45.52    4.36
 -21   0   6  110.88    7.52
 -20   0   6  147.29    9.34
 -19   0   6   83.01    6.66
 -18   0   6  277.02   15.00
 -18   0   6  236.44   17.35
 -18   0   6  274.08   14.75
 -17   0   6   37.46    4.77
 -17   0   6   32.49    6.09
 -17   0   6   35.11    4.61
 -16   0   6  452.22   25.99
 -16   0   6  458.36   22.93
 -16   0   6  443.19   22.58
 -15   0   6   58.76    5.07
 -15   0   6   56.75    5.84
 -15   0   6   55.64    7.59
 -15   0   6   66.22    5.62
 -14   0   6  921.99   40.56
 -14   0   6  837.10   44.08
 -14   0   6  924.64   41.43
 -14   0   6  847.18   39.83
 -14   0   6  909.99   41.05
 -13   0   6  432.24   20.39
 -13   0   6  401.71   23.38
 -13   0   6  435.19   21.12
 -13   0   6  408.29   19.74
 -13   0   6  394.21   20.56
 -12   0   6  614.88   27.90
 -12   0   6  592.42   31.09
 -12   0   6  602.82   28.48
 -12   0   6  582.97   27.22
 -12   0   6  575.35   27.97
 -11   0   6 1185.45   51.60
 -11   0   6 1142.96   54.47
 -11   0   6 1222.83   52.20
 -11   0   6 1129.17   51.39
 -11   0   6 1103.75   51.62
 -10   0   6   11.78    2.61
 -10   0   6    9.93    2.51
 -10   0   6   12.77    4.10
  -9   0   6  673.49   33.39
  -8   0   6  529.12   27.05
  -7   0   6 1412.91   64.35
  -6   0   6  934.39   43.77
  -5   0   6  359.52   19.17
  -4   0   6 2640.59  115.49
  -4   0   6 2626.53  114.87
  -3   0   6  365.01   18.56
  -3   0   6  326.33   18.06
  -3   0   6  344.90   17.68
  -2   0   6  447.44   23.44
  -2   0   6  483.14   22.93
  -1   0   6  118.07    9.18
  -1   0   6  122.68    8.15
   0   0   6 3113.89  138.40
   0   0   6 3222.84  137.63
   1   0   6 1645.02   72.74
   2   0   6  579.04   27.61
   3   0   6 4557.68  196.38
   4   0   6  101.11    7.38
   5   0   6 1689.53   75.18
   6   0   6    0.37    2.84
   7   0   6  795.18   37.74
   8   0   6  589.36   29.29
  -9   0  -6  384.37   19.63
  -9   0  -6  420.12   23.50
   9   0   6  452.27   22.14
 -10   0  -6  919.44   42.62
  10   0   6  997.56   45.23
 -10   0  -6  935.83   46.58
 -11   0  -6   27.99    3.63
  11   0   6   37.03    5.22
 -12   0  -6 1100.75   49.72
  12   0   6 1136.40   52.45
 -12   0  -6 1059.82   53.49
  13   0   6    6.44    3.87
 -13   0  -6    7.37    3.03
 -13   0  -6    5.94    4.95
 -14   0  -6  471.23   22.97
  14   0   6  463.36   25.29
 -14   0  -6  447.69   26.51
 -15   0  -6  123.51    8.28
  15   0   6  131.55   10.24
 -15   0  -6  100.17   10.33
 -16   0  -6  264.47   14.56
 -16   0  -6  276.50   16.24
 -17   0  -6  158.82   11.19
 -17   0  -6  165.29    9.94
 -18   0  -6   51.52    5.76
  19   0   6  560.17   26.50
 -19   0  -6  536.02   26.61
  20   0   6    3.07    2.83
 -20   0  -6    2.70    2.38
  21   0   6  288.33   14.35
  22   0   6   30.73    2.80
 -24  -1   6  207.04    9.73
 -24   1   6  190.73    9.62
 -23  -1   6    7.59    1.99
 -23   1   6    9.06    2.01
 -22   1   6  218.69   11.47
 -22  -1   6  222.87   11.56
 -21   1   6  322.88   16.20
 -21  -1   6  320.59   16.27
 -20  -1   6   37.19    3.57
 -20   1   6   47.45    4.58
 -20  -1   6   46.01    4.54
 -19   1   6  290.63   16.20
 -19  -1   6  318.69   15.93
 -19   1   6  355.35   17.04
 -19  -1   6  322.43   16.71
 -18   1   6  118.42    8.14
 -18  -1   6  123.94    7.72
 -18   1   6  131.23    8.55
 -18  -1   6  112.57    8.18
 -17   1   6  226.93   13.42
 -17   1   6  238.61   16.61
 -17  -1   6  261.87   16.96
 -17  -1   6  238.29   13.09
 -17   1   6  267.86   14.10
 -17  -1   6  251.14   13.83
 -16   1   6   -0.35    2.93
 -16  -1   6    3.73    2.83
 -16  -1   6    0.81    3.33
 -16   1   6    1.69    2.70
 -16   1   6    1.49    3.68
 -16  -1   6    7.95    4.13
 -16  -1   6    3.43    2.41
 -15   1   6 1100.92   49.23
 -15   1   6 1044.40   52.63
 -15  -1   6 1025.77   52.40
 -15  -1   6 1064.91   48.65
 -15   1   6 1102.05   49.31
 -15  -1   6 1096.41   49.17
 -14   1   6  274.72   14.80
 -14   1   6  272.27   17.67
 -14  -1   6  254.10   17.27
 -14  -1   6  256.19   14.16
 -14   1   6  286.40   14.81
 -14   1   6  281.66   14.81
 -14  -1   6  268.01   14.62
 -13  -1   6  217.07   12.10
 -13   1   6  199.86   11.14
 -13   1   6  214.99   11.93
 -13   1   6  219.22   12.18
 -13   1   6  213.92   14.78
 -13  -1   6  193.62   14.17
 -13  -1   6  207.35   11.63
 -13   1   6  218.96   12.14
 -13  -1   6  207.89   11.86
 -12  -1   6  886.79   41.70
 -12   1   6  871.75   40.85
 -12  -1   6  952.93   42.16
 -12   1   6  915.95   41.65
 -12   1   6  907.79   44.77
 -12  -1   6  905.94   44.35
 -12  -1   6  914.83   41.21
 -12   1   6  951.20   41.61
 -12   1   6  913.89   41.58
 -12  -1   6  884.00   41.35
 -11  -1   6   86.45    6.18
 -11  -1   6  100.08    6.57
 -11   1   6   78.85    5.64
 -11  -1   6   91.88    6.70
 -11   1   6   86.29    6.41
 -11   1   6   92.93    8.52
 -11  -1   6   79.49    8.04
 -11  -1   6   72.97    5.76
 -11   1   6   81.90    6.16
 -11   1   6   83.30    6.24
 -10  -1   6  730.59   32.22
 -10   1   6  700.34   31.63
 -10  -1   6  718.27   32.39
 -10   1   6  685.85   32.16
 -10   1   6  712.05   34.74
 -10  -1   6  686.81   34.64
 -10  -1   6  667.76   31.59
 -10   1   6  681.73   31.87
 -10   1   6  660.25   31.85
 -10  -1   6  683.97   31.90
  -9   1   6  107.24    7.18
  -9   1   6  111.84    6.93
  -9  -1   6  113.11    7.20
  -9  -1   6   99.98    7.08
  -9   1   6  126.52    9.29
  -9  -1   6  107.88    9.07
  -9  -1   6  104.89    6.67
  -9   1   6   99.12    6.74
  -8   1   6 1700.24   75.65
  -8  -1   6 1641.37   75.53
  -7   1   6  177.17   11.48
  -7  -1   6  171.62   11.35
  -6  -1   6  345.41   16.46
  -6   1   6  380.80   19.48
  -6  -1   6  365.52   19.27
  -5  -1   6  361.21   19.26
  -5   1   6  358.68   19.27
  -4   1   6  220.97   13.38
  -4  -1   6  223.48   13.49
  -4   1   6  233.85   12.90
  -4  -1   6  219.37   12.71
  -3   1   6 1344.45   60.58
  -3  -1   6 1361.02   60.58
  -2   1   6    7.09    2.97
  -2  -1   6   10.98    4.27
  -2   1   6   10.46    3.72
  -2  -1   6    8.77    3.19
  -1  -1   6 2043.42   95.20
  -1   1   6 2090.40   95.35
  -1   1   6 2247.40   94.75
  -1  -1   6 2226.88   94.64
   0  -1   6  146.51   10.53
   0   1   6  151.60   10.73
   0   1   6  166.46    9.80
   0  -1   6  166.77    9.83
   1  -1   6 1181.43   57.23
   1   1   6 1213.83   57.27
   1   1   6 1290.15   56.36
   1  -1   6 1310.26   56.44
   2   1   6  180.20   10.54
   2  -1   6  176.92   10.56
   3   1   6  207.61   11.88
   3  -1   6  209.03   12.00
  -4   1  -6 2285.84   98.17
   4   1   6 2123.45   97.28
   4  -1   6 2261.57   97.52
   5  -1   6    2.51    2.63
   5   1   6    2.50    2.70
  -5   1  -6    1.73    3.31
   6  -1   6  683.92   32.77
  -6   1  -6  758.76   35.32
   6   1   6  725.62   34.44
   6  -1   6  751.64   34.46
   7   1   6  382.49   19.93
   7  -1   6  353.85   19.70
   7   1   6  440.99   21.32
   7  -1   6  433.32   21.14
  -7   1  -6  438.27   22.13
  -8   1  -6  609.75   28.27
   8   1   6  639.68   30.51
   8  -1   6  605.42   30.20
  -8   1  -6  588.97   30.95
  -9   1  -6  285.08   14.54
   9   1   6  281.73   16.50
   9  -1   6  312.18   16.73
  -9   1  -6  254.58   16.95
 -10   1  -6  234.13   12.80
  10   1   6  267.67   15.34
  10  -1   6  232.13   14.58
 -10   1  -6  235.33   15.58
 -11   1  -6  937.18   41.88
 -11  -1  -6  900.03   46.43
  11   1   6  980.06   44.63
  11  -1   6  900.78   43.93
 -11   1  -6  848.28   44.82
 -12   1  -6   99.27    7.12
  12   1   6  110.98    9.13
  12  -1   6  102.33    8.74
 -12  -1  -6  101.61   10.33
 -12   1  -6   85.59    8.99
 -13   1  -6  497.29   24.81
  13   1   6  558.61   27.73
  13  -1   6  506.93   27.16
 -13  -1  -6  476.45   28.69
 -13   1  -6  535.51   28.49
 -14   1  -6   79.12    6.43
  14   1   6   94.67    8.53
  14  -1   6   91.27    8.31
 -14   1  -6   77.68    8.48
 -15   1  -6  303.64   17.34
 -15  -1  -6  284.03   17.17
 -15   1  -6  290.66   15.51
 -16   1  -6  292.19   15.52
 -16  -1  -6  307.23   17.19
 -16   1  -6  288.88   16.93
  17  -1   6  127.66    9.13
  17   1   6  134.09    9.28
 -17   1  -6  135.79    8.19
 -17  -1  -6  118.86    9.19
 -17   1  -6  119.66    9.14
 -18   1  -6  270.14   13.86
 -18  -1  -6  257.93   14.82
 -18   1  -6  249.55   14.71
  18  -1   6  275.08   14.62
  18   1   6  271.94   14.63
  19  -1   6    9.06    3.13
  19   1   6   12.64    3.22
 -19   1  -6   12.83    2.55
 -19  -1  -6    4.11    2.79
 -19   1  -6    9.57    2.92
 -20  -1  -6  108.82    7.49
 -20   1  -6  112.86    7.47
  20  -1   6  132.60    7.68
  20   1   6  136.94    7.72
  21   1   6   20.97    2.66
  21  -1   6   14.27    2.30
 -23  -2   6  235.74   11.29
 -22  -2   6   16.95    2.35
 -22  -2   6   15.16    1.93
 -21  -2   6  119.78    6.82
 -21  -2   6  117.16    6.59
 -20  -2   6  134.20    7.79
 -20   2   6  128.91    7.49
 -20  -2   6  133.59    7.57
 -19  -2   6  239.10   12.42
 -19   2   6  222.39   12.08
 -19  -2   6  238.58   12.25
 -18  -2   6  412.17   19.40
 -18   2   6  404.27   19.11
 -18  -2   6  422.03   19.20
 -17  -2   6    7.46    2.59
 -17   2   6    6.38    2.47
 -17   2   6    5.80    2.36
 -17  -2   6   10.71    3.05
 -16   2   6  712.28   33.75
 -16  -2   6  660.02   36.40
 -16  -2   6  719.05   34.06
 -16   2   6  753.64   34.34
 -16   2   6  759.16   33.95
 -16  -2   6  742.48   33.87
 -15  -2   6   22.26    3.35
 -15   2   6   21.58    3.37
 -15  -2   6   16.39    4.52
 -15   2   6   20.75    3.44
 -15   2   6   18.70    3.71
 -15  -2   6   22.82    3.89
 -14   2   6  204.74   11.71
 -14  -2   6  190.99   10.78
 -14   2   6  198.56   14.21
 -14  -2   6  201.83   14.09
 -14  -2   6  205.42   11.95
 -14   2   6  222.88   12.19
 -14   2   6  223.73   11.79
 -14  -2   6  212.15   11.62
 -13  -2   6  214.09   11.67
 -13   2   6  233.18   12.50
 -13   2   6  232.41   12.77
 -13   2   6  189.48   14.32
 -13  -2   6  228.25   14.86
 -13   2   6  235.06   12.40
 -13  -2   6  221.42   12.21
 -12   2   6   69.34    5.71
 -12  -2   6   68.94    5.19
 -12   2   6   61.25    7.05
 -12  -2   6   61.60    6.95
 -12   2   6   73.04    5.56
 -12  -2   6   76.67    5.61
 -11  -2   6 1045.41   47.17
 -11   2   6 1079.06   47.75
 -11   2   6 1058.69   50.24
 -11  -2   6 1070.70   50.22
 -11   2   6 1079.87   47.39
 -11  -2   6 1003.34   47.14
 -10  -2   6   48.98    4.37
 -10   2   6   52.19    4.83
 -10  -2   6   35.92    5.44
 -10   2   6   56.87    6.38
 -10   2   6   48.70    4.33
  -9  -2   6  181.09   11.17
  -9  -2   6  189.26   10.65
  -9   2   6  194.96   11.25
  -9   2   6  205.71   10.59
  -9  -2   6  204.80   11.12
  -9   2   6  167.48   12.30
  -9  -2   6  170.13   12.20
  -9   2   6  210.45   10.80
  -8  -2   6   68.38    5.00
  -8  -2   6   63.20    5.09
  -8  -2   6   52.53    4.77
  -8  -2   6   67.31    5.43
  -8   2   6   58.09    6.08
  -8   2   6   53.13    5.18
  -8   2   6   61.15    4.85
  -8  -2   6   63.25    4.99
  -8   2   6   56.43    4.56
  -8   2   6   54.36    5.95
  -8  -2   6   52.46    5.86
  -7  -2   6  242.43   15.19
  -7  -2   6  264.00   13.91
  -7  -2   6  278.07   14.19
  -7  -2   6  272.78   14.45
  -7  -2   6  291.97   14.16
  -7   2   6  266.95   14.46
  -7   2   6  262.94   15.03
  -7   2   6  278.33   13.93
  -7  -2   6  264.28   14.02
  -7   2   6  279.26   15.82
  -6   2   6   26.28    4.07
  -6  -2   6   33.08    3.58
  -6  -2   6   29.91    3.85
  -6   2   6   32.66    4.70
  -6  -2   6   26.78    3.34
  -6   2   6   28.62    3.55
  -6  -2   6   20.66    3.11
  -6  -2   6   27.91    3.31
  -5  -2   6  251.40   12.80
  -5  -2   6  246.31   12.39
  -5  -2   6  244.49   12.61
  -5  -2   6  249.86   13.08
  -5   2   6  237.66   13.43
  -5   2   6  234.60   12.67
  -5  -2   6  236.23   12.50
   5  -2  -6  216.14   12.90
  -4  -2   6  552.49   25.34
  -4  -2   6  543.02   25.57
  -4  -2   6  587.12   25.95
  -4   2   6  505.57   26.28
  -4   2   6  550.63   25.78
  -4  -2   6  564.11   25.67
   4  -2  -6  516.21   26.37
  -3   2   6  194.76   11.27
  -3  -2   6  185.26   10.10
  -3  -2   6  200.81   10.58
  -3  -2   6  183.10   10.27
  -2  -2   6  327.36   16.27
  -2  -2   6  337.18   16.59
  -2   2   6  333.32   17.28
  -2  -2   6  324.16   16.29
  -2  -2   6  331.52   16.11
  -1   2   6    0.94    2.16
  -1  -2   6    4.69    2.49
  -1  -2   6    1.81    1.86
  -1  -2   6    0.50    1.94
  -1  -2   6    2.40    2.00
   0  -2   6  589.76   29.42
   0   2   6  570.29   29.28
   0   2   6  624.12   28.99
   0  -2   6  641.95   29.06
   1   2   6   69.90    4.91
   1  -2   6   74.03    6.42
   1   2   6   66.86    6.39
   1  -2   6   72.28    5.27
   1   2   6   70.98    5.81
   1  -2   6   83.15    6.15
   2  -2   6  197.67   12.28
   2   2   6  194.20   12.23
   2  -2   6  195.71   10.59
   2  -2   6  191.43   10.56
   2   2   6  200.38   11.51
   2  -2   6  198.59   11.44
   2   2   6  200.04   10.59
   3   2   6  379.00   18.45
   3  -2   6  366.08   19.94
   3   2   6  385.91   20.23
   3  -2   6  357.71   18.16
   3   2   6  413.56   19.54
   3  -2   6  361.51   19.04
   4   2   6  207.85   11.18
   4  -2   6  209.99   12.74
   4   2   6  208.80   12.80
   4  -2   6  182.01   10.63
   4   2   6  209.63   11.78
   4  -2   6  186.04   11.48
   5  -2   6  131.04    7.71
   5   2   6  123.28    7.95
   5   2   6  126.33    8.45
   5  -2   6  118.23    8.25
   5  -2   6  108.08    7.71
   6   2   6    4.99    2.44
  -6   2  -6   11.08    2.82
   6  -2   6    6.74    2.77
   6   2   6    6.86    2.63
   6  -2   6    8.91    2.53
   6  -2   6   11.38    3.27
  -7   2  -6  844.76   37.51
   7   2   6  780.46   37.48
   7   2   6  846.62   38.22
   7  -2   6  857.85   37.42
   7   2   6  850.13   38.69
   7  -2   6  838.67   38.67
   7  -2   6  717.79   37.29
   8   2   6   38.30    4.62
   8   2   6   40.44    4.60
  -8   2  -6   44.91    4.45
   8  -2   6   41.77    4.72
   8   2   6   39.64    4.90
   8  -2   6   44.85    4.31
   8  -2   6   37.74    4.76
   9   2   6  333.94   18.48
   9  -2   6  338.09   18.49
   9   2   6  378.06   19.32
  -9   2  -6  388.31   18.41
   9  -2   6  365.79   18.10
   9   2   6  374.29   19.72
   9  -2   6  347.60   19.37
  10  -2   6   50.09    5.21
  10   2   6   48.72    5.37
 -10   2  -6   46.73    4.75
  10  -2   6   42.33    5.37
  10   2   6   44.51    5.46
  11   2   6    4.28    3.19
  11  -2   6    5.33    3.38
 -11   2  -6    2.74    2.63
  11   2   6    2.44    2.69
  11  -2   6    5.28    2.81
  12   2   6  388.73   20.30
  12  -2   6  372.51   20.07
 -12   2  -6  428.35   19.96
 -12  -2  -6  358.20   23.33
  12   2   6  394.23   21.48
  13  -2   6    4.92    3.10
  13   2   6    6.07    3.23
 -13   2  -6    8.41    2.89
 -13  -2  -6   14.03    4.83
 -13  -2  -6    7.27    3.77
 -13   2  -6    8.04    3.78
  13   2   6   10.93    3.54
  14   2   6  405.46   19.22
 -14   2  -6  367.98   18.43
 -14  -2  -6  350.75   19.52
 -14   2  -6  343.15   19.19
  14  -2   6  354.42   18.80
  15   2   6  172.78   10.17
 -15   2  -6  165.06    9.59
 -15  -2  -6  159.96   10.40
 -15   2  -6  140.19    9.85
  15  -2   6  152.43    9.81
 -16  -2  -6  171.18   10.12
  16  -2   6  162.47   10.03
  16   2   6  195.99   10.54
 -16   2  -6  181.36    9.92
 -16  -2  -6  152.87   10.36
 -16   2  -6  159.31   10.16
 -17  -2  -6  160.91    8.64
 -17   2  -6  157.85    8.57
  17   2   6  150.83    8.87
 -18   2  -6    2.41    1.79
  18   2   6    0.79    2.08
 -19   2  -6   84.42    5.18
 -20   2  -6   -0.11    1.19
 -21  -3   6    8.02    1.40
 -21  -3   6    8.83    1.59
 -20  -3   6  141.78    7.56
 -19  -3   6  180.43    9.54
 -18  -3   6   23.23    3.07
 -17  -3   6  229.05   12.14
 -17  -3   6  221.41   12.13
 -16  -3   6   38.46    4.16
 -16  -3   6   35.09    4.18
 -16   3   6   33.79    4.11
 -15  -3   6  293.62   15.12
 -15  -3   6  329.23   16.34
 -15  -3   6  310.63   16.17
 -15   3   6  313.12   16.18
 -14  -3   6   -2.43    2.16
 -14  -3   6    0.63    2.61
 -14   3   6    0.32    2.65
 -14  -3   6   -0.64    2.59
 -13  -3   6    0.54    2.06
 -13  -3   6    1.30    2.49
 -13   3   6    1.69    2.84
 -13  -3   6    2.30    2.70
 -12  -3   6  396.85   18.92
 -12  -3   6  378.81   19.24
 -12   3   6  334.50   18.45
 -12   3   6  386.67   19.51
 -12  -3   6  398.68   19.42
 -11  -3   6  127.96    8.28
 -11  -3   6  131.06    8.60
 -11   3   6  119.68    8.10
 -11  -3   6  135.53    8.73
 -10  -3   6  201.71   11.66
 -10  -3   6  224.26   12.02
 -10   3   6  188.38   11.50
 -10  -3   6  204.50   11.89
  -9  -3   6   10.36    2.73
  -9   3   6    5.77    2.90
  -9   3   6    6.11    2.37
  -9  -3   6    4.86    2.95
  -9  -3   6    7.93    2.84
  -8  -3   6  197.14   11.12
  -8  -3   6  186.26   10.99
  -8  -3   6  192.67   11.23
  -8   3   6  184.30   11.19
  -8   3   6  178.59   10.43
  -8  -3   6  190.12   11.07
  -7  -3   6  120.52    8.15
  -7  -3   6  118.74    8.01
  -7  -3   6  140.36    8.80
  -7   3   6  123.08    9.40
  -7   3   6  110.36    8.18
  -7   3   6  126.18    7.90
  -7  -3   6  119.47    8.07
  -6  -3   6   76.81    6.27
  -6  -3   6   99.66    7.13
  -6   3   6   91.11    7.96
  -6   3   6   93.60    6.58
  -6  -3   6   83.54    6.59
  -5  -3   6   37.46    4.28
  -5   3   6   43.98    5.31
  -5  -3   6   37.89    4.38
  -5   3   6   32.38    3.98
  -5  -3   6   35.14    4.10
  -4  -3   6   49.91    5.07
  -4  -3   6   57.19    5.10
  -4   3   6   59.65    6.31
  -4  -3   6   54.00    5.22
  -4   3   6   60.88    5.28
  -4  -3   6   67.15    5.25
   4  -3  -6   52.91    5.82
  -3  -3   6  238.86   12.74
  -3   3   6  223.38   13.60
   3  -3  -6  212.94   13.93
  -3  -3   6  230.85   12.46
  -3  -3   6  228.08   12.64
  -2  -3   6   41.75    4.63
  -2  -3   6   39.35    4.31
  -2   3   6   38.99    4.96
  -2  -3   6   38.37    4.16
   2  -3  -6   41.00    5.63
  -1  -3   6  619.30   28.83
  -1  -3   6  608.88   28.63
  -1   3   6  577.26   29.59
  -1  -3   6  629.24   28.48
   1  -3  -6  576.51   30.89
   0   3   6  153.60   10.54
   0  -3   6  146.69    9.15
   0  -3  -6  166.32   12.02
   0  -3   6  176.71   10.07
   1   3   6   37.95    5.13
   1  -3   6   34.78    3.96
   1  -3   6   29.74    3.55
  -1  -3  -6   30.91    5.65
   2   3   6  185.47   11.05
   2   3   6  233.48   13.02
   2  -3   6  205.55   11.52
  -2  -3  -6  226.35   14.96
   3   3   6   18.37    2.92
   3  -3   6   24.64    3.38
  -3  -3  -6   26.17    5.94
   4   3   6    9.40    2.45
  -4   3  -6    8.90    2.73
   4  -3   6   12.18    2.92
  -4  -3  -6   11.71    5.07
   5   3   6   37.67    4.19
  -5   3  -6   35.55    4.13
   5  -3   6   34.81    4.06
  -5  -3  -6   47.82    6.98
   6   3   6   58.86    5.56
  -6   3  -6   70.05    5.82
   6  -3   6   59.58    5.28
  -6  -3  -6   53.79    7.62
  -7   3  -6   91.02    6.93
   7   3   6   88.36    7.12
   7  -3   6   87.05    6.58
   8   3   6  464.67   23.55
  -8   3  -6  471.91   22.98
   8  -3   6  441.82   22.44
  -8  -3  -6  486.27   26.45
   9   3   6   -1.22    2.33
  -9   3  -6    5.15    2.78
   9  -3   6    3.08    2.39
  -9  -3  -6    0.68    3.34
  10   3   6   12.25    3.06
 -10   3  -6   12.69    3.25
 -11  -3  -6  176.79   11.39
 -11   3  -6  179.95   10.54
 -12   3  -6   14.41    3.00
 -13   3  -6  112.77    7.37
 -14  -3  -6   21.77    3.60
 -14   3  -6   21.14    3.17
 -15  -3  -6   52.11    4.65
 -15   3  -6   40.07    3.96
 -16  -3  -6   39.82    3.75
 -16   3  -6   40.08    3.51
 -17  -3  -6   56.91    4.02
 -17   3  -6   57.58    3.99
 -18   3  -6   26.34    2.29
 -18  -4   6   14.07    1.62
 -17  -4   6    1.75    1.47
 -16  -4   6   62.92    4.40
 -15   4   6    9.60    2.12
 -15  -4   6   12.62    2.39
 -14  -4   6   28.79    2.96
 -14  -4   6   29.36    3.39
 -14   4   6   27.35    3.43
 -13  -4   6    7.59    2.26
 -13   4   6   10.15    2.74
 -13  -4   6   15.12    2.76
 -12  -4   6    5.38    2.26
 -12   4   6    4.37    2.47
 -12  -4   6    2.22    2.35
 -11   4   6   28.50    4.10
 -11  -4   6   33.37    3.94
 -11  -4   6   35.44    3.25
 -11  -4   6   38.33    4.01
 -10  -4   6   13.53    3.06
 -10  -4   6   11.34    2.82
  -9  -4   6   -0.27    2.14
  -8  -4   6   93.35    6.52
  -7  -4   6  287.25   15.19
  -7  -4   6  311.98   15.72
  -7   4   6  258.74   14.59
  -7  -4   6  283.38   14.60
  -6  -4   6    8.47    3.12
  -6   4   6    1.21    2.46
  -6   4   6    1.03    2.21
  -6  -4   6    8.54    3.35
  -6  -4   6    5.42    2.41
  -5  -4   6  136.37    8.73
  -5  -4   6  150.74    9.70
  -5   4   6  115.41    8.33
  -5   4   6  132.65    8.32
  -5  -4   6  118.53    7.75
  -4  -4   6  217.52   12.33
  -4  -4   6  246.35   13.12
  -4   4   6  207.35   11.94
  -4  -4   6  200.15   11.37
  -3  -4   6   71.49    5.77
  -3  -4   6   61.54    5.85
  -3   4   6   70.49    6.64
  -3   4   6   49.10    5.28
  -3  -4   6   57.59    4.73
  -2  -4   6  237.01   13.02
  -2  -4   6  237.11   12.61
  -2   4   6  228.43   13.48
  -2   4   6  213.14   12.33
  -2  -4   6  205.73   11.47
   2  -4  -6  206.36   14.46
  -1  -4   6   54.36    5.66
  -1   4   6   46.82    5.66
   1  -4  -6   40.50    6.13
   0   4   6   21.41    4.32
   0  -4   6   22.80    4.10
   0  -4   6   22.79    3.60
   0  -4  -6    8.71    4.24
  -1  -4  -6   11.16    2.96
   1   4   6   11.83    3.72
  -1   4  -6    9.52    2.69
   1  -4   6   11.06    3.64
   1  -4   6   10.86    3.10
  -1  -4  -6    7.71    4.13
  -2   4  -6   -0.82    2.42
  -2  -4  -6    0.35    2.84
   2  -4   6    0.36    3.11
   2  -4   6    0.61    2.71
   2   4   6    0.40    3.34
   3  -4   6  335.82   17.59
  -3  -4  -6  318.50   17.66
  -3   4  -6  329.85   16.87
   3  -4   6  351.38   17.24
   3   4   6  315.29   17.84
  -4   4  -6    2.92    2.67
   4  -4   6    1.05    3.24
   4  -4   6    4.13    2.67
  -4  -4  -6   -1.62    3.21
   4   4   6    1.16    3.11
  -5  -4  -6    6.37    3.75
   5   4   6    8.64    3.61
  -5   4  -6   10.20    3.12
   5  -4   6   10.40    3.54
   5  -4   6    9.43    2.73
  -6  -4  -6   45.20    5.66
  -6   4  -6   48.34    4.90
   6  -4   6   53.47    4.78
  -7  -4  -6   14.53    3.87
  -7   4  -6   11.42    3.26
   7  -4   6   11.58    2.83
  -8   4  -6   -1.12    2.58
  -8  -4  -6    2.86    3.03
   8  -4   6    4.25    2.27
  -9  -4  -6    3.32    2.92
  -9   4  -6    2.32    2.46
   9  -4   6    3.47    1.92
 -10  -4  -6   70.22    5.84
 -10   4  -6   65.54    5.19
 -11  -4  -6    0.28    2.57
 -11   4  -6    0.41    2.04
 -12  -4  -6   70.33    5.35
 -12   4  -6   64.11    4.72
 -13  -4  -6   77.29    5.04
 -13   4  -6   68.54    4.30
 -14   4  -6    4.52    1.46
 -15  -4  -6   24.92    2.32
 -12   5   6    3.85    1.16
 -11   5   6    1.21    1.31
 -10   5   6   28.67    2.86
  -9   5   6    5.26    1.90
  -9  -5   6    6.15    1.56
  -8  -5   6    8.06    1.85
  -8   5   6    8.69    2.28
  -7  -5   6   19.95    2.50
  -6  -5   6   34.58    3.37
  -5  -5   6   49.25    4.14
  -4  -5   6   23.55    3.42
  -3   5   6    0.82    1.58
  -3  -5   6    2.08    2.34
  -2   5   6    2.21    1.81
  -2  -5   6    3.25    2.45
  -2  -5   6    1.96    2.10
  -1   5   6   -0.56    1.68
  -1   5   6   -1.40    2.05
  -1  -5   6   -1.31    2.24
   0   5   6   10.47    2.36
   0   5   6    8.68    2.54
   0  -5   6   15.04    2.75
   1   5   6   14.17    2.87
   1  -5   6   13.58    2.64
   2   5   6   49.16    4.45
   2  -5   6   56.79    4.33
   3   5   6    1.75    2.32
   3  -5   6    3.00    2.05
  -4   5  -6   11.04    2.09
   4   5   6   15.94    2.79
   4  -5   6   14.43    2.23
  -5   5  -6    2.62    1.68
   5  -5   6    3.82    1.70
  -6   5  -6    0.74    1.32
   6   5   6    1.71    2.02
   6  -5   6    1.14    1.27
  -7   5  -6   17.53    1.99
   7   5   6   26.39    2.94
   8   5   6    4.75    1.83
  -9  -5  -6   11.95    1.61
  10   5   6    8.55    1.43
 -24   0   7    1.66    1.34
 -23   0   7   -0.35    1.75
 -22   0   7    1.74    2.01
 -21   0   7   -0.51    2.32
 -20   0   7    1.17    2.81
 -19   0   7   -0.32    2.81
 -18   0   7   -1.72    2.58
 -18   0   7   -0.72    2.94
 -17   0   7    3.82    3.70
 -17   0   7    0.36    2.75
 -17   0   7    1.52    3.28
 -16   0   7   -0.77    3.99
 -16   0   7   -2.17    3.03
 -16   0   7    0.56    2.45
 -16   0   7   -1.55    3.03
 -15   0   7    1.08    2.59
 -15   0   7   -0.30    2.59
 -15   0   7   -0.77    3.09
 -15   0   7    2.29    3.75
 -14   0   7   -1.76    2.99
 -14   0   7   -0.30    2.40
 -14   0   7   -0.38    2.99
 -14   0   7    6.68    4.40
 -13   0   7    1.02    2.63
 -13   0   7    1.52    2.59
 -13   0   7   -1.10    2.87
 -13   0   7   -0.90    1.75
 -13   0   7   -0.71    3.80
 -12   0   7   -0.97    2.33
 -12   0   7    1.78    2.61
 -12   0   7    0.35    2.60
 -12   0   7   -0.22    1.77
 -12   0   7    1.36    3.93
 -11   0   7    1.29    3.77
 -11   0   7    1.23    2.29
 -11   0   7   -1.44    2.47
 -11   0   7    0.22    1.77
 -10   0   7   -1.45    2.43
 -10   0   7   -0.61    3.75
 -10   0   7    1.39    2.32
 -10   0   7    0.70    2.00
 -10   0   7    0.84    1.65
  -9   0   7    0.27    2.04
  -9   0   7    0.58    3.74
  -9   0   7   -1.32    2.27
  -9   0   7   -1.11    3.02
  -9   0   7    0.30    2.36
  -8   0   7    2.10    2.16
  -8   0   7    2.27    2.02
  -8   0   7    0.84    2.09
  -8   0   7    1.05    2.81
  -8   0   7    0.55    3.36
  -7   0   7    1.01    2.10
  -7   0   7   -1.70    2.30
  -7   0   7    0.33    2.79
  -7   0   7   -0.52    3.54
  -6   0   7    5.51    3.47
  -5   0   7    4.41    3.62
  -4   0   7    0.38    2.83
  -4   0   7    5.35    3.70
  -3   0   7    1.35    3.47
  -3   0   7   -1.50    2.81
  -2   0   7   -4.10    4.12
  -2   0   7    0.38    3.00
  -1   0   7    4.69    3.74
  -1   0   7    3.33    3.24
   0   0   7    0.96    3.79
   0   0   7    1.85    2.87
   1   0   7   -1.94    3.87
   1   0   7    2.61    3.16
   2   0   7   -0.49    3.89
   2   0   7    0.37    2.63
   3   0   7    0.77    3.04
   4   0   7   -0.40    3.04
   4   0   7    4.29    2.72
   5   0   7    2.87    2.77
   5   0   7    2.11    2.75
   6   0   7    0.33    2.73
   6   0   7   -8.02    3.51
   7   0   7   -7.05    3.23
   7   0   7   -0.47    2.95
   8   0   7    0.37    3.14
   8   0   7   -1.00    3.01
   9   0   7   -2.36    3.39
   9   0   7    1.06    3.03
  -9   0  -7    2.11    4.32
  10   0   7    1.12    3.77
 -10   0  -7   -1.33    2.35
  10   0   7    2.06    3.43
 -10   0  -7    1.43    3.99
  11   0   7   -2.99    4.11
  11   0   7   -1.75    3.37
 -11   0  -7    0.28    2.39
 -11   0  -7    1.47    4.40
  12   0   7    0.44    4.00
 -12   0  -7   -0.29    2.50
 -12   0  -7   -4.49    4.28
  13   0   7   -1.82    3.18
  13   0   7   -3.51    3.98
 -13   0  -7    1.47    2.52
 -13   0  -7   -3.73    4.67
  14   0   7    7.35    3.89
 -14   0  -7    0.29    2.56
 -14   0  -7   10.25    4.59
  14   0   7   -4.17    3.27
  15   0   7    1.65    3.43
  16   0   7    4.61    3.92
 -16   0  -7   -2.63    3.58
  17   0   7    4.51    3.34
 -17   0  -7   -1.55    3.28
  18   0   7   -0.60    3.21
 -18   0  -7    1.96    2.65
  19   0   7    2.00    2.73
 -19   0  -7   -2.64    2.16
  20   0   7   -1.95    2.09
  21   0   7    0.79    1.39
 -24  -1   7   23.47    1.98
 -23  -1   7   17.11    2.25
 -23  -1   7   19.37    2.25
 -23   1   7   18.71    2.22
 -22  -1   7   20.74    2.66
 -22   1   7   18.15    2.58
 -21   1   7   84.79    5.58
 -21  -1   7   70.21    5.39
 -20   1   7   12.22    3.00
 -20  -1   7    8.20    2.72
 -19   1   7   73.85    5.90
 -19  -1   7   69.41    5.21
 -19   1   7   85.28    6.30
 -19  -1   7   88.69    6.34
 -18   1   7   16.57    3.39
 -18  -1   7   21.65    3.54
 -18   1   7   23.47    3.71
 -18  -1   7   20.52    3.07
 -17   1   7   72.59    6.15
 -17  -1   7   76.13    5.64
 -17   1   7   70.75    6.16
 -17  -1   7   77.58    6.21
 -16   1   7   57.21    7.61
 -16   1   7   68.02    5.98
 -16  -1   7   70.68    8.00
 -16  -1   7   58.27    5.10
 -16   1   7   66.17    5.83
 -16  -1   7   55.48    5.43
 -15   1   7  113.59    7.51
 -15   1   7  126.55    8.65
 -15   1   7  131.96   11.25
 -15  -1   7  110.98   10.66
 -15  -1   7  123.63    7.96
 -15   1   7  128.60    8.65
 -15  -1   7  133.97    8.68
 -14  -1   7  277.95   15.33
 -14   1   7  268.70   14.54
 -14  -1   7  293.79   15.94
 -14   1   7  273.84   15.37
 -14   1   7  293.82   18.78
 -14  -1   7  277.43   18.23
 -14  -1   7  286.12   14.92
 -14   1   7  292.32   15.32
 -14   1   7  288.55   15.49
 -14  -1   7  289.55   15.32
 -13   1   7    9.23    2.90
 -13  -1   7    6.94    2.72
 -13   1   7   11.65    4.91
 -13  -1   7   11.23    4.32
 -13  -1   7    6.13    3.12
 -13   1   7   11.56    2.78
 -13  -1   7   12.15    3.66
 -13   1   7   11.22    3.14
 -13   1   7   12.97    3.06
 -13  -1   7    7.73    2.75
 -12   1   7   21.03    3.54
 -12  -1   7   25.50    3.65
 -12   1   7   29.32    5.76
 -12  -1   7   22.32    5.09
 -12  -1   7   25.68    3.97
 -12   1   7   25.24    3.43
 -12   1   7   27.38    3.69
 -12  -1   7   16.60    3.72
 -12   1   7   24.10    3.80
 -12  -1   7   22.44    3.34
 -11   1   7   15.97    3.23
 -11  -1   7   15.91    3.31
 -11   1   7   29.90    5.68
 -11  -1   7   11.67    4.25
 -11  -1   7   15.85    3.55
 -11   1   7   16.19    2.87
 -11  -1   7   14.29    3.23
 -11   1   7   13.57    3.17
 -11  -1   7   16.32    2.86
 -11   1   7   16.08    3.08
 -10  -1   7    2.05    2.40
 -10   1   7    0.60    2.23
 -10  -1   7    1.56    2.48
 -10   1   7    0.26    2.20
 -10   1   7    8.17    3.98
 -10  -1   7    1.60    2.48
 -10   1   7   -0.97    2.51
 -10  -1   7    3.71    4.16
 -10  -1   7   -1.05    2.08
 -10   1   7   -1.39    2.27
  -9   1   7    6.37    3.32
  -9  -1   7    5.04    2.39
  -9  -1   7    3.28    2.53
  -9   1   7    5.97    2.67
  -9   1   7    6.51    2.76
  -9   1   7    5.93    3.60
  -9  -1   7    2.36    3.50
  -9  -1   7    6.55    2.43
  -9  -1   7    5.06    2.57
  -9   1   7    3.95    2.23
  -8  -1   7    4.60    2.44
  -8   1   7    2.16    2.42
  -8   1   7    1.25    2.17
  -8  -1   7    3.07    2.29
  -8  -1   7    3.60    3.04
  -8   1   7    0.72    2.96
  -8   1   7    3.06    2.39
  -8  -1   7    3.88    2.02
  -8   1   7    0.56    3.25
  -8  -1   7    6.16    3.80
  -8   1   7    2.70    2.89
  -7   1   7  258.45   14.08
  -7  -1   7  263.70   13.47
  -7  -1   7  253.18   14.32
  -7   1   7  243.03   14.15
  -7   1   7  277.69   14.01
  -7  -1   7  262.56   13.53
  -7   1   7  261.10   13.43
  -7  -1   7  236.96   13.07
  -7   1   7  264.38   16.01
  -7  -1   7  254.93   15.97
  -7   1   7  255.81   13.45
  -6  -1   7  114.92    7.18
  -6  -1   7  120.25    7.44
  -6  -1   7  118.01    8.07
  -6   1   7  106.41    7.90
  -6   1   7  108.73    7.17
  -6   1   7  118.25    7.39
  -6  -1   7  115.35    7.07
  -6   1   7  117.99    7.90
  -6   1   7  123.02    9.49
  -6  -1   7  127.04    9.51
  -5   1   7  219.28   14.16
  -5  -1   7  239.41   14.51
  -5   1   7  222.04   11.89
  -4   1   7  221.13   13.40
  -3   1   7  171.61   11.05
  -3  -1   7  174.36   11.04
  -2  -1   7    5.91    3.63
  -2   1   7    5.08    3.71
  -2   1   7    1.15    2.99
  -2  -1   7    7.52    3.38
  -1  -1   7  565.71   29.00
  -1   1   7  571.23   29.10
  -1   1   7  577.07   28.39
  -1  -1   7  589.27   28.30
   0  -1   7    8.69    4.05
   0   1   7    3.41    3.71
   0   1   7    5.32    3.19
   0  -1   7    5.67    3.04
   1  -1   7   64.90    6.96
   1   1   7   51.53    6.59
   1   1   7   64.73    6.07
   1  -1   7   66.26    6.19
   2  -1   7   26.43    5.15
   2   1   7   11.62    4.06
   2   1   7   27.55    4.20
   2  -1   7   23.79    3.92
   3   1   7   23.65    3.85
   3  -1   7   28.57    5.05
   3   1   7   33.44    5.43
   3  -1   7   24.82    3.88
   3   1   7   25.52    4.14
   3  -1   7   36.40    4.47
   4   1   7  228.53   13.22
   4  -1   7  235.31   13.41
   4   1   7  233.77   12.61
   4  -1   7  261.18   12.95
  -4   1  -7  241.91   14.70
   4   1   7  248.14   14.26
   4  -1   7  258.21   14.32
   5   1   7   80.34    5.46
   5  -1   7   71.41    5.44
   5   1   7   62.65    5.98
  -5   1  -7   86.44    7.63
   5   1   7   70.33    6.58
   5  -1   7   63.87    6.49
   5  -1   7   65.39    5.99
   6   1   7  181.30   10.64
   6  -1   7  170.66   10.50
   6   1   7  145.04    9.28
  -6   1  -7  164.40   11.76
   6   1   7  196.66   11.75
   6  -1   7  188.65   11.51
  -7   1  -7    1.67    3.49
   7   1   7    1.79    2.91
   7  -1   7   -0.36    3.20
   7   1   7   -0.48    2.90
   7   1   7    0.47    1.88
   7  -1   7    2.36    2.95
   8   1   7  157.65   10.86
   8  -1   7  171.72   10.90
   8   1   7  182.53   11.90
   8  -1   7  197.16   12.20
  -8   1  -7  165.21   12.41
   9   1   7   31.76    5.02
   9  -1   7   32.23    4.83
   9  -1   7   39.23    5.22
  -9   1  -7   30.17    5.61
   9   1   7   35.43    5.48
  10   1   7   40.96    5.65
  10  -1   7   41.82    5.68
 -10   1  -7   39.57    4.19
  10   1   7   45.71    5.94
  10  -1   7   49.19    6.17
 -10   1  -7   47.52    6.51
  11   1   7  386.05   20.13
  11  -1   7  372.48   19.86
 -11   1  -7  362.95   18.53
 -11  -1  -7  370.10   23.36
  11   1   7  375.56   21.31
  11  -1   7  388.30   21.25
 -11   1  -7  360.07   21.74
  12   1   7    1.73    3.66
  12  -1   7   -1.67    3.67
  12   1   7   -1.19    3.57
 -12   1  -7    1.14    2.40
  12  -1   7   -1.14    2.87
 -12  -1  -7   -4.75    5.12
 -12   1  -7    1.32    3.87
  13   1   7  361.91   19.06
  13  -1   7  345.87   18.75
 -13   1  -7  344.18   17.47
  13   1   7  349.40   20.05
  13  -1   7  354.71   20.02
 -13  -1  -7  305.94   21.03
 -13   1  -7  313.68   20.15
  14   1   7    4.19    3.98
  14  -1   7    8.51    3.80
 -14   1  -7   13.18    3.08
  15   1   7   52.95    5.99
  15  -1   7   49.21    5.73
 -15   1  -7   48.69    4.67
 -15  -1  -7   52.07    6.09
 -15   1  -7   51.26    6.21
  16  -1   7   26.51    4.47
  16   1   7   27.07    4.66
 -16   1  -7   26.67    3.49
 -16  -1  -7   27.70    4.58
 -16   1  -7   28.70    4.63
  17  -1   7   10.98    3.49
  17   1   7    6.99    3.49
 -17   1  -7    5.81    2.34
 -17  -1  -7   10.04    3.18
 -17   1  -7    5.48    3.23
  18  -1   7   32.05    4.07
  18   1   7   40.85    4.23
 -18  -1  -7   29.27    3.88
 -18   1  -7   27.99    3.77
  19   1   7   -0.21    2.32
  19  -1   7    0.21    2.24
  20  -1   7   -0.91    1.69
  20   1   7    1.38    1.71
 -23  -2   7   73.57    4.12
 -22  -2   7    9.58    1.81
 -22  -2   7    6.94    1.21
 -21  -2   7   42.51    3.66
 -21  -2   7   39.55    3.10
 -20  -2   7   52.70    4.36
 -20  -2   7   49.71    3.83
 -20  -2   7   41.00    3.52
 -19  -2   7  116.10    7.50
 -19   2   7   99.78    6.57
 -19  -2   7  120.58    7.07
 -19  -2   7  113.32    6.88
 -19   2   7  126.90    6.99
 -18   2   7  390.85   19.33
 -18  -2   7  408.52   19.59
 -18  -2   7  400.86   19.39
 -18   2   7  405.74   19.43
 -17  -2   7   26.90    3.38
 -17   2   7   23.96    3.47
 -17  -2   7   26.96    3.65
 -17   2   7   21.52    3.30
 -16  -2   7  162.88    9.77
 -16   2   7  162.52    9.86
 -16  -2   7  172.10   10.05
 -16   2   7  171.19    9.85
 -15   2   7  270.56   14.71
 -15   2   7  275.04   14.54
 -15  -2   7  287.84   14.90
 -15  -2   7  265.99   14.42
 -14  -2   7   14.44    4.33
 -14  -2   7   20.72    3.27
 -14   2   7   19.57    3.35
 -14   2   7   17.09    3.58
 -14  -2   7   16.92    3.38
 -13   2   7  284.21   14.80
 -13   2   7  268.57   14.39
 -13  -2   7  273.15   14.66
 -13   2   7  245.45   16.82
 -13  -2   7  255.26   16.76
 -13  -2   7  276.30   14.41
 -12   2   7    6.89    2.60
 -12   2   7    2.52    3.48
 -12  -2   7    9.17    2.21
 -12  -2   7   16.09    3.07
 -12  -2   7   12.85    4.21
 -12   2   7    9.92    2.38
 -12   2   7    8.11    2.98
 -12  -2   7   12.85    3.33
 -12   2   7   10.87    3.06
 -11  -2   7  721.36   34.21
 -11  -2   7  775.15   35.28
 -11   2   7  718.94   34.27
 -11   2   7  797.91   34.81
 -11   2   7  717.16   37.36
 -11   2   7  775.11   35.31
 -11   2   7  782.79   35.27
 -11  -2   7  752.18   34.59
 -11  -2   7  663.68   36.91
 -10  -2   7   55.27    4.59
 -10  -2   7   52.73    5.17
 -10  -2   7   55.26    5.16
 -10   2   7   58.75    5.49
 -10  -2   7   47.57    4.47
 -10  -2   7   55.07    6.44
 -10   2   7   39.80    6.04
 -10   2   7   42.37    4.49
  -9   2   7  230.50   15.14
  -9  -2   7  203.27   14.55
  -9  -2   7  234.64   12.80
  -9  -2   7  263.57   13.70
  -9  -2   7  253.55   13.54
  -9   2   7  257.81   13.79
  -9   2   7  244.64   12.85
  -9  -2   7  235.59   12.75
  -9   2   7  238.03   12.83
  -8   2   7    1.58    2.08
  -8  -2   7    3.25    2.24
  -8  -2   7    2.53    2.25
  -8   2   7   -2.24    3.39
  -8  -2   7    0.62    2.72
  -8   2   7    6.26    2.70
  -8   2   7    5.48    2.47
  -8  -2   7    1.83    1.73
  -8  -2   7    3.23    2.65
  -7  -2   7   86.88    6.17
  -7  -2   7   82.06    6.42
  -7  -2   7   90.45    6.79
  -7  -2   7   83.67    5.91
  -7  -2   7   75.49    6.14
  -7   2   7   85.74    6.80
  -7   2   7   94.55    6.43
  -7  -2   7   91.13    5.77
  -7  -2   7   85.48    6.34
  -7   2   7   81.59    5.95
  -6  -2   7  210.87   11.48
  -6  -2   7  218.40   11.85
  -6  -2   7  212.90   12.05
  -6  -2   7  216.98   11.39
  -6  -2   7  193.19   11.86
  -6   2   7  222.74   11.69
  -6   2   7  208.93   11.23
  -6  -2   7  197.96   10.96
  -6  -2   7  200.17   11.43
  -5  -2   7  270.15   13.90
  -5  -2   7  276.28   14.20
  -5  -2   7  270.69   13.49
  -5  -2   7  260.41   14.30
  -5  -2   7  260.90   14.39
  -5   2   7  268.74   15.08
  -5   2   7  267.66   14.01
  -5  -2   7  244.54   13.33
  -5  -2   7  271.12   13.98
  -5   2   7  254.98   13.46
  -4  -2   7   92.58    6.75
  -4  -2   7   92.67    6.86
  -4   2   7  101.99    7.66
  -4  -2   7   93.29    6.96
  -4   2   7   93.55    6.82
  -4  -2   7   91.51    6.24
  -4  -2   7   96.04    6.13
  -4  -2   7  102.08    6.77
  -4   2   7   97.02    6.22
   4  -2  -7   94.62    7.49
  -3   2   7    6.18    2.12
  -3  -2   7    6.10    2.52
  -3  -2   7    9.64    2.88
  -3  -2   7    7.31    2.28
  -3  -2   7    8.85    2.71
  -3   2   7   10.05    2.87
  -3  -2   7    6.03    2.20
  -3  -2   7    4.00    2.40
  -3   2   7   12.86    3.66
  -2  -2   7  231.63   11.90
  -2  -2   7  250.05   12.79
  -2  -2   7  244.04   12.63
  -2  -2   7  204.24   12.46
  -2   2   7  222.53   12.54
  -2  -2   7  227.71   12.15
  -2  -2   7  223.53   12.24
  -2   2   7  235.01   13.42
  -1  -2   7  102.82    7.52
  -1  -2   7  116.66    7.42
  -1   2   7  133.36    8.01
  -1  -2   7  117.68    7.38
  -1  -2   7  114.23    7.50
  -1   2   7  121.76    8.48
  -1  -2   7  105.48    8.12
  -1  -2   7  122.30    7.19
   0  -2   7  484.31   24.92
   0  -2   7  507.76   26.40
   0   2   7  510.16   26.51
   0  -2   7  533.05   24.68
   0  -2   7  527.45   24.78
   0   2   7  559.67   26.09
   0  -2   7  523.58   25.94
   1  -2   7  260.91   14.71
   1  -2   7  272.81   16.30
   1   2   7  280.29   16.40
   1  -2   7  290.25   14.67
   1   2   7  298.79   15.98
   1  -2   7  298.02   15.89
   2  -2   7   17.86    3.21
   2  -2   7   16.24    4.10
   2   2   7   18.48    4.08
   2  -2   7   21.14    3.20
   2   2   7   14.02    3.60
   2  -2   7   20.08    3.81
   3  -2   7  342.66   18.54
   3  -2   7  401.70   20.79
   3   2   7  370.36   20.55
   3  -2   7  372.20   18.33
   3   2   7  386.12   19.58
   3  -2   7  343.91   19.20
   4   2   7   10.10    3.06
   4  -2   7    4.32    3.48
   4   2   7    9.19    3.95
   4  -2   7    8.76    2.76
   4   2   7    9.60    3.06
   4  -2   7    5.84    2.81
   5  -2   7   72.56    6.36
   5   2   7   72.82    6.34
   5  -2   7   68.82    7.83
   5   2   7   75.61    7.69
   5  -2   7   95.23    6.43
   5   2   7   94.06    7.34
   5  -2   7   76.79    6.95
   6  -2   7   37.08    4.72
   6   2   7   34.37    4.39
   6  -2   7   38.50    4.21
   6  -2   7   35.93    5.46
   6   2   7   28.94    5.48
   6   2   7   35.01    4.71
   6  -2   7   37.01    4.77
   7  -2   7  704.40   33.35
   7   2   7  691.45   33.23
   7  -2   7  727.97   32.99
   7  -2   7  636.39   35.26
   7   2   7  727.18   34.45
   7  -2   7  716.55   34.39
   8  -2   7   17.09    3.44
   8   2   7   10.99    3.56
   8  -2   7   16.18    3.03
   8   2   7   16.07    3.72
   8  -2   7   13.59    3.49
   9   2   7  552.62   27.32
  -9   2  -7  595.95   26.61
   9   2   7  580.88   28.62
   9  -2   7  511.75   27.98
   9  -2   7  535.96   27.22
  10  -2   7   48.15    5.17
 -10   2  -7   45.00    4.64
  10   2   7   56.35    5.64
  10   2   7   46.67    5.48
  11  -2   7    3.97    3.22
  11   2   7    5.47    3.13
 -11   2  -7    3.64    2.63
 -11  -2  -7    8.74    4.54
  11   2   7    1.00    2.81
  12   2   7  212.64   12.39
 -12   2  -7  203.18   11.56
  12  -2   7  210.57   12.30
  13  -2   7   10.66    3.41
  13   2   7    5.78    3.03
 -13   2  -7    9.47    2.82
 -13  -2  -7    3.22    3.39
 -13   2  -7    7.80    3.41
  14   2   7  149.09    9.12
  14  -2   7  135.74    8.79
 -14   2  -7  143.75    8.35
 -14  -2  -7  126.58    9.24
 -14   2  -7  117.94    8.71
  15  -2   7   56.06    5.09
  15   2   7   60.50    5.36
 -15   2  -7   58.71    4.68
 -15   2  -7   49.02    4.93
 -15  -2  -7   41.92    5.01
 -16  -2  -7   20.27    3.14
  16   2   7   18.60    3.23
 -16   2  -7   23.49    2.96
 -16  -2  -7   17.05    3.22
 -17  -2  -7  144.72    7.89
 -17   2  -7  158.67    7.94
 -18   2  -7   21.25    2.26
 -20  -3   7  231.09   11.06
 -20  -3   7  231.45   11.06
 -19  -3   7  276.44   13.41
 -18  -3   7   51.20    4.14
 -17  -3   7  332.68   16.51
 -16  -3   7    3.96    2.57
 -16   3   7    0.51    2.45
 -16  -3   7    1.79    2.30
 -15  -3   7  847.48   38.28
 -15  -3   7  823.71   38.11
 -15   3   7  824.33   38.18
 -14  -3   7   37.78    4.45
 -14   3   7   33.77    3.74
 -14  -3   7   43.05    4.63
 -14   3   7   42.74    4.62
 -13  -3   7  236.31   12.41
 -13  -3   7  254.69   13.38
 -13   3   7  214.83   12.47
 -13  -3   7  240.83   13.15
 -13   3   7  240.07   13.29
 -12  -3   7   34.47    3.72
 -12  -3   7   24.08    3.89
 -12   3   7   34.91    4.45
 -12   3   7   27.91    3.72
 -12  -3   7   30.75    4.31
 -11  -3   7   16.23    2.91
 -11  -3   7   16.73    3.49
 -11   3   7   14.99    3.21
 -11  -3   7   16.82    3.62
 -10  -3   7  281.54   14.33
 -10  -3   7  262.28   14.51
 -10   3   7  254.40   14.33
 -10  -3   7  249.68   13.20
 -10  -3   7  276.42   14.60
  -9  -3   7   47.29    4.81
  -9  -3   7   48.60    4.99
  -9   3   7   46.27    5.06
  -9   3   7   44.05    4.34
  -9  -3   7   42.66    4.01
  -9  -3   7   50.12    4.90
  -8  -3   7  504.43   24.76
  -8  -3   7  507.51   24.96
  -8  -3   7  540.51   25.00
  -8   3   7  523.16   25.37
  -8   3   7  518.82   24.48
  -8  -3   7  472.78   23.99
  -8  -3   7  519.60   24.97
  -7  -3   7  272.93   14.80
  -7  -3   7  262.06   14.84
  -7  -3   7  280.41   14.87
  -7   3   7  288.08   15.45
  -7   3   7  274.54   14.64
  -7  -3   7  277.02   14.28
  -7  -3   7  265.58   14.80
  -7   3   7  291.59   16.51
  -6  -3   7  320.97   17.04
  -6  -3   7  374.12   17.56
  -6   3   7  305.75   18.17
  -6   3   7  331.49   17.65
  -6   3   7  319.81   16.85
  -6  -3   7  309.16   16.42
  -6  -3   7  328.03   17.11
  -5   3   7  384.13   21.31
  -5  -3   7  395.41   20.08
  -5  -3   7  400.81   20.05
  -5   3   7  407.26   20.07
  -5  -3   7  393.80   19.59
  -5  -3   7  392.67   19.99
  -4   3   7   65.81    7.08
  -4  -3   7   56.79    5.35
  -4  -3   7   58.52    5.36
  -4   3   7   60.16    5.64
  -4  -3   7   63.66    5.31
  -4  -3   7   67.83    5.62
  -3  -3   7  705.82   32.79
  -3   3   7  690.77   33.07
  -3  -3   7  687.03   32.59
  -3  -3   7  731.92   32.92
  -3   3   7  683.06   34.13
   3  -3  -7  703.97   35.18
  -2   3   7   81.09    7.50
  -2  -3   7   78.91    6.44
  -2   3   7   89.48    7.03
  -2  -3   7   91.96    6.49
  -2  -3   7   86.37    6.39
   2  -3  -7   87.51    8.34
  -1  -3   7  453.28   22.54
  -1   3   7  463.93   23.87
  -1  -3   7  462.22   22.47
   1  -3  -7  460.62   25.64
   0  -3   7   92.75    7.06
   0   3   7   96.87    8.13
   0  -3   7  103.71    7.08
   0  -3  -7  113.20    9.96
   1  -3   7    5.02    3.03
   1  -3   7    6.64    2.73
   1   3   7    3.56    3.58
  -1  -3  -7   10.02    4.04
   2   3   7   75.94    7.32
   2  -3   7   79.98    6.24
  -2  -3  -7   69.57    8.56
   3  -3   7   59.12    5.35
  -3  -3  -7   63.31    8.17
   4  -3   7  220.06   12.35
  -4  -3  -7  220.98   16.42
   5  -3   7   17.29    3.42
  -5  -3  -7    0.80    4.51
   6  -3   7   19.99    3.50
  -6  -3  -7   12.33    4.84
  -7   3  -7  232.25   12.19
   7  -3   7  205.87   12.10
  -7  -3  -7  205.89   15.38
  -8   3  -7   35.31    4.19
   8  -3   7   38.81    4.37
  -9   3  -7  280.01   14.62
 -10   3  -7  133.58    8.23
 -11  -3  -7  436.74   21.79
 -11   3  -7  410.82   20.26
 -12   3  -7    5.75    2.36
  12   3   7    5.05    2.18
 -13   3  -7  240.99   12.32
 -14  -3  -7   22.02    3.41
 -14   3  -7   18.71    2.57
 -15  -3  -7   64.57    4.90
 -15   3  -7   58.76    4.07
 -16  -3  -7   66.88    4.24
 -16   3  -7   59.75    3.59
 -17  -4   7    1.53    1.05
 -16  -4   7  204.92   10.06
 -15  -4   7   33.83    3.11
 -15   4   7   32.23    3.11
 -14   4   7  202.46   11.10
 -14  -4   7  230.25   11.17
 -13  -4   7  190.56    9.72
 -13   4   7  163.81    9.69
 -12  -4   7  123.51    7.35
 -12   4   7  114.86    7.48
 -11  -4   7  605.55   28.88
 -11   4   7  652.36   29.42
 -10  -4   7    2.31    1.66
 -10  -4   7    1.97    2.26
 -10   4   7    7.18    2.84
  -9  -4   7  531.18   23.16
  -9  -4   7  490.59   22.26
  -9  -4   7  497.15   22.78
  -8   4   7    4.27    2.20
  -8  -4   7    8.19    2.31
  -8  -4   7    5.07    2.44
  -7   4   7  346.89   18.30
  -7   4   7  365.12   17.93
  -7  -4   7  372.24   18.17
  -7  -4   7  391.45   18.33
  -6  -4   7   85.06    6.68
  -6   4   7   77.73    6.33
  -6   4   7   82.36    6.01
  -6  -4   7   92.00    6.25
  -6  -4   7   84.16    6.05
  -5  -4   7  160.14    9.77
  -5   4   7  142.57    9.40
  -5   4   7  152.13    8.99
  -5  -4   7  151.65    9.03
  -5  -4   7  139.46    8.58
  -4   4   7  593.42   29.70
  -4   4   7  616.98   29.31
  -4  -4   7  613.63   29.24
  -4  -4   7  596.67   28.75
  -3  -4   7   60.96    5.72
  -3   4   7   54.89    5.17
  -3  -4   7   54.93    5.02
  -3  -4   7   43.49    4.29
  -3   4   7   52.17    6.00
  -2  -4   7  296.04   15.99
  -2   4   7  292.81   16.81
  -2   4   7  310.79   15.98
  -1  -4   7  144.88    9.50
  -1   4   7  160.83   10.41
  -1   4   7  141.28    9.51
   0  -4   7  134.67    9.15
   0   4   7  142.55   10.04
   0   4   7  147.42    9.38
   0  -4   7  148.89    9.16
   1  -4   7  149.19    9.54
   1  -4   7  146.76    9.19
   1   4   7  147.38   10.14
  -2  -4  -7  151.02    9.26
   2  -4   7  136.69    8.77
   2   4   7  155.11    9.97
  -3  -4  -7  350.01   18.01
   3  -4   7  325.44   17.51
   3   4   7  316.98   18.11
   3  -4   7  361.21   17.46
  -4  -4  -7   21.17    3.88
   4  -4   7   16.75    3.64
   4  -4   7   18.22    3.31
   4   4   7   14.42    3.76
   5  -4   7  363.64   18.48
  -5  -4  -7  338.35   18.79
   5  -4   7  380.21   18.21
   5   4   7  359.18   18.89
  -6  -4  -7   33.49    4.66
   6  -4   7   40.00    4.37
   6  -4   7   37.35    3.99
   6   4   7   32.33    4.54
  -7  -4  -7  300.13   15.40
  -7   4  -7  265.89   13.90
   7   4   7  262.86   14.83
   7  -4   7  301.31   14.48
   7  -4   7  283.77   14.84
  -8  -4  -7  171.38    9.99
  -8   4  -7  146.76    8.55
   8   4   7  156.48    9.44
   8  -4   7  169.98    9.55
  -9  -4  -7  104.99    7.05
   9  -4   7  111.93    6.82
 -10   4  -7   67.77    4.72
  10   4   7   87.78    5.64
 -10  -4  -7   91.74    6.04
  10  -4   7   74.59    5.52
 -11  -4  -7   10.62    2.65
 -11   4  -7    5.18    1.56
  11  -4   7    8.06    2.21
  11   4   7    8.97    2.15
 -12  -4  -7   95.31    5.34
  12   4   7   58.94    4.25
 -13  -4  -7   21.72    2.47
 -11   5   7   41.30    2.83
 -10   5   7  154.15    7.76
  -9   5   7    2.08    1.48
  -8  -5   7  254.54   12.12
  -8   5   7  265.97   12.66
  -7  -5   7  189.99    9.18
  -7   5   7  175.50    9.49
  -6  -5   7  127.21    6.92
  -5  -5   7  306.17   14.66
  -4  -5   7   89.42    5.62
  -3  -5   7  311.34   13.71
  -3   5   7  240.25   12.52
  -2   5   7   10.79    2.10
  -2  -5   7   20.72    2.81
  -1  -5   7  352.81   15.32
  -1  -5   7  345.73   14.90
   0  -5   7  111.95    6.70
   0   5   7  104.16    6.14
   0  -5   7  106.44    6.24
   1  -5   7  213.19   10.68
   1   5   7  190.31    9.91
   1  -5   7  207.20   10.00
   2  -5   7  168.24    9.69
   2   5   7  180.08    9.46
   2  -5   7  185.01    9.33
   3  -5   7   47.52    4.11
   3   5   7   43.26    3.86
   3  -5   7   56.60    3.84
   4   5   7  299.78   14.41
   4  -5   7  297.33   14.08
   5   5   7   10.18    2.02
   5  -5   7    3.45    1.44
   6   5   7  417.95   19.20
   7   5   7   27.66    2.58
 -23   0   8  344.53   16.01
 -22   0   8  185.96    9.77
 -21   0   8  213.09   10.91
 -21   0   8  231.05   11.73
 -20   0   8  335.82   16.90
 -19   0   8   60.01    5.57
 -19   0   8   55.71    5.29
 -18   0   8 1165.24   53.72
 -18   0   8 1203.31   53.56
 -17   0   8   38.33    4.77
 -17   0   8   36.60    5.12
 -16   0   8  985.77   45.97
 -16   0   8 1043.27   47.20
 -16   0   8  949.24   50.20
 -16   0   8 1070.93   46.90
 -15   0   8   25.53    4.02
 -15   0   8   28.65    3.86
 -15   0   8   22.78    5.91
 -15   0   8   35.51    4.83
 -14   0   8  111.31    8.26
 -14   0   8  133.24    9.04
 -14   0   8  111.76   10.82
 -14   0   8  138.82    8.98
 -13   0   8  370.09   19.22
 -13   0   8  387.30   22.86
 -13   0   8  368.83   19.36
 -12   0   8 1132.33   49.09
 -12   0   8 1024.26   47.85
 -12   0   8 1106.05   52.93
 -12   0   8 1087.89   49.19
 -11   0   8 1781.84   75.59
 -11   0   8 1770.43   76.06
 -11   0   8 1642.44   74.46
 -11   0   8 1674.86   79.21
 -11   0   8 1668.47   75.55
 -10   0   8   29.09    3.88
 -10   0   8   31.44    6.15
 -10   0   8   31.62    4.21
 -10   0   8   36.96    4.40
 -10   0   8   32.20    3.43
  -9   0   8 2117.34   93.87
  -9   0   8 2246.37   94.66
  -9   0   8 2118.65   94.60
  -9   0   8 2134.24   95.72
  -9   0   8 2233.01   94.87
  -9   0   8 2125.70   93.74
  -9   0   8 2149.50   98.07
  -8   0   8 1019.38   47.60
  -8   0   8 1135.79   48.50
  -8   0   8 1118.66   48.75
  -8   0   8 1075.74   49.45
  -8   0   8 1042.72   47.63
  -8   0   8 1058.57   48.46
  -8   0   8 1095.75   51.61
  -7   0   8  280.08   13.79
  -7   0   8  283.46   14.50
  -7   0   8  281.09   14.60
  -7   0   8  279.61   15.38
  -7   0   8  247.77   14.15
  -7   0   8  268.14   13.71
  -7   0   8  269.22   14.46
  -7   0   8  261.85   17.00
  -6   0   8 1282.03   56.72
  -6   0   8 1144.99   52.49
  -6   0   8 1267.04   53.52
  -6   0   8 1192.65   54.21
  -6   0   8 1187.05   52.64
  -6   0   8 1136.68   53.23
  -5   0   8  157.85    9.20
  -5   0   8  163.49    9.29
  -5   0   8  142.82    9.79
  -5   0   8  147.31    8.56
  -5   0   8  144.42    8.98
  -4   0   8 1599.13   73.51
  -4   0   8 1736.21   72.98
  -4   0   8 1661.20   73.80
  -4   0   8 1616.22   72.26
  -4   0   8 1666.73   75.09
  -4   0   8 1646.66   72.81
  -3   0   8    4.17    3.40
  -3   0   8    4.95    2.39
  -3   0   8    5.95    3.41
  -3   0   8    3.12    2.24
  -2   0   8  837.44   40.36
  -2   0   8  872.35   42.47
  -2   0   8  956.42   41.95
  -2   0   8  854.53   39.69
  -1   0   8   56.15    7.04
  -1   0   8   67.05    6.57
  -1   0   8   58.95    5.05
  -1   0   8   56.01    5.74
   0   0   8  400.53   21.59
   0   0   8  456.63   24.19
   0   0   8  460.40   23.04
   1   0   8  309.46   16.66
   1   0   8  288.17   18.45
   1   0   8  327.17   17.71
   2   0   8 1040.90   46.41
   2   0   8 1024.51   50.26
   2   0   8 1108.45   49.16
   2   0   8 1008.51   47.60
   3   0   8  258.55   14.54
   3   0   8  257.96   13.16
   3   0   8  236.10   16.44
   3   0   8  291.04   15.83
   4   0   8   26.76    4.30
   4   0   8   36.42    6.10
   4   0   8   30.16    4.90
   5   0   8  215.21   13.28
   5   0   8  249.08   14.60
   6   0   8   85.79    7.58
   6   0   8  113.63    8.72
   7   0   8 1050.28   49.57
   7   0   8 1108.99   51.08
   8   0   8  152.92   10.70
  -8   0  -8  147.89   12.78
   8   0   8  164.76   11.71
   9   0   8  110.29    8.89
  -9   0  -8  104.05   10.50
   9   0   8  120.79    9.80
  10   0   8  740.02   35.25
 -10   0  -8  686.33   37.79
  10   0   8  725.60   36.43
  11   0   8    5.79    3.94
  11   0   8    4.83    3.63
 -11   0  -8   14.21    4.85
  12   0   8  137.18   10.19
  12   0   8  135.83   10.80
 -12   0  -8  137.61   12.16
  13   0   8   11.99    4.37
  14   0   8  698.04   33.86
  15   0   8   -1.12    3.76
 -15   0  -8    2.50    3.19
  16   0   8  453.58   21.61
 -16   0  -8  393.34   21.53
  17   0   8  106.04    7.40
 -17   0  -8   98.60    7.41
  18   0   8   19.57    3.48
 -18   0  -8   19.82    3.08
  19   0   8  226.59   11.51
  20   0   8    3.10    1.32
 -23  -1   8   18.70    1.75
 -23  -1   8   15.52    1.70
 -23   1   8   19.17    1.77
 -22  -1   8  242.41   11.71
 -22   1   8  230.82   11.73
 -22  -1   8  251.96   11.82
 -21  -1   8  251.75   12.73
 -21  -1   8  270.04   12.96
 -21   1   8  250.08   12.82
 -20  -1   8  230.20   12.21
 -20  -1   8  244.15   12.36
 -20   1   8  229.20   12.28
 -19   1   8  227.76   12.62
 -19   1   8  251.80   12.82
 -19  -1   8  227.28   12.58
 -18  -1   8   21.94    3.60
 -18   1   8   27.30    3.83
 -18   1   8   18.01    3.56
 -18  -1   8   23.14    2.83
 -17   1   8  284.38   15.33
 -17  -1   8  277.77   14.45
 -17  -1   8  275.87   15.22
 -17   1   8  307.35   15.56
 -16  -1   8    0.67    2.81
 -16   1   8    2.08    2.80
 -16   1   8    3.87    2.13
 -16  -1   8    3.84    3.53
 -16   1   8    0.35    2.99
 -16  -1   8    1.30    2.21
 -15   1   8  370.74   18.96
 -15  -1   8  387.89   20.29
 -15   1   8  393.58   20.07
 -15  -1   8  383.04   19.13
 -15   1   8  386.47   23.26
 -15  -1   8  351.15   22.76
 -15  -1   8  392.60   19.92
 -15   1   8  416.66   20.20
 -14  -1   8  359.93   19.42
 -14   1   8  350.96   18.75
 -14  -1   8  401.70   20.16
 -14   1   8  395.52   19.94
 -14  -1   8  395.04   19.07
 -14   1   8  371.73   22.96
 -14  -1   8  367.51   22.60
 -14  -1   8  368.34   19.42
 -14   1   8  405.34   19.87
 -13  -1   8  387.78   20.31
 -13   1   8  395.86   19.68
 -13  -1   8  392.94   20.64
 -13   1   8  411.86   20.63
 -13  -1   8  396.69   19.70
 -13   1   8  373.17   23.32
 -13  -1   8  367.75   23.08
 -13   1   8  395.59   19.90
 -13  -1   8  389.41   20.16
 -13   1   8  417.35   20.52
 -12  -1   8 1060.75   47.64
 -12   1   8 1024.84   46.94
 -12  -1   8 1020.48   47.56
 -12   1   8 1081.94   47.81
 -12  -1   8 1036.57   46.91
 -12   1   8  957.53   50.65
 -12  -1   8 1020.34   50.72
 -12   1   8 1054.84   47.08
 -12  -1   8 1029.87   47.35
 -12   1   8 1028.16   47.43
 -11   1   8   51.86    7.18
 -11  -1   8   53.56    7.41
 -11  -1   8   51.42    5.02
 -11  -1   8   46.40    5.32
 -11   1   8   51.89    4.87
 -11  -1   8   52.88    5.40
 -11   1   8   47.13    5.20
 -11  -1   8   47.53    4.73
 -11   1   8   56.55    4.94
 -11  -1   8   49.22    5.19
 -11   1   8   56.56    5.36
 -10  -1   8 1065.52   48.36
 -10  -1   8 1055.38   48.69
 -10   1   8 1100.30   48.30
 -10  -1   8 1011.47   48.51
 -10  -1   8 1095.43   51.97
 -10   1   8 1153.03   49.04
 -10   1   8 1081.11   51.97
 -10  -1   8 1062.37   48.06
 -10   1   8 1060.04   48.10
 -10  -1   8 1034.36   48.38
 -10   1   8 1041.71   48.49
  -9  -1   8   15.00    3.33
  -9  -1   8   14.35    3.11
  -9   1   8   13.82    3.26
  -9   1   8   12.43    3.20
  -9  -1   8    9.65    2.98
  -9   1   8   11.92    3.38
  -9   1   8    9.35    4.36
  -9  -1   8   16.61    4.66
  -9  -1   8   12.90    2.83
  -9   1   8   14.91    2.97
  -9   1   8   17.57    3.97
  -8   1   8 1760.32   82.33
  -8  -1   8 1744.67   82.37
  -8  -1   8 1783.93   78.92
  -8  -1   8 1830.64   79.14
  -8  -1   8 1775.96   80.13
  -8   1   8 1810.29   80.20
  -8   1   8 1762.34   78.65
  -8  -1   8 1786.96   78.79
  -8   1   8 1815.24   79.93
  -8  -1   8 1838.18   79.24
  -8   1   8 1785.08   79.14
  -7   1   8  286.66   17.65
  -7  -1   8  282.33   17.67
  -7  -1   8  279.44   14.72
  -7  -1   8  276.25   14.88
  -7  -1   8  275.21   14.76
  -7  -1   8  278.34   15.79
  -7   1   8  294.25   15.98
  -7  -1   8  291.76   14.73
  -7   1   8  278.79   14.45
  -7   1   8  282.12   15.56
  -7  -1   8  275.25   14.88
  -7   1   8  298.80   15.14
  -6  -1   8   77.23    5.90
  -6  -1   8   71.78    5.95
  -6   1   8   85.78    6.93
  -6  -1   8   80.34    6.03
  -6   1   8   86.75    6.83
  -6  -1   8   79.81    6.90
  -6   1   8   81.98    6.93
  -6   1   8   89.45    6.22
  -6  -1   8   84.11    6.00
  -6  -1   8   78.13    6.11
  -6   1   8   77.42    6.08
  -5  -1   8 1039.91   47.43
  -5  -1   8 1057.96   47.57
  -5  -1   8  982.55   47.15
  -5   1   8 1104.37   48.35
  -5  -1   8 1082.50   48.60
  -5   1   8 1084.40   48.63
  -5   1   8 1129.62   47.73
  -5  -1   8  987.78   46.70
  -5  -1   8 1045.68   47.36
  -5   1   8 1081.89   47.64
  -5  -1   8 1099.41   47.74
  -5   1   8 1052.12   48.26
  -4   1   8    1.39    2.20
  -4  -1   8    6.39    2.29
  -4  -1   8    2.45    2.18
  -4   1   8    1.94    2.48
  -4  -1   8    0.73    3.28
  -4   1   8    0.74    3.04
  -4  -1   8    6.75    2.59
  -4  -1   8    3.92    2.04
  -4  -1   8   -0.26    2.19
  -4   1   8    0.70    2.83
  -3  -1   8  680.97   33.73
  -3   1   8  728.87   33.88
  -3  -1   8  702.15   32.95
  -3  -1   8  698.70   32.89
  -3  -1   8  732.75   33.23
  -3  -1   8  683.19   32.53
  -3  -1   8  717.31   32.91
  -3   1   8  797.28   35.50
  -3  -1   8  749.02   35.27
  -3   1   8  727.79   33.13
  -3   1   8  711.19   33.81
  -2   1   8   10.75    3.86
  -2  -1   8   10.65    3.61
  -2  -1   8   10.91    2.88
  -2   1   8   14.08    2.92
  -2  -1   8    9.81    3.43
  -2   1   8   15.90    3.98
  -2  -1   8   16.89    3.07
  -2   1   8   12.34    2.82
  -2  -1   8   10.40    4.34
  -2   1   8   19.33    5.30
  -2  -1   8   12.31    2.51
  -2  -1   8    9.74    2.84
  -1   1   8  762.79   36.63
  -1  -1   8  776.97   35.58
  -1   1   8  794.67   35.83
  -1  -1   8  748.40   38.41
  -1   1   8  802.86   38.84
  -1  -1   8  757.67   35.47
  -1   1   8  844.45   38.00
  -1  -1   8  810.04   37.80
  -1  -1   8  749.95   36.48
   0  -1   8  244.14   12.81
   0   1   8  237.27   13.10
   0  -1   8  248.93   15.81
   0   1   8  229.11   15.46
   0  -1   8  232.73   12.85
   0  -1   8  238.77   13.80
   0   1   8  260.38   14.99
   0  -1   8  300.89   15.48
   0   1   8  255.36   13.95
   1   1   8   90.46    7.21
   1  -1   8   88.64    7.08
   1   1   8   86.67    6.44
   1  -1   8   94.62    8.95
   1   1   8   83.38    8.53
   1  -1   8   90.58    6.33
   1   1   8   92.66    8.03
   1  -1   8   95.95    7.87
   2  -1   8  664.11   32.47
   2   1   8  689.66   31.77
   2  -1   8  730.06   35.24
   2   1   8  692.92   34.90
   2  -1   8  657.53   31.61
   2   1   8  639.77   32.34
   2   1   8  708.72   33.66
   2  -1   8  733.56   33.85
   3   1   8  257.32   15.04
   3  -1   8  268.62   15.11
   3   1   8  271.48   14.30
   3  -1   8  276.41   17.36
   3   1   8  290.33   17.48
   3   1   8  299.69   16.45
   3  -1   8  273.81   16.24
   4  -1   8  727.51   36.07
   4   1   8  724.77   35.96
   4   1   8  774.27   35.20
   4  -1   8  765.57   38.79
   4   1   8  753.04   38.53
   4   1   8  819.87   37.54
   4  -1   8  811.67   37.50
   5   1   8    6.45    3.57
   5  -1   8   11.46    3.71
   5   1   8   15.07    2.82
   5  -1   8   21.01    5.30
   5   1   8    7.85    4.55
   5   1   8   15.92    3.95
   5  -1   8   15.96    3.83
   6   1   8 1629.15   72.90
   6  -1   8 1567.93   72.74
   6   1   8 1602.09   71.50
   6   1   8 1713.44   74.38
   6  -1   8 1663.72   74.21
   7   1   8  206.80   12.84
   7  -1   8  213.26   12.87
   7   1   8  200.05   11.29
   7   1   8  224.27   14.02
   7  -1   8  223.70   13.88
   8   1   8  121.60    9.60
   8  -1   8  137.13    9.72
   8   1   8  156.97   10.88
   8  -1   8  132.34   10.35
   9   1   8  196.81   12.99
   9  -1   8  217.10   13.19
   9   1   8  211.55   14.02
   9  -1   8  213.08   14.02
  10   1   8  112.56    8.81
  10  -1   8  107.80    8.68
 -10  -1  -8   91.81   10.74
  10   1   8  117.43    9.76
  10  -1   8  119.26    9.52
  11   1   8  154.20   10.91
  11  -1   8  152.55   10.61
 -11  -1  -8  138.46   12.73
  11   1   8  171.09   11.98
  11  -1   8  154.27   11.39
  12  -1   8   17.81    4.37
  12   1   8   27.52    4.97
  13  -1   8  154.32   10.34
  13   1   8  168.36   10.78
 -13   1  -8  136.54    8.61
  14  -1   8  200.88   12.06
  14   1   8  199.93   12.06
 -14   1  -8  181.25   10.32
  15  -1   8  254.61   13.66
  15   1   8  268.86   13.96
 -15   1  -8  233.44   12.09
 -15  -1  -8  212.32   13.64
 -15   1  -8  211.78   13.52
  16  -1   8   87.63    6.46
  16   1   8   82.65    6.40
 -16  -1  -8   72.66    6.37
 -16   1  -8   64.57    6.14
  17  -1   8   95.68    6.48
  17   1   8  104.93    6.63
 -17  -1  -8   69.65    6.17
 -17   1  -8   79.64    6.21
  18  -1   8  253.47   12.78
  18   1   8  247.32   12.69
  19  -1   8    5.07    1.63
  19   1   8    4.19    1.65
 -22  -2   8   59.05    3.57
 -21  -2   8   13.03    1.99
 -20  -2   8   48.17    3.93
 -20  -2   8   47.48    3.47
 -19  -2   8    5.18    2.18
 -19   2   8    4.89    1.80
 -19  -2   8    4.01    1.63
 -19  -2   8    5.17    1.90
 -18  -2   8  143.57    7.81
 -18  -2   8  149.56    8.51
 -18   2   8  121.68    7.84
 -18  -2   8  138.64    7.94
 -18   2   8  131.67    7.72
 -17  -2   8    3.21    2.05
 -17   2   8    7.21    2.27
 -17  -2   8    4.05    2.65
 -17   2   8    4.14    2.22
 -17  -2   8    5.37    2.36
 -16  -2   8  278.27   14.89
 -16   2   8  285.34   14.31
 -16  -2   8  265.44   14.23
 -16   2   8  281.83   14.66
 -16  -2   8  270.05   14.44
 -15   2   8   34.56    3.88
 -15  -2   8   33.21    4.44
 -15  -2   8   36.65    3.96
 -15   2   8   30.91    4.19
 -15  -2   8   37.01    4.23
 -15   2   8   31.76    4.15
 -14  -2   8  150.07    9.26
 -14   2   8  133.82    8.47
 -14   2   8  132.94    8.91
 -14  -2   8  123.98    8.51
 -14   2   8  144.21    9.07
 -14  -2   8  129.93    8.39
 -13  -2   8  138.41   11.36
 -13  -2   8  151.47    9.79
 -13   2   8  142.27    8.83
 -13   2   8  157.05    9.82
 -13  -2   8  167.82    9.69
 -13   2   8  159.18    9.69
 -13  -2   8  148.90    9.18
 -13   2   8  144.37    9.15
 -12  -2   8  267.54   18.09
 -12  -2   8  323.06   16.49
 -12   2   8  284.28   15.21
 -12   2   8  296.91   16.23
 -12  -2   8  285.52   15.73
 -12   2   8  309.37   16.02
 -12  -2   8  285.59   15.44
 -12   2   8  324.65   15.79
 -11  -2   8   23.15    3.47
 -11   2   8   17.88    3.24
 -11  -2   8   20.30    3.86
 -11   2   8   17.83    3.23
 -11   2   8   20.82    3.99
 -11  -2   8   28.91    3.96
 -11   2   8   18.38    3.75
 -10  -2   8   51.62    5.26
 -10   2   8   39.41    5.02
 -10   2   8   42.21    4.76
 -10  -2   8   50.23    4.66
 -10   2   8   45.72    4.44
  -9  -2   8  364.22   18.64
  -9  -2   8  329.95   18.08
  -9   2   8  383.31   19.11
  -9  -2   8  344.69   17.83
  -9   2   8  371.38   18.12
  -8  -2   8   66.16    5.48
  -8   2   8   59.32    5.89
  -8   2   8   66.28    5.48
  -8  -2   8   50.56    4.35
  -8  -2   8   63.54    5.20
  -8   2   8   66.63    5.27
  -7  -2   8  406.41   19.15
  -7   2   8  373.55   19.26
  -7   2   8  373.33   18.50
  -7  -2   8  345.46   17.54
  -7  -2   8  358.20   18.41
  -7  -2   8  349.32   17.93
  -7   2   8  349.07   18.10
  -6  -2   8  372.71   18.87
  -6  -2   8  355.80   17.65
  -6  -2   8  376.54   19.34
  -6   2   8  355.23   19.00
  -6   2   8  396.39   19.45
  -6   2   8  371.04   18.60
  -6  -2   8  361.93   17.85
  -6  -2   8  365.22   18.51
  -6  -2   8  335.56   17.90
  -6   2   8  373.08   18.30
  -5  -2   8  395.05   20.67
  -5  -2   8  437.07   19.83
  -5  -2   8  398.69   20.94
  -5   2   8  388.89   20.76
  -5  -2   8  377.08   19.77
  -5   2   8  424.33   20.57
  -5  -2   8  407.83   19.88
  -5  -2   8  425.14   20.48
  -5   2   8  420.88   20.13
  -4  -2   8  512.58   24.03
  -4  -2   8  552.38   25.47
  -4  -2   8  485.82   25.18
  -4   2   8  485.85   25.16
  -4   2   8  542.39   25.10
  -4  -2   8  557.23   24.65
  -4  -2   8  520.53   24.92
  -4  -2   8  465.39   24.22
  -4   2   8  523.57   24.59
  -3  -2   8    3.31    2.53
  -3  -2   8    1.05    1.93
  -3  -2   8    1.06    2.88
  -3   2   8    2.11    2.90
  -3   2   8    1.27    2.73
  -3  -2   8    2.44    2.22
  -3  -2   8    5.93    2.83
  -2  -2   8  221.35   12.26
  -2  -2   8  256.70   13.30
  -2  -2   8  247.17   13.67
  -2   2   8  225.97   13.48
  -2   2   8  261.78   13.76
  -2  -2   8  240.95   13.01
  -2  -2   8  251.59   13.25
  -1  -2   8  145.80    8.01
  -1  -2   8  118.22    8.72
  -1   2   8  126.23    8.90
  -1  -2   8  143.76    8.43
  -1  -2   8  131.58    9.10
  -1   2   8  138.06    9.13
  -1  -2   8  127.57    8.40
  -1  -2   8  135.48    8.59
  -1   2   8  142.79    9.73
  -1  -2   8  145.08    9.96
  -1   2   8  135.01    9.79
   0  -2   8  437.29   21.27
   0  -2   8  406.35   22.15
   0   2   8  430.44   22.40
   0  -2   8  473.45   22.12
   0  -2   8  474.71   22.27
   0   2   8  477.78   23.68
   0  -2   8  466.84   23.54
   1  -2   8  258.34   13.95
   1   2   8  223.39   13.51
   1  -2   8  235.99   15.13
   1   2   8  247.75   15.46
   1   2   8  254.75   13.72
   1   2   8  246.38   14.60
   1  -2   8  238.23   14.48
   2  -2   8  364.40   19.44
   2  -2   8  362.37   21.07
   2   2   8  347.53   20.96
   2   2   8  394.03   19.41
   2   2   8  415.88   20.78
   2  -2   8  374.35   20.43
   2   2   8  376.10   19.52
   3   2   8  890.04   41.78
   3  -2   8  945.39   42.05
   3   2   8  894.96   41.52
   3  -2   8  824.32   43.62
   3   2   8  894.73   44.05
   3  -2   8  917.87   41.49
   3   2   8  943.19   43.22
   3  -2   8  893.68   43.04
   4  -2   8   16.23    3.76
   4   2   8   13.93    3.75
   4   2   8   10.33    3.12
   4  -2   8   16.85    4.54
   4   2   8   12.18    4.06
   4  -2   8   13.28    3.36
   4   2   8   12.91    3.54
   4  -2   8   13.54    3.80
   5  -2   8  445.08   23.45
   5   2   8  455.52   23.59
   5   2   8  457.42   23.15
   5  -2   8  477.73   26.02
   5   2   8  461.32   25.92
   5  -2   8  510.74   23.46
   5   2   8  518.60   25.02
   5  -2   8  457.30   24.62
   6  -2   8  108.81    7.97
   6   2   8   92.15    7.11
   6  -2   8  119.85    9.97
   6  -2   8  101.18    7.31
   6   2   8  113.24    9.79
   6   2   8   95.82    8.17
   6  -2   8   96.60    8.22
   6   2   8   98.35    7.66
   7  -2   8  113.65    8.48
   7   2   8  108.99    8.37
   7   2   8  129.77    8.14
   7  -2   8  107.39   10.05
   7   2   8  103.69   10.01
   7   2   8  117.36    9.37
   8  -2   8  195.82   12.17
   8   2   8  211.36   12.38
   8   2   8  201.85   11.47
   8  -2   8  193.38   14.20
   8   2   8  198.74   13.25
   9  -2   8    3.68    3.26
   9   2   8    5.91    3.53
   9   2   8    1.36    2.42
   9  -2   8    5.20    3.86
   9   2   8   12.68    3.63
  10  -2   8  928.12   41.13
  10   2   8  961.63   41.31
  11  -2   8    5.83    3.33
  11   2   8    9.41    3.37
  12  -2   8  239.89   12.86
  12   2   8  236.91   12.99
 -13   2  -8   28.29    3.17
 -13  -2  -8   22.40    4.27
 -13   2  -8   21.84    3.71
  13  -2   8   24.93    3.92
  14  -2   8  153.01    9.31
  14   2   8  169.97    9.62
 -14   2  -8  171.75    8.64
 -15  -2  -8   40.95    3.79
  15   2   8   32.77    3.42
 -16  -2  -8   18.89    2.59
  16   2   8   13.17    2.49
 -17  -2  -8  138.66    7.10
 -19  -3   8   88.25    5.16
 -19  -3   8   94.18    5.15
 -18  -3   8    2.33    1.79
 -17  -3   8   87.92    5.76
 -16  -3   8   -0.70    2.10
 -15  -3   8   16.73    3.16
 -15   3   8   19.11    2.61
 -15  -3   8   19.50    3.16
 -14  -3   8  177.95    9.88
 -14   3   8  144.82    9.03
 -14  -3   8  167.92    9.66
 -13  -3   8   81.51    6.26
 -13   3   8   70.80    5.70
 -13  -3   8   79.67    6.08
 -12  -3   8   24.43    3.86
 -12   3   8   23.13    3.43
 -12  -3   8   20.97    3.64
 -11  -3   8   -0.66    2.75
 -11   3   8   -0.68    1.79
 -11   3   8    2.51    2.63
 -11  -3   8    1.26    2.63
 -11   3   8    2.27    2.64
 -10  -3   8   32.12    4.39
 -10   3   8   38.64    4.62
 -10   3   8   32.34    4.20
 -10  -3   8   31.01    3.02
 -10  -3   8   45.64    4.62
  -9  -3   8    8.82    3.07
  -9   3   8    3.52    3.13
  -9  -3   8    6.45    2.03
  -9  -3   8    8.55    3.28
  -8  -3   8  169.58   10.58
  -8   3   8  191.40   11.14
  -8   3   8  195.06   10.42
  -8  -3   8  153.33    9.46
  -8  -3   8  165.16   10.51
  -7  -3   8   13.71    3.45
  -7   3   8   16.83    3.85
  -7   3   8   12.69    3.11
  -7  -3   8   16.94    3.23
  -7  -3   8   18.90    3.02
  -7  -3   8   13.89    3.42
  -7   3   8   10.19    4.39
  -6   3   8   26.63    4.45
  -6   3   8   40.36    4.30
  -6  -3   8   36.64    4.11
  -6  -3   8   26.49    3.53
  -6  -3   8   28.49    4.16
  -6   3   8   29.03    5.27
  -5  -3   8  229.10   12.36
  -5   3   8  208.12   13.68
  -5   3   8  204.59   12.82
  -5   3   8  227.07   12.43
  -5  -3   8  206.07   11.79
  -5  -3   8  211.40   12.29
  -4  -3   8  130.26    8.35
  -4   3   8  133.18    8.67
  -4  -3   8  124.87    8.23
  -4  -3   8  126.00    8.51
  -4   3   8  126.15    9.89
  -3  -3   8   43.21    4.44
  -3   3   8   49.43    5.04
  -3  -3   8   39.17    4.35
  -3  -3   8   46.63    4.74
  -3   3   8   32.23    5.42
  -2  -3   8   -0.29    2.59
  -2   3   8    2.79    3.02
  -2  -3   8    1.83    2.50
  -2  -3   8    0.63    2.67
  -2   3   8   -2.82    3.79
   2  -3  -8    3.37    3.90
  -1  -3   8  493.52   24.66
  -1   3   8  518.72   26.56
  -1   3   8  516.44   25.41
  -1  -3   8  506.19   24.88
   1  -3  -8  579.94   29.53
   0  -3   8   84.37    6.40
   0   3   8   82.27    6.96
   0   3   8   84.80    7.70
   0  -3  -8   95.38    9.75
   1  -3   8  219.82   12.48
   1   3   8  217.66   13.19
   1   3   8  236.09   14.11
  -1  -3  -8  244.58   16.77
   2  -3   8  225.57   12.95
   2   3   8  253.70   14.83
   2  -3   8  238.82   13.19
  -2  -3  -8  235.57   16.99
   3  -3   8    2.11    2.78
   3  -3   8    3.79    2.83
   3   3   8    3.70    4.10
  -3  -3  -8   -3.22    4.99
   4   3   8  196.87   11.52
   4  -3   8  180.76   11.02
   4   3   8  187.16   12.47
  -4  -3  -8  190.11   14.55
   5  -3   8   15.64    3.42
   6   3   8  221.03   12.47
   6  -3   8  206.99   12.01
   7   3   8   10.76    3.33
   7  -3   8   18.02    3.23
   8   3   8   38.01    4.49
   9   3   8  227.62   12.35
  10   3   8   45.25    4.21
 -11  -3  -8  214.15   12.28
 -12  -3  -8    9.65    3.14
 -14  -3  -8   66.18    4.74
  14   3   8   56.35    4.50
 -15  -3  -8   30.02    2.70
  15   3   8   21.99    2.47
 -16  -4   8   32.80    2.34
 -15  -4   8   62.05    3.94
 -14   4   8    5.92    1.77
 -14  -4   8    0.59    1.61
 -13  -4   8  118.31    6.69
 -13   4   8  112.29    6.73
 -12   4   8    4.52    2.14
 -12  -4   8    0.93    1.92
 -11   4   8   30.50    3.58
 -11  -4   8   33.50    3.40
 -10   4   8   37.38    3.39
 -10  -4   8   51.70    4.16
  -9   4   8  103.95    6.87
  -9  -4   8  115.83    6.60
  -8   4   8   53.68    4.73
  -8  -4   8   64.49    4.61
  -8  -4   8   69.51    4.98
  -7   4   8    4.16    2.24
  -7  -4   8    1.69    1.86
  -7  -4   8    3.23    2.28
  -6   4   8   -0.56    2.28
  -6   4   8    3.20    2.28
  -6  -4   8    3.67    2.11
  -6  -4   8   -0.23    1.96
  -5   4   8    9.64    2.99
  -5   4   8    8.64    2.59
  -5  -4   8    5.95    2.71
  -5  -4   8    7.80    2.55
  -5  -4   8    9.59    2.56
  -4  -4   8   58.54    5.14
  -4   4   8   57.52    5.51
  -4   4   8   52.99    4.85
  -4  -4   8   54.90    4.84
  -3   4   8   20.25    3.81
  -3  -4   8   25.00    3.94
  -3   4   8   23.39    3.62
  -3  -4   8   19.26    3.27
  -2  -4   8   54.42    5.27
  -2   4   8   59.68    6.19
  -2   4   8   54.88    5.11
  -2  -4   8   61.20    5.22
  -1  -4   8    6.53    2.86
  -1   4   8    8.89    2.96
  -1   4   8    7.00    3.46
   0   4   8   22.58    4.50
   0  -4   8   29.84    3.89
   0   4   8   34.18    4.29
   1  -4   8    2.48    2.59
   1   4   8    0.61    2.75
   1  -4   8    2.18    2.52
   1   4   8    8.24    3.56
   2  -4   8    3.00    2.55
   2   4   8    7.67    3.13
   2  -4   8    2.15    2.44
   2   4   8    6.89    3.48
  -3  -4  -8   41.27    4.42
   3  -4   8   33.91    4.06
   3   4   8   35.88    4.51
   3  -4   8   43.42    4.36
   3   4   8   35.78    4.71
  -4  -4  -8   14.43    3.20
   4  -4   8   10.85    2.82
   4  -4   8   14.90    2.91
   4   4   8   18.08    3.72
  -5  -4  -8   86.75    6.60
   5  -4   8   84.30    6.08
   5   4   8   78.40    6.57
   5  -4   8   90.58    6.12
  -6  -4  -8    3.05    2.64
   6  -4   8    2.34    2.23
   6   4   8    5.49    2.85
   6  -4   8    7.64    2.30
   6   4   8   -0.83    2.66
  -7  -4  -8   32.31    3.88
   7  -4   8   28.56    3.51
   7   4   8   32.50    3.75
   7   4   8   22.82    3.58
  -8  -4  -8    0.47    2.25
   8  -4   8   -1.78    1.92
   8   4   8    2.10    2.13
   8   4   8    0.20    2.09
  -9  -4  -8   72.02    5.23
   9   4   8   76.57    5.06
 -10  -4  -8    0.92    1.85
  10   4   8    1.63    1.63
 -11  -4  -8   55.46    3.91
 -12  -4  -8   -0.71    1.17
  -9   5   8    7.71    1.29
  -8   5   8   10.60    1.58
  -7   5   8    1.49    1.38
  -6  -5   8    6.97    1.33
  -6   5   8    8.00    1.74
  -5  -5   8   15.79    1.86
  -5   5   8   14.01    2.11
  -4  -5   8   35.09    2.80
  -3  -5   8    0.14    1.52
  -2   5   8   -0.87    1.35
  -1   5   8    2.47    1.23
  -1   5   8    2.41    1.43
  -1  -5   8    5.45    1.65
   0   5   8   -0.48    1.30
   0   5   8    0.38    1.38
   0  -5   8    2.67    1.44
   1   5   8    2.51    1.43
   1   5   8    2.06    1.51
   1  -5   8    2.01    1.53
   2   5   8   10.07    1.82
   2   5   8   14.54    1.97
   2  -5   8   14.28    1.90
   3   5   8    2.14    1.31
   3   5   8    4.46    1.51
   4   5   8   33.48    2.89
   4   5   8   47.40    3.11
   5   5   8    6.30    1.27
 -23   0   9    1.13    0.88
 -22   0   9   -0.27    1.35
 -21   0   9   -0.90    1.75
 -20   0   9   -0.67    2.14
 -19   0   9    1.04    2.36
 -18   0   9    0.29    2.75
 -18   0   9   -0.62    1.76
 -18   0   9   -0.31    2.70
 -17   0   9    1.61    2.83
 -17   0   9    1.17    2.06
 -17   0   9    3.42    3.06
 -16   0   9    3.45    2.91
 -16   0   9    0.25    2.04
 -16   0   9    1.42    2.50
 -16   0   9    1.10    3.32
 -15   0   9   -0.53    2.08
 -15   0   9    0.31    2.51
 -15   0   9   -1.44    2.93
 -14   0   9   -0.37    3.12
 -14   0   9   -2.19    2.14
 -14   0   9    0.78    3.49
 -14   0   9    0.99    2.74
 -13   0   9   -0.37    3.10
 -13   0   9    0.83    2.16
 -13   0   9    3.76    2.94
 -13   0   9    0.78    3.85
 -12   0   9   -1.48    2.95
 -12   0   9   -1.38    2.18
 -12   0   9   -1.73    3.15
 -12   0   9   -0.39    3.04
 -12   0   9    0.78    3.82
 -12   0   9   -0.91    1.82
 -11   0   9   -0.77    4.28
 -11   0   9    1.09    3.09
 -11   0   9    1.35    2.01
 -11   0   9    1.04    2.99
 -11   0   9    1.90    3.13
 -11   0   9    0.71    1.89
 -10   0   9    0.36    2.63
 -10   0   9    1.85    2.09
 -10   0   9    0.69    2.72
 -10   0   9   -0.76    4.09
 -10   0   9   -0.74    2.86
 -10   0   9    0.72    2.01
  -9   0   9    0.69    2.82
  -9   0   9    0.26    1.81
  -9   0   9   -2.02    2.64
  -9   0   9   -2.84    3.78
  -9   0   9    0.36    2.57
  -9   0   9    1.96    2.10
  -9   0   9   -3.71    4.56
  -8   0   9    0.68    2.59
  -8   0   9    1.00    1.91
  -8   0   9   -0.33    2.63
  -8   0   9    1.72    2.62
  -8   0   9    0.46    3.65
  -8   0   9    0.99    2.10
  -7   0   9    0.66    2.84
  -7   0   9   -1.95    2.05
  -7   0   9   -0.32    2.24
  -7   0   9   -2.01    2.63
  -7   0   9    0.90    3.56
  -7   0   9    0.25    2.13
  -6   0   9    0.65    2.44
  -6   0   9    1.67    1.70
  -6   0   9    1.94    2.48
  -6   0   9   -0.88    3.51
  -6   0   9    0.50    2.11
  -6   0   9   -1.56    2.71
  -5   0   9   -0.32    2.50
  -5   0   9   -0.24    1.89
  -5   0   9    0.61    2.44
  -5   0   9    2.83    2.32
  -5   0   9   -2.15    3.41
  -5   0   9    0.92    2.27
  -4   0   9   -1.28    2.72
  -4   0   9   -0.30    2.38
  -4   0   9    0.31    2.32
  -4   0   9   -2.13    3.26
  -4   0   9   -3.06    2.67
  -3   0   9    1.09    3.46
  -3   0   9    0.32    2.48
  -3   0   9    2.45    3.54
  -3   0   9   -0.31    2.58
  -3   0   9   -1.45    2.43
  -3   0   9    0.89    2.05
  -2   0   9   -1.09    3.59
  -2   0   9    1.29    2.61
  -2   0   9    0.82    3.47
  -2   0   9    2.31    2.45
  -2   0   9   -3.86    3.99
  -2   0   9   -0.62    2.38
  -1   0   9   -0.41    3.40
  -1   0   9    4.78    2.50
  -1   0   9    1.31    3.92
  -1   0   9    1.08    3.42
   0   0   9   -1.63    3.25
   0   0   9   -1.92    2.20
   0   0   9    4.63    3.92
   0   0   9   -2.19    3.62
   1   0   9   -2.86    3.46
   1   0   9   -1.36    4.27
   1   0   9   -0.55    3.12
   2   0   9    1.64    3.55
   2   0   9    0.70    3.94
   2   0   9   -0.54    3.37
   3   0   9   -0.42    3.56
   3   0   9    0.71    4.03
   3   0   9   -2.75    4.15
   4   0   9    4.21    3.69
   4   0   9   -1.46    4.57
   4   0   9    3.40    3.62
   5   0   9    3.85    3.63
   5   0   9    0.75    4.47
   5   0   9   -0.57    3.31
   6   0   9    2.62    3.91
   6   0   9    2.28    4.23
   6   0   9    1.16    3.22
   7   0   9    2.22    3.81
   7   0   9   -3.87    4.59
  -7   0  -9   -2.30    4.50
   7   0   9    0.59    3.49
   8   0   9    0.45    3.95
   8   0   9   -7.85    4.97
  -8   0  -9   -0.76    4.42
   8   0   9    4.79    3.55
   9   0   9    0.90    3.90
  -9   0  -9   -5.99    5.03
   9   0   9   -5.44    3.67
  10   0   9    0.89    3.90
 -10   0  -9   -2.21    4.20
  10   0   9    1.20    2.80
  11   0   9    4.79    3.81
  12   0   9    0.83    4.01
  13   0   9   -0.39    3.71
  14   0   9   -1.06    3.38
  15   0   9    1.24    2.96
 -15   0  -9   -1.02    2.70
  16   0   9    1.05    2.73
 -16   0  -9    0.85    2.23
  17   0   9    4.41    2.55
  18   0   9    0.31    1.72
 -22  -1   9    8.69    1.34
 -22   1   9    7.20    1.35
 -22  -1   9    9.64    1.27
 -21  -1   9    0.29    1.58
 -21   1   9   -2.34    1.53
 -21  -1   9    0.66    1.32
 -20  -1   9   13.70    2.40
 -20   1   9   11.92    2.31
 -20  -1   9   12.68    2.20
 -19  -1   9    4.07    2.29
 -19   1   9    5.28    2.08
 -19  -1   9    4.34    2.06
 -19   1   9    1.43    2.22
 -18  -1   9    9.36    2.71
 -18   1   9    8.79    2.75
 -18  -1   9    7.17    2.45
 -18   1   9    7.76    2.73
 -17  -1   9   50.90    4.57
 -17   1   9   39.74    3.68
 -17   1   9   42.44    4.65
 -17  -1   9   39.23    3.71
 -17  -1   9   42.56    4.44
 -17   1   9   49.86    4.72
 -16  -1   9   30.11    4.19
 -16  -1   9   36.63    4.12
 -16   1   9   31.59    3.51
 -16  -1   9   35.93    4.62
 -16   1   9   29.53    4.26
 -16  -1   9   33.50    3.59
 -16   1   9   41.30    4.53
 -15  -1   9  268.18   13.70
 -15   1   9  218.23   12.89
 -15  -1   9  250.46   14.07
 -15   1   9  239.28   13.86
 -15  -1   9  237.32   12.92
 -15   1   9  271.06   14.14
 -15  -1   9  256.00   13.87
 -14  -1   9   10.64    3.41
 -14   1   9   12.53    3.25
 -14  -1   9   14.88    3.20
 -14  -1   9   18.30    3.75
 -14   1   9   17.79    3.36
 -14  -1   9   12.35    3.51
 -14   1   9   18.89    3.87
 -14  -1   9   15.96    3.03
 -13  -1   9  192.52   11.34
 -13  -1   9  192.07   11.84
 -13   1   9  191.87   11.26
 -13  -1   9  208.66   12.05
 -13   1   9  199.76   12.03
 -13  -1   9  197.56   11.14
 -13  -1   9  202.19   11.81
 -13   1   9  203.85   11.85
 -13   1   9  182.50   14.59
 -13  -1   9  166.83   13.94
 -12   1   9  143.31   12.24
 -12  -1   9  130.04   11.45
 -12  -1   9  133.86    8.77
 -12  -1   9  150.42    9.41
 -12   1   9  132.75    8.72
 -12  -1   9  116.63    9.02
 -12   1   9  140.19    9.44
 -12   1   9  144.51    8.71
 -12  -1   9  141.98    8.74
 -12  -1   9  119.18    8.82
 -12   1   9  144.11    9.22
 -11  -1   9   33.18    4.40
 -11   1   9   22.78    4.19
 -11  -1   9   22.32    3.83
 -11  -1   9   31.31    4.64
 -11  -1   9   22.74    5.72
 -11   1   9   28.11    4.06
 -11  -1   9   28.21    4.39
 -11   1   9   30.87    4.67
 -11  -1   9   33.26    4.07
 -11   1   9   28.68    3.67
 -11   1   9   30.94    6.20
 -10  -1   9  109.06    8.34
 -10   1   9  121.15   10.97
 -10  -1   9  130.59    8.42
 -10   1   9  126.44    8.42
 -10  -1   9  132.97    8.63
 -10  -1   9  127.04    8.21
 -10   1   9  125.97    7.91
 -10   1   9  117.25    8.54
  -9  -1   9    2.21    2.48
  -9   1   9   -0.69    2.57
  -9   1   9    0.54    2.29
  -9   1   9   -1.63    3.11
  -9  -1   9    0.69    2.89
  -9  -1   9    1.01    2.73
  -9  -1   9    0.30    2.41
  -8  -1   9  472.32   23.12
  -8  -1   9  490.53   23.54
  -8   1   9  469.76   24.07
  -8   1   9  473.62   23.29
  -8  -1   9  476.14   23.23
  -8  -1   9  476.93   24.51
  -8   1   9  460.13   24.57
  -8  -1   9  502.72   23.61
  -8  -1   9  483.75   23.10
  -8   1   9  441.85   22.53
  -8   1   9  460.46   23.38
  -7  -1   9   99.73    7.43
  -7  -1   9  109.17    7.32
  -7  -1   9  115.16    7.80
  -7  -1   9   92.46    7.04
  -7  -1   9   94.98    8.29
  -7   1   9  103.51    8.41
  -7   1   9  112.34    8.00
  -7  -1   9   96.19    7.03
  -7   1   9  107.44    6.82
  -7   1   9   96.39    8.04
  -7   1   9  102.00    7.46
  -6  -1   9  335.23   17.18
  -6  -1   9  346.12   17.44
  -6  -1   9  336.20   17.04
  -6   1   9  295.03   16.29
  -6   1   9  327.89   17.75
  -6  -1   9  358.19   18.70
  -6   1   9  340.46   18.56
  -6  -1   9  330.91   17.03
  -6  -1   9  350.51   17.50
  -6   1   9  349.78   17.51
  -6   1   9  331.04   18.02
  -5  -1   9  117.36    7.64
  -5  -1   9  119.30    7.77
  -5  -1   9  116.82    7.34
  -5   1   9  109.09    8.16
  -5  -1   9  102.42    8.52
  -5   1   9   95.22    8.50
  -5  -1   9  102.59    7.32
  -5  -1   9  113.52    7.78
  -5   1   9  114.33    7.84
  -5   1   9  115.45    8.43
  -4  -1   9   22.08    3.74
  -4   1   9   20.55    3.37
  -4  -1   9   21.82    3.49
  -4  -1   9   20.60    3.35
  -4   1   9   14.80    3.59
  -4  -1   9   28.68    4.78
  -4   1   9   19.52    4.34
  -4  -1   9   21.17    3.37
  -4   1   9   22.60    4.35
  -3  -1   9  289.76   16.44
  -3   1   9  314.76   16.67
  -3   1   9  273.37   16.20
  -3  -1   9  285.44   15.41
  -3  -1   9  295.47   17.71
  -3   1   9  315.41   16.21
  -3  -1   9  329.34   17.05
  -3   1   9  292.42   16.62
  -3   1   9  295.41   15.68
  -3  -1   9  292.58   15.42
  -3  -1   9  303.71   15.88
  -3   1   9  291.20   15.67
  -3   1   9  281.12   17.55
  -2   1   9    6.54    3.68
  -2  -1   9    4.90    3.81
  -2  -1   9    9.32    3.95
  -2   1   9    9.33    3.87
  -2  -1   9    7.08    2.72
  -2   1   9   12.89    3.17
  -2   1   9    4.29    3.42
  -1  -1   9  120.05    9.00
  -1   1   9  109.01    8.72
  -1  -1   9  109.28    7.44
  -1   1   9  122.87    8.00
  -1  -1   9  119.82   10.40
  -1   1   9  125.92   10.52
  -1   1   9  137.17   10.13
  -1  -1   9  126.44   10.06
   0  -1   9  119.68    9.10
   0   1   9  115.08    9.15
   0  -1   9  117.54    7.58
   0   1   9  127.14    8.25
   0  -1   9  119.81   10.66
   0   1   9  120.99   10.66
   0   1   9  139.17   10.20
   0  -1   9  131.44   10.14
   1  -1   9   62.91    6.66
   1   1   9   63.87    6.62
   1   1   9   64.02    5.65
   1  -1   9   77.02    8.42
   1   1   9   67.02    7.93
   1  -1   9   79.29    7.73
   2  -1   9  127.30    9.53
   2   1   9  122.15    9.48
   2   1   9  136.66    8.49
   2  -1   9  109.84   10.83
   2   1   9  137.46   11.39
   2   1   9  135.49   10.27
   2  -1   9  145.22   10.66
   3  -1   9   -1.25    4.02
   3   1   9    0.41    3.31
   3   1   9   -1.16    2.55
   3  -1   9   -1.42    4.05
   3   1   9    0.71    4.18
   3   1   9    0.55    2.92
   3  -1   9   -0.55    3.40
   4  -1   9  119.22    9.00
   4   1   9  104.63    8.71
   4   1   9  129.03    7.84
   4  -1   9  128.33   11.18
   4   1   9   98.86   10.41
   4   1   9  102.97    9.16
   4  -1   9  116.38    9.52
   5  -1   9   30.17    5.17
   5   1   9   36.95    5.25
   5   1   9   37.76    4.01
   5  -1   9   31.68    6.33
   5   1   9   25.82    5.93
   5   1   9   29.16    5.39
   5  -1   9   31.99    5.43
   6  -1   9    3.00    3.76
   6   1   9   -1.73    3.76
   6   1   9    2.04    2.16
   6  -1   9   -1.49    3.68
   6   1   9   -3.02    4.58
   6   1   9    0.59    2.99
   6  -1   9   -2.90    3.52
   7  -1   9   76.21    7.39
   7   1   9   74.74    7.48
   7   1   9   87.74    9.60
   7  -1   9   78.62    9.04
   7   1   9   83.27    8.03
   7  -1   9   81.33    8.08
   8   1   9   62.28    6.76
   8  -1   9   50.08    6.22
   8  -1   9   50.14    7.41
   8   1   9   63.17    8.07
   8   1   9   64.55    7.14
   8  -1   9   64.14    7.05
   9  -1   9    8.13    4.03
   9   1   9    7.05    3.99
   9  -1   9    5.28    4.54
   9   1   9   17.17    5.26
  -9  -1  -9   11.67    5.24
   9   1   9    6.49    3.68
   9  -1   9    6.86    3.16
  10  -1   9   90.04    7.53
  10   1   9   77.24    7.38
  11  -1   9   10.88    4.02
  11   1   9   12.57    4.48
  12  -1   9   49.39    5.88
  12   1   9   58.88    6.31
  13  -1   9   -4.90    3.72
  13   1   9    4.00    3.72
  14  -1   9   74.92    6.35
  14   1   9   81.22    6.48
 -14  -1  -9   59.82    6.14
 -14   1  -9   61.22    6.33
  15  -1   9    1.35    2.62
  15   1   9    3.88    3.00
 -15  -1  -9   -3.31    2.92
 -15   1  -9   -0.89    2.53
  16  -1   9    6.45    2.73
  16   1   9    8.82    2.71
 -16  -1  -9    6.51    2.45
  17  -1   9    4.35    1.95
  17   1   9    1.70    1.87
 -19   2   9   24.97    2.54
 -19  -2   9   29.54    2.51
 -18   2   9  136.44    8.13
 -18  -2   9  158.82    8.07
 -18  -2   9  147.15    7.78
 -17   2   9   62.47    4.90
 -17  -2   9   59.27    4.57
 -17  -2   9   61.07    4.32
 -17   2   9   58.17    4.33
 -16   2   9  167.27    9.78
 -16  -2   9  176.28    9.67
 -16  -2   9  160.35    9.23
 -16   2   9  175.64    9.40
 -15   2   9   42.60    4.50
 -15  -2   9   37.46    4.12
 -15  -2   9   37.40    3.77
 -15   2   9   44.50    4.08
 -14   2   9  124.29    7.93
 -14   2   9  140.70    8.94
 -14  -2   9  144.35    8.65
 -14   2   9  133.26    8.51
 -14  -2   9  137.21    8.25
 -14   2   9  138.71    8.33
 -13   2   9  158.16    9.51
 -13   2   9  165.70   10.43
 -13  -2   9  166.06   10.03
 -13   2   9  166.81    9.94
 -13  -2   9  164.20    9.64
 -13   2   9  177.64    9.88
 -12   2   9  203.23   11.66
 -12   2   9  207.69   12.48
 -12  -2   9  209.06   12.11
 -12   2   9  227.51   12.12
 -12  -2   9  228.12   11.93
 -12   2   9  200.98   11.72
 -11   2   9  126.66    8.26
 -11   2   9  136.43    9.10
 -11  -2   9  124.03    8.12
 -11  -2   9  138.09    8.74
 -11   2   9  126.10    8.44
 -11   2   9  127.23    8.23
 -10  -2   9    2.04    2.38
 -10   2   9   -0.60    2.45
 -10   2   9    0.31    2.53
 -10   2   9   -0.76    3.29
 -10  -2   9    0.33    2.89
 -10   2   9    2.19    2.59
  -9   2   9  204.12   11.54
  -9  -2   9  181.44   11.07
  -9   2   9  190.70   11.23
  -8   2   9  103.24    7.96
  -8   2   9   96.06    6.94
  -8  -2   9   90.34    6.78
  -8   2   9  106.68    7.21
  -8   2   9  106.69    8.73
  -7  -2   9   67.06    5.94
  -7   2   9   75.86    6.49
  -7  -2   9   58.27    4.84
  -7  -2   9   64.14    5.38
  -7   2   9   76.01    5.83
  -7   2   9   68.94    7.07
  -6  -2   9   41.57    4.94
  -6   2   9   55.68    5.77
  -6   2   9   57.91    6.09
  -6  -2   9   47.68    5.68
  -6   2   9   49.22    5.09
  -6  -2   9   51.83    4.47
  -6  -2   9   50.71    4.75
  -6   2   9   47.31    4.71
  -6   2   9   63.81    6.61
  -5  -2   9  128.64    8.55
  -5  -2   9  113.08    8.75
  -5   2   9  139.02    9.18
  -5   2   9  134.63    9.28
  -5   2   9  116.62    8.19
  -5  -2   9  116.14    7.68
  -5  -2   9  121.64    8.27
  -5   2   9  112.98    9.29
  -4  -2   9  499.10   25.95
  -4  -2   9  553.78   26.85
  -4   2   9  526.25   26.63
  -4   2   9  568.61   26.25
  -4  -2   9  532.99   25.62
  -4  -2   9  547.87   26.10
  -3  -2   9   65.81    5.60
  -3  -2   9   67.37    6.21
  -3   2   9   51.97    5.80
  -3   2   9   63.90    5.93
  -3  -2   9   58.27    5.32
  -3  -2   9   70.39    5.90
  -2  -2   9  692.38   33.20
  -2  -2   9  712.72   34.32
  -2   2   9  734.88   34.40
  -2  -2   9  722.50   33.52
  -2  -2   9  732.75   33.81
  -1  -2   9  135.56    9.30
  -1   2   9  134.44    9.34
  -1  -2   9  127.04    8.59
   0  -2   9  389.56   20.41
   0   2   9  379.88   20.21
   0  -2   9  414.16   20.66
   0   2   9  417.84   20.74
   0   2   9  421.86   20.30
   0  -2   9  387.83   19.84
   0   2   9  349.08   21.05
   0  -2   9  373.15   21.45
   1  -2   9  201.75   12.15
   1   2   9  193.57   12.11
   1   2   9  210.73   11.94
   1  -2   9  208.99   11.75
   1   2   9  193.67   13.09
   1  -2   9  182.29   12.74
   2  -2   9   65.75    6.15
   2   2   9   51.58    5.69
   2   2   9   63.61    5.65
   2   2   9   47.44    6.69
   2  -2   9   62.41    6.64
   2   2   9   48.70    6.08
   3  -2   9  299.81   15.39
   3   2   9  275.07   15.21
   3  -2   9  244.31   16.63
   3   2   9  219.97   16.18
   3   2   9  277.81   14.68
   3   2   9  278.09   16.32
   3  -2   9  257.88   15.94
   4  -2   9  161.41   10.48
   4   2   9  162.57   10.44
   4   2   9  176.98   10.18
   4  -2   9  152.35   12.01
   4   2   9  127.77   11.65
   4  -2   9  159.41    9.96
   4   2   9  152.88   11.31
   5  -2   9  160.11   10.15
   5   2   9  135.08    9.87
   5   2   9  174.45    9.81
   5  -2   9  129.53   11.22
   5   2   9  146.52   10.91
   6  -2   9   37.05    5.08
   6   2   9   35.39    4.86
   6   2   9   30.70    4.09
   6  -2   9   32.50    5.40
   6   2   9   30.79    5.04
   7  -2   9    8.91    3.47
   7   2   9    5.20    3.54
   7   2   9   13.21    3.04
   8  -2   9    6.14    3.44
   8   2   9    5.44    3.61
   8   2   9    6.35    2.53
   9  -2   9   22.10    3.97
   9   2   9   18.12    3.98
   9   2   9   16.50    2.75
  10  -2   9  169.64   10.42
  10   2   9  172.58   10.69
  11  -2   9    2.66    2.88
  11   2   9   -1.21    2.70
  12  -2   9   59.93    5.31
 -12  -2  -9   56.33    5.84
  13   2   9   19.92    3.21
 -13  -2  -9   10.40    2.52
 -14  -2  -9   78.95    5.46
  14   2   9   61.11    4.80
 -15  -2  -9   30.36    2.99
 -16  -2  -9   15.05    1.79
 -18  -3   9    6.17    1.44
 -17  -3   9  183.44    9.42
 -17  -3   9  183.92    9.25
 -16  -3   9   30.89    3.21
 -15  -3   9  132.13    7.47
 -15   3   9  107.85    6.67
 -15   3   9  120.67    7.07
 -14   3   9  164.25    9.74
 -14  -3   9  190.99   10.17
 -14   3   9  171.51    9.93
 -13  -3   9   39.41    4.16
 -13   3   9   29.27    3.59
 -13  -3   9   31.53    3.74
 -13   3   9   35.56    3.88
 -12  -3   9  422.24   19.47
 -12   3   9  381.06   19.00
 -12  -3   9  415.32   19.21
 -12   3   9  401.67   19.11
 -11  -3   9   30.28    4.15
 -11   3   9   16.43    2.69
 -11   3   9   25.70    3.64
 -11  -3   9   24.72    3.61
 -11   3   9   22.13    3.48
 -10  -3   9  233.39   12.56
 -10   3   9  194.53   11.36
 -10   3   9  205.71   12.19
 -10  -3   9  225.58   12.25
 -10   3   9  226.99   12.19
  -9  -3   9   26.03    4.02
  -9   3   9   32.18    4.33
  -9  -3   9   29.56    4.18
  -9   3   9   26.35    3.72
  -8   3   9  218.26   12.56
  -8  -3   9  193.20   10.92
  -8  -3   9  234.29   12.28
  -7   3   9  108.21    7.85
  -7   3   9   90.88    6.81
  -7  -3   9   97.03    6.41
  -7  -3   9  100.36    7.25
  -6   3   9   69.82    6.69
  -6   3   9   81.49    6.13
  -6  -3   9   66.58    5.42
  -6  -3   9   73.77    6.25
  -6   3   9   84.33    7.79
  -5  -3   9  257.42   13.85
  -5   3   9  284.63   15.53
  -5   3   9  266.26   14.67
  -5  -3   9  257.62   14.11
  -5  -3   9  295.17   14.97
  -5   3   9  291.27   16.46
  -4   3   9   41.26    5.31
  -4   3   9   40.16    4.75
  -4  -3   9   34.08    3.70
  -4  -3   9   39.48    4.28
  -4  -3   9   37.07    4.48
  -4   3   9   41.29    5.98
  -3  -3   9  173.57    9.93
  -3   3   9  165.17   10.32
  -3  -3   9  163.91   10.01
  -3  -3   9  177.08   10.45
  -3   3   9  163.91   11.65
  -2  -3   9    8.33    2.49
  -2   3   9   17.13    3.64
  -2  -3   9   12.97    3.08
  -2   3   9    8.91    4.21
  -1  -3   9  266.30   14.64
  -1   3   9  299.72   15.89
  -1  -3   9  308.15   15.58
  -1   3   9  308.23   17.15
   0  -3   9  419.94   21.33
   0   3   9  458.76   23.75
   0   3   9  482.31   22.68
   0  -3   9  446.53   22.13
   1  -3   9  118.74    7.77
   1   3   9  142.89   10.03
   2  -3   9  585.25   28.72
   2  -3   9  632.28   29.51
   2   3   9  672.55   31.11
   3  -3   9    2.74    2.31
   3   3   9    0.67    2.89
   3  -3   9    1.22    2.74
   3   3   9    2.22    3.76
   4  -3   9  276.45   15.43
   4   3   9  341.63   16.77
   4  -3   9  325.50   16.30
   4   3   9  317.43   17.61
   5  -3   9    4.33    2.11
   5   3   9    5.30    2.99
   5  -3   9    2.01    2.52
   5   3   9    4.20    3.96
   6  -3   9  320.99   16.69
   6   3   9  340.64   17.41
   6   3   9  376.87   18.89
   7   3   9  116.24    7.39
   7   3   9  130.04    8.84
   8   3   9   89.30    6.28
   8   3   9  106.28    7.67
   8  -3   9   90.87    5.97
  -9  -3  -9  201.17    7.91
   9   3   9  202.53    8.42
 -10  -3  -9   40.49    4.16
  10   3   9   54.26    4.71
 -11  -3  -9  234.50   12.39
  11   3   9  228.32   12.45
 -12  -3  -9    1.89    2.04
  12   3   9    5.28    2.43
  13   3   9  237.94   11.85
 -14  -3  -9   77.24    4.56
 -14  -4   9   25.40    2.18
 -13  -4   9  247.15   11.77
 -12  -4   9   23.97    2.48
 -11  -4   9  236.72   11.69
 -10   4   9    1.16    1.44
 -10  -4   9    4.16    2.00
 -10   4   9   -0.95    1.90
  -9  -4   9  109.72    6.21
  -9   4   9  105.26    6.39
  -8   4   9  149.56    8.41
  -8  -4   9  171.04    8.53
  -8   4   9  157.69    8.69
  -7   4   9   20.61    3.09
  -7  -4   9   23.27    2.69
  -7   4   9   30.61    3.40
  -6   4   9  246.22   13.18
  -6  -4   9  259.94   12.72
  -5   4   9   32.98    3.85
  -5   4   9   37.39    3.65
  -5  -4   9   41.59    3.72
  -4   4   9  353.98   18.12
  -4   4   9  360.20   17.64
  -4  -4   9  370.11   17.61
  -3   4   9    2.83    2.65
  -3   4   9    0.47    2.25
  -3  -4   9    0.62    1.82
  -3  -4   9    0.45    2.18
  -2  -4   9  322.87   16.56
  -2   4   9  344.98   17.50
  -2   4   9  338.62   16.94
  -2  -4   9  359.63   16.93
  -1   4   9   38.13    4.45
  -1   4   9   45.74    4.28
  -1  -4   9   33.67    3.66
  -1   4   9   38.20    4.80
   0  -4   9  191.49   10.76
   0   4   9  215.65   11.34
   0   4   9  204.37   12.02
   1  -4   9   99.29    6.67
   1   4   9  106.98    7.19
   1  -4   9  113.54    7.07
   1   4   9  117.62    8.01
   2  -4   9   80.37    5.73
   2   4   9   86.85    6.35
   2  -4   9   93.42    6.23
   2   4   9  102.89    7.07
   3  -4   9  272.30   14.05
   3  -4   9  313.99   14.63
   3   4   9  281.34   15.13
  -4  -4  -9    3.38    2.06
   4  -4   9    0.53    1.79
   4  -4   9    5.54    2.25
   4   4   9    5.30    2.83
  -5  -4  -9  260.62   13.25
   5   4   9  278.98   13.53
   5   4   9  251.46   13.56
   6   4   9   35.15    3.49
   6   4   9   30.58    3.54
  -7  -4  -9  246.02   11.68
   7   4   9  241.38   11.62
   7   4   9  208.72   11.48
  -8  -4  -9   47.18    3.53
   8   4   9   43.51    3.31
  -9  -4  -9   83.63    4.24
   9   4   9   49.90    3.51
 -21   0  10   63.74    4.01
 -20   0  10  399.88   18.67
 -19   0  10    1.24    1.98
 -18   0  10  311.55   15.89
 -18   0  10  312.18   15.66
 -17   0  10   11.29    3.02
 -16   0  10  116.37    7.69
 -16   0  10  132.87    8.41
 -15   0  10  454.26   22.48
 -15   0  10  485.49   23.40
 -15   0  10  520.18   23.86
 -14   0  10   80.91    5.82
 -14   0  10   87.13    6.70
 -14   0  10   89.71    7.14
 -14   0  10   86.83    6.92
 -13   0  10   67.61    5.29
 -13   0  10   77.40    6.34
 -13   0  10   66.86    6.23
 -13   0  10   82.18    6.56
 -12   0  10    3.62    3.20
 -12   0  10    3.30    2.13
 -12   0  10    1.04    3.09
 -12   0  10    5.27    3.06
 -11   0  10  277.28   14.18
 -11   0  10  284.96   15.26
 -11   0  10  287.50   15.56
 -11   0  10  253.38   15.14
 -10   0  10   90.75    6.39
 -10   0  10  100.17    7.54
 -10   0  10  103.98    7.43
 -10   0  10   85.99    7.23
  -9   0  10  924.76   43.18
  -9   0  10  983.53   44.39
  -9   0  10  967.60   45.84
  -9   0  10  987.41   44.57
  -9   0  10  954.82   44.30
  -8   0  10  138.52    8.63
  -8   0  10  162.37    9.85
  -8   0  10  158.63   11.28
  -8   0  10  146.08    9.69
  -7   0  10  858.99   39.20
  -7   0  10  819.22   40.52
  -7   0  10  839.88   39.32
  -6   0  10  359.80   18.75
  -6   0  10  357.34   18.70
  -6   0  10  404.49   20.61
  -6   0  10  347.47   18.85
  -5   0  10  916.14   40.39
  -5   0  10  895.22   40.26
  -5   0  10  876.31   41.73
  -5   0  10  871.33   40.46
  -5   0  10  795.47   39.86
  -4   0  10   19.25    4.04
  -4   0  10   18.56    3.64
  -4   0  10   19.22    3.50
  -4   0  10   22.23    5.04
  -4   0  10   21.88    3.57
  -3   0  10   16.71    4.62
  -3   0  10   12.40    3.23
  -3   0  10   14.26    3.27
  -3   0  10   12.22    4.38
  -3   0  10   17.38    3.38
  -2   0  10  641.92   30.69
  -2   0  10  603.20   28.92
  -2   0  10  580.82   28.75
  -2   0  10  679.25   32.47
  -2   0  10  594.07   29.12
  -1   0  10  211.16   13.05
  -1   0  10  204.25   11.57
  -1   0  10  188.13   11.25
  -1   0  10  186.42   11.68
   0   0  10  440.75   22.73
   0   0  10  450.53   21.11
   0   0  10  377.83   20.65
   0   0  10  434.01   25.00
   0   0  10  413.95   21.46
   1   0  10  247.12   14.71
   1   0  10  235.14   12.91
   1   0  10  231.21   16.50
   1   0  10  258.58   16.03
   2   0  10  149.97   10.75
   2   0  10  153.23    9.01
   2   0  10  141.92   12.40
   2   0  10  157.05   11.83
   3   0  10  810.58   38.30
   3   0  10  744.67   35.88
   3   0  10  811.66   41.17
   3   0  10  895.92   40.30
   4   0  10    3.19    4.19
   4   0  10    0.78    4.41
   4   0  10    4.28    3.41
   5   0  10  939.07   44.81
   5   0  10  944.48   47.86
   5   0  10  959.64   46.36
   6   0  10   48.86    6.14
   6   0  10   42.97    7.41
   6   0  10   48.52    6.40
   7   0  10  474.33   24.39
   7   0  10  452.31   26.84
   7   0  10  453.96   25.49
   8   0  10  416.99   22.24
   9   0  10  456.53   23.82
  10   0  10 1011.22   47.17
  11   0  10   96.63    8.08
  12   0  10  431.05   21.97
  13   0  10   80.90    6.58
  14   0  10   24.64    3.86
 -14   0 -10   23.57    3.65
  15   0  10   39.21    4.05
  16   0  10   13.43    2.36
 -21   1  10  145.61    7.08
 -20  -1  10   47.69    3.34
 -20   1  10   53.67    3.42
 -19  -1  10  461.24   20.97
 -19   1  10  445.10   21.40
 -19  -1  10  473.33   21.24
 -19   1  10  454.30   21.21
 -18  -1  10    9.30    2.21
 -18   1  10    6.57    2.19
 -18  -1  10    9.67    2.10
 -18   1  10    4.67    2.30
 -17  -1  10  314.20   16.09
 -17   1  10  341.66   16.88
 -17  -1  10  336.07   16.46
 -17   1  10  333.31   16.50
 -16  -1  10  156.29    8.77
 -16   1  10  133.00    8.28
 -16   1  10  148.44    9.20
 -16  -1  10  149.65    8.94
 -16   1  10  157.30    9.14
 -15  -1  10  317.12   15.66
 -15   1  10  293.25   15.32
 -15  -1  10  284.07   15.93
 -15   1  10  318.41   16.21
 -15  -1  10  300.33   14.99
 -15  -1  10  294.33   15.73
 -15   1  10  320.88   16.02
 -14  -1  10  154.57    9.41
 -14   1  10  147.98    9.32
 -14  -1  10  158.63    9.88
 -14   1  10  152.41   10.02
 -14  -1  10  158.16    9.05
 -14  -1  10  157.30    9.70
 -14   1  10  168.48   10.00
 -13  -1  10  178.50   10.62
 -13  -1  10  175.33   11.01
 -13   1  10  188.60   10.79
 -13  -1  10  191.49   11.20
 -13   1  10  191.14   11.45
 -13  -1  10  171.44   10.17
 -13  -1  10  176.41   10.90
 -13   1  10  197.01   11.22
 -12  -1  10  265.38   14.30
 -12  -1  10  267.10   14.94
 -12   1  10  255.22   14.36
 -12  -1  10  262.76   14.67
 -12   1  10  292.35   15.26
 -12  -1  10  266.42   14.07
 -12  -1  10  261.01   14.54
 -12   1  10  262.78   14.66
 -11  -1  10    5.85    3.22
 -11   1  10    3.54    3.20
 -11  -1  10    3.42    2.63
 -11  -1  10    3.60    3.11
 -11   1  10    2.31    2.84
 -11  -1  10    6.90    3.14
 -11  -1  10    6.08    2.70
 -10  -1  10  348.62   18.13
 -10   1  10  344.73   18.33
 -10  -1  10  369.85   18.56
 -10  -1  10  341.53   17.96
 -10   1  10  330.85   17.36
 -10  -1  10  376.18   18.71
 -10   1  10  393.22   18.84
  -9  -1  10   63.75    5.54
  -9  -1  10   66.11    6.17
  -9   1  10   62.06    5.83
  -9  -1  10   57.26    5.55
  -9   1  10   66.47    6.21
  -9  -1  10   72.27    5.70
  -9   1  10   61.57    4.83
  -9  -1  10   61.99    5.87
  -9   1  10   60.65    5.92
  -8  -1  10  101.22    7.30
  -8  -1  10  106.59    7.84
  -8   1  10  106.95    7.58
  -8  -1  10  103.40    7.32
  -8  -1  10  116.35    9.21
  -8   1  10   96.76    8.55
  -8   1  10  107.08    7.96
  -8  -1  10   95.27    7.15
  -8   1  10  105.47    8.35
  -8  -1  10   95.57    7.52
  -8   1  10  102.55    7.75
  -7  -1  10  478.33   24.14
  -7  -1  10  517.32   24.78
  -7   1  10  502.78   24.66
  -7  -1  10  483.19   24.05
  -7  -1  10  503.59   25.85
  -7   1  10  503.17   25.91
  -7   1  10  528.29   25.07
  -7  -1  10  481.86   24.14
  -7  -1  10  511.55   24.77
  -7   1  10  496.27   24.67
  -7   1  10  480.10   25.15
  -6  -1  10  445.31   21.85
  -6   1  10  447.97   21.84
  -6  -1  10  428.87   21.14
  -6   1  10  438.31   22.13
  -6  -1  10  424.79   23.01
  -6   1  10  432.17   23.13
  -6  -1  10  408.60   21.32
  -6  -1  10  427.43   21.82
  -6   1  10  424.44   21.77
  -6   1  10  435.96   22.48
  -5  -1  10 1239.61   53.83
  -5   1  10 1212.48   54.17
  -5  -1  10 1199.16   55.13
  -5   1  10 1165.81   54.95
  -5  -1  10 1185.79   53.45
  -5  -1  10 1122.37   53.78
  -5   1  10 1201.19   53.96
  -5   1  10 1163.26   54.38
  -4  -1  10    2.26    2.70
  -4   1  10    0.75    3.06
  -4  -1  10   -0.46    3.96
  -4   1  10    2.77    4.06
  -4   1  10    2.48    3.50
  -3  -1  10  823.07   38.10
  -3   1  10  831.53   38.71
  -3  -1  10  824.80   39.66
  -3   1  10  826.25   39.62
  -3   1  10  815.55   39.09
  -2   1  10   44.10    6.02
  -2  -1  10   40.23    5.73
  -2   1  10   38.66    5.71
  -2  -1  10   34.56    4.19
  -2   1  10   29.71    4.81
  -2  -1  10   37.71    5.58
  -2   1  10   43.41    5.93
  -2   1  10   45.52    5.60
  -1  -1  10  699.30   34.01
  -1   1  10  695.03   33.95
  -1  -1  10  658.67   32.24
  -1   1  10  694.52   33.23
  -1   1  10  749.69   33.11
  -1   1  10  710.21   35.58
  -1  -1  10  755.49   35.80
  -1   1  10  660.96   33.62
   0  -1  10  112.16    8.68
   0   1  10   91.03    8.13
   0  -1  10   97.29    6.65
   0   1  10  100.32    7.67
   0   1  10  105.01    7.46
   0   1  10  112.41    9.50
   0  -1  10  115.56    9.43
   0   1  10   92.49    8.14
   1  -1  10  235.26   14.59
   1   1  10  250.28   14.73
   1   1  10  256.84   13.83
   1   1  10  238.39   13.30
   1  -1  10  238.14   16.57
   1   1  10  211.61   16.11
   1   1  10  268.57   16.04
   1  -1  10  220.80   15.34
   2  -1  10  521.69   25.89
   2   1  10  521.36   25.87
   2   1  10  497.07   24.16
   2  -1  10  461.76   27.68
   2   1  10  476.06   27.82
   2   1  10  483.98   26.66
   2  -1  10  519.03   27.16
   3   1  10   56.68    6.30
   3  -1  10   53.48    6.05
   3   1  10   53.57    4.92
   3  -1  10   50.73    7.31
   3   1  10   43.20    6.90
   3   1  10   44.19    6.46
   3  -1  10   48.14    6.32
   4  -1  10  434.55   22.06
   4   1  10  414.18   21.90
   4   1  10  391.50   20.16
   4  -1  10  390.82   24.23
   4   1  10  408.64   24.36
   4   1  10  443.23   23.62
   4  -1  10  435.74   23.46
   5  -1  10   11.89    4.34
   5   1  10   13.73    4.60
   5   1  10   22.76    3.11
   5  -1  10   15.73    5.58
   5   1  10   17.53    5.32
   5   1  10   27.04    4.98
   5  -1  10   18.66    4.86
   6  -1  10  433.56   21.93
   6   1  10  412.74   21.85
   6  -1  10  361.64   23.79
   6   1  10  398.62   24.51
   6   1  10  426.74   23.21
   6  -1  10  404.16   23.01
   7  -1  10  309.16   17.72
   7   1  10  325.31   17.93
   8  -1  10  210.81   13.04
   8   1  10  205.43   13.02
   9  -1  10  540.67   27.37
   9   1  10  563.10   27.72
  10  -1  10    0.38    3.55
  10   1  10   -0.78    3.51
  11  -1  10  303.82   17.04
  11   1  10  342.09   17.58
  12  -1  10  104.01    7.50
  12   1  10   97.41    7.63
  13  -1  10  594.73   26.53
  13   1  10  563.28   26.52
 -13   1 -10  505.44   26.47
  14  -1  10  114.57    6.70
  14   1  10  108.80    6.78
 -14  -1 -10   78.64    6.48
 -14   1 -10   73.74    6.46
  15  -1  10   32.22    3.32
  15   1  10   28.17    3.42
  16  -1  10   68.67    4.41
  16   1  10   66.10    4.39
 -19  -2  10   15.27    1.88
 -18  -2  10  225.73   10.88
 -18   2  10  212.85   10.68
 -18  -2  10  213.46   10.30
 -17  -2  10    4.58    2.20
 -17   2  10    4.79    1.98
 -17  -2  10    6.18    1.76
 -16  -2  10  216.64   11.34
 -16   2  10  213.42   11.38
 -16  -2  10  221.70   10.96
 -16  -2  10  203.60   10.60
 -15  -2  10  271.47   13.17
 -15   2  10  256.16   13.10
 -15  -2  10  270.97   12.73
 -15  -2  10  239.78   12.32
 -15   2  10  253.87   12.45
 -14  -2  10   87.55    6.42
 -14   2  10   85.65    5.75
 -14   2  10   89.69    6.56
 -14  -2  10   89.39    6.15
 -14  -2  10   88.68    5.87
 -14   2  10   89.65    5.93
 -13  -2  10  244.56   12.59
 -13   2  10  217.67   11.78
 -13   2  10  211.35   12.44
 -13  -2  10  230.55   12.14
 -13   2  10  213.13   11.77
 -13  -2  10  215.74   11.72
 -13   2  10  228.51   11.89
 -12  -2  10    3.29    2.25
 -12   2  10    6.02    2.37
 -12  -2  10    2.78    2.82
 -12   2  10    4.98    2.43
 -12   2  10    6.94    3.05
 -12  -2  10    8.87    3.04
 -12   2  10    5.81    2.37
 -11  -2  10  843.35   38.41
 -11   2  10  845.95   37.98
 -11   2  10  876.07   38.75
 -11  -2  10  808.31   37.98
 -11   2  10  787.17   37.54
 -11  -2  10  814.45   37.67
 -11   2  10  826.97   37.78
 -10  -2  10   23.90    3.39
 -10   2  10   20.54    3.27
 -10  -2  10   22.58    4.11
 -10   2  10   26.03    3.65
 -10   2  10   22.38    3.97
 -10  -2  10   23.03    3.87
 -10   2  10   24.14    3.34
  -9  -2  10  628.78   29.07
  -9   2  10  606.78   28.58
  -9   2  10  641.55   29.41
  -9  -2  10  581.71   28.58
  -9   2  10  581.22   28.04
  -9  -2  10  583.55   28.18
  -9   2  10  589.84   28.26
  -8  -2  10  203.69   11.81
  -8   2  10  224.49   12.53
  -7   2  10  135.87    9.19
  -7   2  10  142.91   10.00
  -6  -2  10  270.76   14.01
  -6   2  10  272.23   14.23
  -6   2  10  285.89   16.39
  -5  -2  10   64.16    6.59
  -5   2  10   62.24    6.35
  -5   2  10   72.18    6.20
  -5  -2  10   66.67    5.36
  -5   2  10   86.11    7.69
  -4  -2  10  557.17   27.45
  -4   2  10  534.03   27.33
  -4   2  10  558.44   26.77
  -4  -2  10  540.20   26.10
  -4  -2  10  552.76   26.63
  -4   2  10  559.18   28.01
  -3  -2  10  109.70    8.59
  -3   2  10  106.50    8.46
  -3   2  10  123.46    8.87
  -3  -2  10  108.86    7.56
  -3   2  10  116.08    9.36
  -2  -2  10  721.84   35.19
  -2   2  10  747.99   35.43
  -2   2  10  718.94   35.17
  -2  -2  10  730.52   34.35
  -2   2  10  773.07   36.13
  -1  -2  10  232.63   13.62
  -1   2  10  201.96   13.26
  -1   2  10  237.04   13.17
  -1  -2  10  238.63   12.92
   0  -2  10   18.19    4.22
   0   2  10   16.97    4.17
   0   2  10   19.25    4.02
   0  -2  10   24.27    3.78
   1  -2  10  282.46   15.84
   1   2  10  258.22   15.52
   1   2  10  301.77   15.33
   2  -2  10   39.33    4.88
   2   2  10   23.64    4.49
   2  -2  10   27.72    4.52
   2   2  10   33.95    4.34
   3  -2  10  344.23   18.33
   3   2  10  335.51   18.16
   3   2  10  348.91   17.78
   4  -2  10   -2.59    3.42
   4   2  10    0.37    3.01
   4   2  10    0.30    2.51
   5  -2  10  396.98   20.66
   5   2  10  384.91   20.58
   5   2  10  418.18   19.92
   6  -2  10  100.45    7.60
   6   2  10   84.85    7.20
   6   2  10   97.78    6.61
   7  -2  10  145.46    9.46
   7   2  10  146.00    9.38
   7   2  10  137.47    8.25
   8  -2  10  122.18    8.48
   8   2  10  131.57    8.73
   9  -2  10  183.98   10.90
   9   2  10  190.61   11.02
  10   2  10   72.18    5.83
  11   2  10    3.35    2.44
 -11  -2 -10    1.31    1.83
  12   2  10   96.08    6.19
 -13  -2 -10    5.24    2.05
 -14  -2 -10   93.29    5.47
  15   2  10   36.49    2.92
 -17  -3  10   77.04    4.18
 -16  -3  10   22.58    2.22
 -15   3  10   53.09    3.64
 -14   3  10   77.26    4.97
 -13   3  10   51.06    4.32
 -13   3  10   56.55    4.16
 -12   3  10  221.60   11.78
 -12   3  10  240.18   12.63
 -12  -3  10  274.12   12.81
 -12   3  10  255.15   12.46
 -11   3  10    7.88    2.20
 -11   3  10   12.28    2.66
 -11  -3  10   13.02    2.81
 -11   3  10    7.50    2.23
 -10   3  10  294.66   15.06
 -10   3  10  318.20   15.90
 -10  -3  10  319.82   15.68
 -10   3  10  299.38   15.24
  -9   3  10   47.94    4.37
  -9   3  10   56.75    5.15
  -9  -3  10   56.11    4.96
  -9   3  10   49.88    4.48
  -8   3  10   57.80    5.38
  -8  -3  10   59.07    5.16
  -8   3  10   55.29    4.72
  -7   3  10  214.86   12.03
  -7  -3  10  186.17   10.44
  -7   3  10  193.51   11.05
  -6   3  10   25.62    4.05
  -6  -3  10   22.94    2.94
  -6  -3  10   28.90    3.90
  -5   3  10   70.72    6.45
  -5   3  10   74.41    5.74
  -5  -3  10   61.45    5.07
  -5   3  10   78.44    7.14
  -4   3  10    8.53    3.47
  -4   3  10    6.69    3.04
  -4  -3  10   10.67    2.63
  -4   3  10   10.00    4.19
  -3   3  10  299.16   16.30
  -3   3  10  304.86   15.76
  -3  -3  10  288.61   15.25
  -3   3  10  304.16   17.17
  -2   3  10    2.54    3.26
  -2   3  10   -0.30    2.70
  -2  -3  10    4.66    2.52
  -2   3  10    4.33    4.12
  -1   3  10  192.72   11.17
  -1  -3  10  180.64   10.74
  -1   3  10  199.57   12.60
   0  -3  10  195.69   11.24
   0   3  10  205.76   12.79
   1   3  10    2.48    3.78
   2   3  10  200.74   11.44
   2   3  10  201.22   12.64
   3   3  10    8.99    3.11
   3   3  10   10.19    3.88
   4   3  10   41.35    4.28
   4   3  10   37.00    5.27
   5   3  10    7.34    2.52
   5   3  10   12.60    3.73
   6   3  10  109.55    6.96
   6   3  10  118.06    8.27
   7   3  10   21.01    2.72
   7   3  10   21.88    3.99
  -8  -3 -10   54.27    4.68
   8   3  10   48.70    4.90
  -9  -3 -10   33.12    3.66
   9   3  10   29.22    3.63
 -10  -3 -10   11.27    2.42
  10   3  10   14.01    2.76
 -11  -3 -10   20.24    2.47
  11   3  10   17.97    2.55
 -12  -3 -10    4.84    1.40
 -11   4  10   12.83    1.63
 -10   4  10    0.12    1.19
  -9   4  10    1.98    1.31
  -9   4  10    3.91    1.57
  -8   4  10    5.93    1.40
  -8   4  10   10.61    1.85
  -8   4  10    9.90    1.85
  -7   4  10    0.13    1.33
  -7   4  10   -0.84    1.85
  -7   4  10    2.82    1.62
  -6   4  10   14.60    2.19
  -6   4  10   16.26    2.48
  -6  -4  10   14.68    1.90
  -6   4  10   17.13    2.25
  -5   4  10   21.76    2.89
  -5  -4  10   18.08    2.28
  -5   4  10   20.26    2.48
  -4   4  10   23.00    3.16
  -4  -4  10   26.08    2.72
  -3   4  10   -0.22    2.10
  -3  -4  10    0.85    1.68
  -2   4  10   23.33    3.32
  -2   4  10   30.59    3.12
  -2  -4  10   24.14    2.86
  -1   4  10    0.92    2.19
  -1   4  10    5.04    2.23
  -1  -4  10    3.43    1.92
   0   4  10    8.25    2.49
   0   4  10    3.50    2.12
   1   4  10   25.71    3.47
   1   4  10   30.25    3.20
   1   4  10   31.74    3.84
   2   4  10   64.47    4.91
   2   4  10   56.57    4.86
   3   4  10   13.93    2.72
   3   4  10   12.12    2.65
   4   4  10    2.32    2.00
   4   4  10    0.16    1.72
   4   4  10    3.25    1.95
   5   4  10    1.22    1.49
   5   4  10   -0.30    1.58
   6   4  10    3.69    1.34
   7   4  10    6.16    1.55
 -20   0  11   -0.42    1.08
 -19   0  11   -1.17    1.60
 -18   0  11   -0.91    1.89
 -17   0  11    0.43    2.08
 -16   0  11    0.49    2.38
 -16   0  11   -0.53    2.52
 -15   0  11    0.55    2.46
 -15   0  11   -0.50    2.48
 -15   0  11   -1.73    2.87
 -14   0  11    1.79    2.63
 -14   0  11    0.28    2.51
 -14   0  11    1.55    2.65
 -13   0  11   -1.59    3.01
 -13   0  11   -1.83    2.81
 -13   0  11    4.24    2.84
 -12   0  11    0.66    2.82
 -12   0  11   -0.32    2.86
 -12   0  11   -1.01    2.88
 -11   0  11    1.38    3.00
 -11   0  11    0.34    2.99
 -11   0  11   -3.44    3.04
 -10   0  11    2.47    3.11
 -10   0  11   -0.69    3.14
 -10   0  11   -3.13    2.83
  -9   0  11   -1.43    3.04
  -9   0  11   -1.39    2.98
  -8   0  11    0.36    2.72
  -8   0  11    1.38    2.86
  -8   0  11    4.50    4.52
  -7   0  11   -1.45    2.97
  -7   0  11   -0.35    2.82
  -7   0  11    4.05    2.78
  -7   0  11   -0.50    4.23
  -6   0  11   -2.56    3.31
  -6   0  11    3.82    2.93
  -6   0  11   -1.31    2.48
  -6   0  11    3.97    4.29
  -5   0  11   -0.34    2.83
  -5   0  11    1.59    2.59
  -5   0  11    2.47    4.24
  -4   0  11    2.00    2.86
  -4   0  11   -1.54    2.25
  -4   0  11   -3.93    3.97
  -3   0  11   -0.32    2.75
  -3   0  11   -0.30    2.16
  -3   0  11   -0.49    3.55
  -3   0  11    2.22    2.47
  -2   0  11    1.25    2.48
  -2   0  11    1.12    2.09
  -2   0  11   -0.48    4.03
  -2   0  11   -1.28    2.58
  -1   0  11    1.91    3.39
  -1   0  11   -4.18    4.35
  -1   0  11   -0.60    2.33
  -1   0  11   -0.79    2.04
  -1   0  11    0.48    4.18
  -1   0  11    0.65    2.53
   0   0  11   -0.64    3.58
   0   0  11   -0.46    4.25
   0   0  11   -0.28    2.34
   0   0  11    1.97    2.67
   1   0  11    6.33    3.89
   1   0  11   -0.93    4.09
   1   0  11    2.93    2.30
   1   0  11    0.67    2.77
   2   0  11   -0.46    4.07
   2   0  11   -0.73    1.95
   2   0  11    3.74    4.28
   2   0  11   -3.70    2.87
   2   0  11    1.88    3.39
   3   0  11   -3.66    4.56
   3   0  11    0.62    3.45
   4   0  11    1.35    4.00
   5   0  11    5.32    4.16
   6   0  11    5.62    4.12
   7   0  11   -0.84    3.82
   8   0  11   -0.80    4.04
   9   0  11    3.36    3.65
  10   0  11    0.34    3.39
  11   0  11    0.31    3.14
  12   0  11   -2.14    2.84
  13   0  11    0.67    2.41
  14   0  11    1.39    1.86
 -19  -1  11    7.63    1.42
 -19   1  11    6.63    1.42
 -18  -1  11    3.08    1.62
 -18   1  11   -0.15    1.43
 -18   1  11    1.04    1.74
 -17  -1  11  136.79    7.32
 -17   1  11  146.32    8.14
 -17  -1  11  131.49    7.67
 -17   1  11  144.39    7.83
 -16  -1  11   13.14    2.59
 -16   1  11   18.94    2.83
 -16  -1  11   14.75    2.30
 -16   1  11   18.51    2.51
 -16   1  11   22.94    3.37
 -15  -1  11   34.27    3.37
 -15   1  11   32.34    3.50
 -15   1  11   33.48    4.03
 -15  -1  11   37.62    3.85
 -15   1  11   34.51    3.82
 -14  -1  11   26.68    3.68
 -14   1  11   35.34    4.01
 -14  -1  11   28.19    3.35
 -14   1  11   30.29    3.52
 -14  -1  11   21.32    3.49
 -14   1  11   34.11    4.09
 -13  -1  11   15.13    3.18
 -13   1  11   12.21    3.10
 -13  -1  11   13.86    2.65
 -13   1  11   14.87    3.04
 -13  -1  11   12.09    2.98
 -13  -1  11   14.24    2.59
 -12  -1  11  106.24    7.16
 -12  -1  11  103.40    7.74
 -12   1  11  108.99    7.50
 -12  -1  11  117.88    7.65
 -12  -1  11  109.43    7.04
 -12  -1  11  116.37    7.75
 -12   1  11  121.35    7.97
 -11  -1  11    3.18    2.68
 -11   1  11   -1.31    2.80
 -11  -1  11    2.45    2.22
 -11   1  11    2.47    2.63
 -11  -1  11    0.30    2.36
 -11  -1  11    0.25    2.28
 -10  -1  11   31.26    4.23
 -10   1  11   37.85    4.58
 -10  -1  11   28.11    3.71
 -10   1  11   37.22    4.30
 -10  -1  11   20.97    3.63
 -10   1  11   28.61    4.26
 -10  -1  11   30.01    3.68
  -9  -1  11   20.58    3.79
  -9   1  11   12.04    3.59
  -9  -1  11   16.44    3.62
  -9   1  11   14.75    3.41
  -9  -1  11   10.16    2.79
  -9   1  11   16.07    3.64
  -8  -1  11   53.26    5.25
  -8   1  11   34.47    4.49
  -8  -1  11   32.88    4.09
  -8   1  11   46.19    5.10
  -8  -1  11   39.91    4.82
  -8   1  11   48.43    5.17
  -7   1  11   42.51    5.04
  -7  -1  11   42.71    5.08
  -7   1  11   50.61    5.27
  -7  -1  11   45.97    4.35
  -7   1  11   46.12    5.18
  -7  -1  11   46.09    6.14
  -7   1  11   51.67    6.30
  -7   1  11   33.48    5.01
  -6  -1  11   17.47    3.53
  -6  -1  11   18.03    4.88
  -6   1  11   24.13    4.83
  -6   1  11   21.31    3.92
  -6   1  11   14.76    3.93
  -5  -1  11    6.22    3.05
  -5  -1  11   13.27    4.43
  -5   1  11    8.46    3.93
  -5   1  11    4.69    3.18
  -5   1  11   12.87    3.53
  -4  -1  11    0.95    2.52
  -4   1  11    2.67    2.82
  -4   1  11    2.50    2.55
  -4  -1  11   -1.42    4.05
  -4   1  11    6.55    4.15
  -4   1  11   -1.21    3.34
  -3  -1  11   -0.30    2.23
  -3   1  11    1.65    2.82
  -3   1  11    2.46    2.53
  -3  -1  11    1.40    3.80
  -3   1  11    1.39    3.60
  -3   1  11    2.42    3.34
  -2  -1  11    5.35    2.43
  -2   1  11    6.57    3.00
  -2  -1  11    6.50    4.10
  -2   1  11    3.68    3.72
  -2   1  11   10.05    3.59
  -1  -1  11   10.12    2.66
  -1   1  11   12.85    3.13
  -1  -1  11   10.19    4.45
  -1   1  11   12.82    4.61
  -1   1  11   10.09    3.70
   0   1  11   -1.20    3.12
   0  -1  11   -6.72    4.50
   0  -1  11    0.44    3.85
   0   1  11    0.44    3.83
   0  -1  11    1.40    1.77
   0   1  11    1.98    2.52
   0  -1  11   -1.38    3.86
   0   1  11    5.47    4.23
   0   1  11    2.43    3.23
   1   1  11    7.82    3.61
   1  -1  11   12.16    4.02
   1  -1  11    2.65    3.97
   1   1  11    3.50    3.79
   1   1  11    5.41    2.75
   1   1  11    0.81    3.31
   2  -1  11   59.67    6.36
   2   1  11   51.53    6.15
   2   1  11   42.06    4.55
   2   1  11   44.23    5.56
   3  -1  11   19.51    4.83
   3   1  11   21.26    4.73
   3   1  11   10.19    2.82
   4  -1  11    2.97    3.64
   4   1  11    3.00    4.01
   4   1  11   -1.30    2.12
   5  -1  11    6.21    3.66
   5   1  11    7.99    4.02
   6  -1  11   29.97    4.95
   6   1  11   17.59    4.60
   7  -1  11   27.45    4.61
   7   1  11   28.68    4.82
   8  -1  11   29.34    4.66
   8   1  11   33.78    4.82
   9  -1  11    4.96    3.29
   9   1  11    5.86    3.53
  10  -1  11    5.68    3.10
  10   1  11    5.31    3.22
  11  -1  11    6.85    3.06
  11   1  11    2.47    2.98
  12  -1  11    0.22    2.25
  12   1  11    0.69    2.37
  13  -1  11   73.41    5.01
  13   1  11   69.24    5.07
  14   1  11   -0.50    1.50
 -17   2  11   33.59    2.79
 -16   2  11   66.84    4.57
 -15   2  11   82.94    5.52
 -15  -2  11   91.38    5.08
 -14   2  11   58.35    4.20
 -14   2  11   61.53    4.92
 -14  -2  11   62.34    4.42
 -13   2  11  154.55    8.72
 -13   2  11  163.72    9.42
 -13  -2  11  160.36    8.90
 -12   2  11    9.65    2.43
 -12   2  11   10.16    2.94
 -12  -2  11   12.73    2.62
 -11   2  11  136.15    8.45
 -11   2  11  139.22    9.00
 -11  -2  11  151.94    8.63
 -10   2  11   11.60    2.81
 -10   2  11   14.09    3.43
 -10  -2  11    7.85    2.83
  -9   2  11   81.29    6.14
  -9   2  11   79.03    6.49
  -9  -2  11   83.91    6.24
  -8   2  11  296.42   15.39
  -8  -2  11  289.96   15.34
  -7   2  11    6.87    2.75
  -6   2  11  107.58    8.46
  -5   2  11    7.12    3.29
  -5   2  11    8.53    3.92
  -4  -2  11    3.78    3.24
  -4   2  11   10.93    3.77
  -4   2  11    8.99    3.31
  -4   2  11    9.45    4.13
  -3  -2  11   15.80    4.07
  -3   2  11   16.50    3.88
  -3   2  11   17.31    3.95
  -3   2  11   22.71    4.63
  -2  -2  11  182.17   11.55
  -2   2  11  186.72   11.67
  -2   2  11  200.71   11.76
  -2   2  11  187.48   12.27
  -1  -2  11    1.48    3.00
  -1   2  11    2.58    3.22
  -1   2  11    1.77    2.75
  -1   2  11    0.61    2.78
  -1   2  11    1.27    3.76
   0   2  11   50.45    5.35
   0  -2  11   56.04    5.80
   0   2  11   46.90    5.49
   0   2  11   60.22    5.28
   0   2  11   55.48    6.32
   1   2  11  128.74    8.95
   1  -2  11  134.96    9.19
   1   2  11  127.05    9.12
   1   2  11  138.85    8.71
   1   2  11  138.92    9.85
   2   2  11   -0.33    2.68
   2  -2  11    3.81    3.09
   2   2  11   -0.35    3.01
   2   2  11    3.04    2.48
   2   2  11    1.24    3.89
   3   2  11  126.96    8.78
   3  -2  11  136.75    9.11
   3   2  11  130.32    9.07
   3   2  11  145.95    8.50
   4   2  11    4.66    2.65
   4  -2  11    4.49    2.88
   4   2  11   -2.30    3.34
   4   2  11    3.83    2.46
   5  -2  11  127.21    8.47
   5   2  11  134.80    8.54
   5   2  11  120.05    7.97
   5  -2  11  123.20    8.43
   5   2  11  135.14    8.77
   6  -2  11   21.19    3.48
   6   2  11   16.50    3.48
   6   2  11   21.90    3.12
   6  -2  11   14.37    3.38
   7   2  11   48.73    4.82
   8   2  11   20.98    3.22
   9   2  11   -1.93    2.18
  10   2  11   74.78    5.08
  11   2  11    0.65    2.37
  12   2  11  113.85    6.71
 -14   3  11   28.14    2.36
 -13   3  11   21.50    2.38
 -12   3  11  217.95   11.13
 -12   3  11  287.11   12.20
 -11   3  11    9.27    1.82
 -11   3  11    6.80    2.21
 -11   3  11    5.91    1.65
 -10   3  11  368.90   16.91
 -10   3  11  392.18   17.53
  -9   3  11   66.53    4.62
  -9   3  11   70.81    5.16
  -9   3  11   57.05    4.20
  -8   3  11  222.12   11.19
  -8   3  11  219.08   11.61
  -8   3  11  202.23   10.62
  -7   3  11   77.01    5.50
  -7   3  11   78.21    5.95
  -6   3  11  141.31    8.76
  -5   3  11  243.61   13.23
  -4   3  11   10.09    3.11
  -4   3  11    3.62    3.42
  -3   3  11  291.16   15.63
  -3   3  11  304.46   16.31
  -2   3  11   78.72    6.91
  -1   3  11  272.55   15.22
   0   3  11   77.96    6.85
   1   3  11  343.44   17.30
   1   3  11  328.43   16.69
   1   3  11  341.64   17.83
  -2  -3 -11  329.67   15.69
   2   3  11  314.53   16.06
   2   3  11  293.32   15.38
   2   3  11  304.54   16.53
  -3  -3 -11   25.47    3.41
   3   3  11   29.23    3.77
   3   3  11   33.29    3.48
   3   3  11   28.66    4.44
  -4  -3 -11  260.09   13.44
   4   3  11  259.38   13.62
   4   3  11  255.64   13.05
   4   3  11  282.78   14.47
  -5  -3 -11   73.99    5.21
   5   3  11   76.66    5.47
   5   3  11   69.57    4.75
   5   3  11   70.54    5.84
  -6  -3 -11  161.39    8.93
   6   3  11  150.57    8.77
   6   3  11  181.29    9.73
  -7  -3 -11  165.22    8.28
   7   3  11  163.83    8.89
  -8  -3 -11   73.33    4.70
   8   3  11   73.70    5.17
  -9  -3 -11  124.24    6.54
   9   3  11  121.58    6.95
  -7   4  11  139.24    7.03
  -6   4  11  174.37    8.76
  -6   4  11  200.02    9.17
  -5   4  11   17.93    1.93
  -5   4  11   17.00    2.14
  -4   4  11  318.17   14.04
  -4   4  11  281.81   14.13
  -3   4  11   15.39    2.01
  -3   4  11   15.37    2.21
  -2   4  11  242.78   11.86
  -1   4  11   64.66    4.35
   0   4  11   96.91    5.69
   1   4  11   59.11    4.01
   2   4  11   44.85    3.37
 -17   0  12   39.64    3.19
 -16   0  12  224.38   12.00
 -16   0  12  259.17   12.18
 -15   0  12  119.96    7.23
 -15   0  12  119.98    7.22
 -14   0  12  223.90   11.84
 -14   0  12  219.37   11.89
 -14   0  12  234.10   12.06
 -13   0  12  403.72   19.23
 -13   0  12  379.46   19.13
 -13   0  12  391.73   19.23
 -12   0  12   81.13    6.00
 -12   0  12   67.28    5.56
 -12   0  12   76.17    5.93
 -11   0  12  523.97   25.44
 -11   0  12  530.73   25.35
 -11   0  12  540.40   25.64
 -10   0  12   79.06    6.29
 -10   0  12  102.31    7.14
  -9   0  12  464.23   22.63
  -8   0  12  299.46   15.30
  -8   0  12  263.69   14.54
  -7   0  12   74.61    6.28
  -7   0  12   77.12    5.94
  -7   0  12   84.72    7.78
  -6   0  12  147.63    9.42
  -6   0  12  144.31    8.97
  -6   0  12  160.96   11.11
  -5   0  12  274.93   13.95
  -5   0  12  224.50   13.05
  -5   0  12  255.99   15.27
  -4   0  12 1300.17   56.47
  -4   0  12 1168.54   55.65
  -4   0  12 1371.73   58.30
  -3   0  12   93.68    7.00
  -3   0  12  100.14    8.76
  -2   0  12  795.79   37.84
  -2   0  12  880.99   39.96
  -1   0  12  554.02   26.90
  -1   0  12  606.22   29.03
   0   0  12  115.48    7.39
   0   0  12  121.10    9.47
   1   0  12  482.86   24.39
   1   0  12  445.79   22.22
   1   0  12  528.53   24.92
   2   0  12    6.63    4.11
   3   0  12  157.24   10.86
   4   0  12   39.13    5.48
   5   0  12  287.20   16.13
   6   0  12   55.05    6.11
   7   0  12   44.43    5.25
   8   0  12  215.91   12.41
   9   0  12    9.50    3.33
  10   0  12  253.67   13.30
  11   0  12   -1.81    2.26
  12   0  12  132.10    7.32
 -17   1  12  202.96   10.03
 -16   1  12   59.78    4.30
 -15   1  12  124.66    6.89
 -14   1  12  325.72   15.75
 -13   1  12   17.12    2.85
 -12   1  12  697.06   32.05
 -12   1  12  697.98   32.27
 -11   1  12    1.81    2.68
 -11   1  12    3.93    2.58
 -10  -1  12  297.24   15.58
 -10   1  12  296.24   15.51
 -10   1  12  304.63   15.70
  -9  -1  12  310.07   15.88
  -9   1  12  316.00   15.91
  -9   1  12  284.94   15.76
  -8  -1  12  346.63   17.77
  -8   1  12  345.24   17.82
  -8   1  12  353.32   17.97
  -7  -1  12  235.89   13.16
  -7   1  12  248.12   13.37
  -6  -1  12  146.15    9.14
  -6  -1  12  148.27   10.42
  -6   1  12  156.63   10.69
  -6   1  12  141.63    9.20
  -5  -1  12  616.71   29.26
  -5   1  12  654.24   29.62
  -5   1  12  610.68   29.41
  -5  -1  12  665.21   31.08
  -5   1  12  645.24   30.94
  -5   1  12  568.39   29.55
  -4  -1  12   11.07    2.93
  -4   1  12   10.44    3.06
  -4   1  12    5.42    2.86
  -4  -1  12   10.76    4.54
  -4   1  12   11.50    4.45
  -4   1  12   15.85    3.63
  -3  -1  12  445.87   21.57
  -3   1  12  459.75   22.06
  -3   1  12  450.93   21.98
  -3  -1  12  468.95   23.46
  -3   1  12  458.35   23.24
  -3   1  12  411.78   22.26
  -2   1  12   43.92    4.50
  -2  -1  12   33.77    3.60
  -2   1  12   32.47    4.07
  -2  -1  12   45.06    5.85
  -2   1  12   31.53    5.28
  -2   1  12   42.24    4.91
  -1   1  12   19.38    3.32
  -1   1  12   18.55    3.19
  -1  -1  12   16.32    4.52
  -1   1  12   23.71    4.80
  -1   1  12   16.36    3.88
   0   1  12  418.71   20.25
   0   1  12  375.95   19.95
   0  -1  12  449.46   22.06
   0   1  12  442.69   21.90
   0   1  12  414.70   21.09
   1   1  12   65.09    5.06
   1   1  12   52.52    4.67
   1  -1  12   53.65    6.19
   1   1  12   69.94    6.66
   1   1  12   57.32    5.68
   2   1  12  296.48   15.23
   2  -1  12  315.05   17.01
   2   1  12  332.27   17.24
   2   1  12  296.99   16.38
   3  -1  12   30.53    4.75
   3   1  12   29.41    4.98
   3  -1  12   28.56    4.70
   3   1  12   36.06    5.18
   3   1  12   23.68    4.15
   4  -1  12  370.00   19.15
   4   1  12  389.36   19.29
   4   1  12  339.88   18.58
   5  -1  12   95.51    7.23
   5   1  12   85.32    7.29
   5   1  12   86.90    6.84
   6  -1  12  234.93   13.30
   6   1  12  239.48   13.46
   6   1  12  236.13   13.06
   7  -1  12   88.72    6.95
   7   1  12   88.72    7.04
   7   1  12   98.55    6.77
   8  -1  12  100.18    7.13
   8   1  12  104.20    7.28
   8   1  12  110.78    7.13
   9  -1  12  179.40   10.26
   9   1  12  191.10   10.46
   9   1  12  185.29   10.18
  10  -1  12    9.96    2.50
  10   1  12   11.04    2.69
  10   1  12   11.50    2.39
  11  -1  12  144.78    7.86
  11   1  12  136.60    7.89
  11  -1  12  134.68    7.77
  11   1  12  151.23    7.81
 -16   2  12  206.75    9.78
 -15   2  12  142.14    7.40
 -14   2  12   38.30    2.98
 -14   2  12   61.13    3.89
 -13   2  12  246.13   12.30
 -13   2  12  273.48   12.93
 -12   2  12   -1.51    1.79
 -12   2  12    1.05    2.13
 -11   2  12  135.99    7.62
 -11   2  12  124.50    7.80
 -10   2  12    4.02    2.28
  -9   2  12  134.75    8.05
  -8   2  12  145.85    8.63
  -7   2  12  162.83    9.45
  -7   2  12  164.53    9.73
  -6   2  12  101.72    6.95
  -6   2  12  103.65    7.17
  -5   2  12    7.51    2.90
  -5   2  12    7.14    2.92
  -5   2  12    4.15    3.27
  -4   2  12  215.95   11.87
  -4   2  12  205.46   12.40
  -3   2  12    5.80    3.11
  -3   2  12    8.88    2.91
  -3   2  12    6.70    3.49
  -2   2  12  215.95   11.39
  -2  -2  12  183.50   11.49
  -2   2  12  182.29   11.48
  -2   2  12  220.37   11.60
  -2   2  12  215.56   12.29
  -1  -2  12  101.01    7.35
  -1   2  12   95.18    7.18
  -1   2  12  103.74    7.15
  -1   2  12  112.40    8.09
   0  -2  12  313.49   17.20
   0   2  12  337.51   17.44
   0   2  12  357.64   17.27
   0   2  12  355.22   18.13
   1   2  12  159.02    9.42
   1   2  12  155.37    9.70
   1   2  12  174.49   10.45
   2   2  12  156.82    8.99
   2   2  12  139.94    9.17
   2   2  12  170.06   10.09
   3   2  12  154.64    8.69
   3   2  12  152.58    8.90
   3   2  12  154.17    9.40
   4   2  12    0.71    2.39
   4   2  12    1.53    2.82
   5   2  12  119.32    8.31
   5   2  12  192.67    9.75
   6   2  12   23.37    2.98
   6   2  12   33.22    4.06
   7   2  12   68.58    5.46
   8   2  12   60.46    4.88
 -10  -2 -12  129.09    6.76
 -11   3  12    0.36    1.20
 -10   3  12   18.56    1.98
 -10   3  12   26.09    2.48
  -9   3  12   31.62    2.64
  -9   3  12   31.43    2.93
  -8   3  12   37.74    3.07
  -8   3  12   38.01    3.38
  -7   3  12   43.97    3.45
  -7   3  12   43.04    3.75
  -6   3  12   26.30    2.89
  -6   3  12   27.51    3.09
  -5   3  12   42.80    3.50
  -5   3  12   34.04    3.60
  -4   3  12    1.64    1.82
  -3   3  12   49.05    4.03
  -2   3  12   12.60    2.59
  -1   3  12  175.39    9.84
  -1   3  12  193.20   10.60
   0   3  12   62.29    4.80
   0   3  12   73.69    5.68
   1   3  12  121.95    7.42
   1   3  12  141.58    8.27
   2   3  12  162.79    8.96
   2   3  12  183.95    9.78
   3   3  12    2.28    1.37
   3   3  12   -0.46    1.59
   3   3  12    1.31    2.22
   4   3  12   60.63    3.85
   4   3  12   61.17    4.11
   5   3  12    0.17    1.75
   6   3  12   40.03    3.31
 -14   0  13   -1.62    1.52
 -13   0  13   -0.16    1.64
 -12   0  13   -0.78    2.11
 -12   0  13    0.34    1.70
 -11   0  13    1.10    1.72
 -10   0  13    1.35    1.80
  -9   0  13    1.68    2.34
  -9   0  13    0.20    1.78
  -8   0  13   -0.25    2.37
  -7   0  13   -3.27    2.51
  -6   0  13   -1.01    2.52
  -5   0  13   -0.25    2.04
  -5   0  13    1.52    3.43
  -4   0  13   -3.13    2.46
  -4   0  13   -2.67    3.56
  -3   0  13    0.23    2.12
  -3   0  13    1.90    3.30
  -2   0  13    2.14    2.10
  -2   0  13   -2.64    3.71
  -1   0  13    1.11    3.55
   0   0  13    3.99    3.35
   1   0  13    1.76    3.41
   2   0  13    1.70    3.14
   3   0  13   -0.33    3.16
   4   0  13    3.39    3.04
   5   0  13    1.15    2.64
   6   0  13    0.26    2.47
   7   0  13   -1.63    2.74
   8   0  13   -1.00    2.13
   9   0  13   -0.16    1.72
 -15   1  13    6.14    1.34
 -14   1  13   40.01    3.15
 -13   1  13    0.29    1.47
 -13   1  13    0.80    1.53
 -12   1  13   32.16    3.14
 -12   1  13   30.85    3.14
 -11   1  13   11.22    2.39
 -11   1  13    6.20    2.14
 -10   1  13    5.99    2.22
 -10   1  13    7.41    2.31
  -9   1  13    0.66    2.19
  -9   1  13    0.43    2.08
  -8   1  13   21.01    2.91
  -7  -1  13   18.54    2.92
  -7   1  13   19.53    2.91
  -6  -1  13   21.33    2.91
  -6   1  13   21.23    3.26
  -6   1  13   23.95    3.08
  -5  -1  13   67.86    5.03
  -5   1  13   81.04    5.59
  -5   1  13   67.10    5.08
  -4   1  13   22.69    3.20
  -4   1  13   21.25    2.89
  -4  -1  13   16.15    4.15
  -4   1  13   21.17    4.14
  -3   1  13   58.88    4.61
  -3  -1  13   60.42    5.67
  -3   1  13   57.51    5.66
  -2   1  13  136.69    8.17
  -2  -1  13  143.38    9.41
  -2   1  13  141.55    9.40
  -1   1  13   92.42    6.15
  -1  -1  13  106.78    7.60
  -1   1  13   99.87    7.52
  -1   1  13   87.88    6.41
   0   1  13   19.38    2.62
   0  -1  13   15.48    3.74
   0   1  13   24.14    4.18
   0   1  13   16.71    3.07
   1  -1  13   81.29    6.41
   1   1  13   77.07    6.36
   1   1  13   64.89    5.38
   2  -1  13   35.05    4.35
   2   1  13   33.95    4.38
   2   1  13   26.73    3.45
   3  -1  13   -2.24    2.87
   3   1  13    4.07    2.89
   3   1  13    2.21    2.11
   4  -1  13  153.43    9.16
   4   1  13  153.18    9.40
   4   1  13  150.18    8.56
   5  -1  13   85.59    6.15
   5   1  13   88.27    6.27
   5   1  13   82.90    5.66
   6  -1  13   17.45    2.94
   6   1  13   17.68    3.02
   6   1  13   17.41    2.41
   7  -1  13   48.78    3.91
   7   1  13   44.80    4.14
   8  -1  13   -0.28    1.56
   8   1  13    0.93    1.64
 -13   2  13   16.68    1.78
 -12   2  13    0.76    1.05
 -11   2  13  116.47    6.28
 -10   2  13   66.17    4.33
  -9   2  13  146.56    7.73
  -9   2  13  137.47    7.82
  -8   2  13   87.49    5.11
  -8   2  13   63.21    4.91
  -7   2  13   72.72    5.01
  -7   2  13   73.02    5.06
  -6   2  13  151.23    8.36
  -6   2  13  149.45    8.37
  -5   2  13   18.42    2.71
  -4   2  13  124.10    7.14
  -4   2  13  116.20    7.03
  -3   2  13   12.28    2.42
  -3   2  13    9.37    2.35
  -2   2  13   80.21    5.04
  -2   2  13   74.67    5.56
  -1   2  13   53.94    3.98
  -1   2  13   43.56    3.69
  -1   2  13   52.60    4.68
   0   2  13   42.13    3.31
   0   2  13   47.28    4.29
   1   2  13  116.37    6.43
   1   2  13   93.05    6.51
   2   2  13   13.14    2.77
   3   2  13  199.89   10.64
   4   2  13   17.08    2.81
   5   2  13   59.33    4.36
   6   2  13   28.89    2.80
  -7   3  13  111.33    5.81
  -6   3  13    2.36    1.05
  -5   3  13  182.95    8.82
  -4   3  13    1.71    1.19
  -4   3  13    0.91    1.16
  -3   3  13  139.69    7.12
  -2   3  13   57.78    3.64
  -1   3  13   46.62    3.06
  -9   0  14  340.52   16.01
  -8   0  14  306.94   14.65
  -7   0  14   24.00    2.74
  -6   0  14  501.10   22.89
  -5   0  14   12.49    2.08
  -4   0  14  246.13   11.92
  -3   0  14   11.34    3.30
  -2   0  14  284.40   14.86
  -1   0  14  114.92    7.55
   0   0  14  132.88    8.25
   1   0  14  260.75   13.57
   2   0  14    3.61    2.42
   3   0  14  329.82   16.14
   4   0  14    6.67    2.19
   5   0  14   62.07    4.47
   6   0  14   75.26    4.70
 -11   1  14    1.78    1.16
 -10   1  14  129.25    5.77
 -10   1  14   82.40    5.13
  -9   1  14   32.84    2.61
  -7   1  14  281.01   13.53
  -6   1  14   39.97    3.34
  -5   1  14  302.34   14.45
  -4   1  14   16.02    2.27
  -3   1  14   91.96    5.36
  -2   1  14  180.57    8.95
  -1  -1  14  192.50   10.25
  -1   1  14  182.78   10.34
   0  -1  14  143.52    8.51
   0   1  14  160.50    8.79
   1  -1  14   39.82    3.80
   1   1  14   45.92    4.13
   2  -1  14  266.45   13.93
   2   1  14  313.01   14.32
   3  -1  14    3.01    1.67
   3   1  14    1.30    1.72
   4   1  14  135.88    7.34
  -8   2  14   25.49    2.06
  -7   2  14   12.37    1.58
  -5   2  14    2.35    1.21
  -4   2  14  175.09    8.53
  -3   2  14   13.51    1.66
   0   0   0    0.00    0.00


TITL tf-rx6 in P2(1)/c
REM P2(1)/c (#14 in standard setting)
CELL 1.54184  20.725241   4.958746  11.887901  90.0000  98.1106  90.0000
ZERR    4.00   0.000390   0.000105   0.000214   0.0000   0.0017   0.0000
LATT  1
SYMM -x, y+1/2,-z+1/2
SFAC C H N O Se
UNIT 56.00 36.00 4.00 12.00 4.00
TREF
HKLF 4
END
_computing_structure_solution     'SHELXT 2018/2 (Sheldrick, 2018)'
;
_shelx_hkl_checksum                87707
_olex2_submission_special_instructions  'No special instructions were received'
_oxdiff_exptl_absorpt_empirical_details
;
Empirical correction (ABSPACK) includes:
- Absorption correction using spherical harmonics
- Frame scaling
;
_oxdiff_exptl_absorpt_empirical_full_max  1.451
_oxdiff_exptl_absorpt_empirical_full_min  0.651
