data_tf-16
_audit_creation_date               2020-04-07
_audit_creation_method
;
Olex2 1.3
(compiled 2020.02.04 svn.rd84adfe8 for OlexSys, GUI svn.r6032)
;
_shelx_SHELXL_version_number       '2018/3'
_audit_contact_author_address      ?
_audit_contact_author_email        ?
_audit_contact_author_name         ''
_audit_contact_author_phone        ?
_publ_contact_author_id_orcid      ?
_publ_section_references
;
Dolomanov, O.V., Bourhis, L.J., Gildea, R.J, Howard, J.A.K. & Puschmann, H.
 (2009), J. Appl. Cryst. 42, 339-341.

Sheldrick, G.M. (2015). Acta Cryst. C71, 3-8.
;
_chemical_name_common              ?
_chemical_name_systematic          ?
_chemical_formula_moiety           'C20 H16 Br N3 O'
_chemical_formula_sum              'C20 H16 Br N3 O'
_chemical_formula_weight           394.27
_chemical_melting_point            ?
_chemical_oxdiff_formula           'C11 H10 N O'
loop_
  _atom_type_symbol
  _atom_type_description
  _atom_type_scat_dispersion_real
  _atom_type_scat_dispersion_imag
  _atom_type_scat_source
 'C' 'C' 0.0181 0.0091 'International Tables Vol C Tables 4.2.6.8 and 6.1.1.4'
 'H' 'H' 0.0000 0.0000 'International Tables Vol C Tables 4.2.6.8 and 6.1.1.4'
 'Br' 'Br' -0.6763 1.2805
 'International Tables Vol C Tables 4.2.6.8 and 6.1.1.4'
 'N' 'N' 0.0311 0.0180 'International Tables Vol C Tables 4.2.6.8 and 6.1.1.4'
 'O' 'O' 0.0492 0.0322 'International Tables Vol C Tables 4.2.6.8 and 6.1.1.4'

_shelx_space_group_comment
;
The symmetry employed for this shelxl refinement is uniquely defined
by the following loop, which should always be used as a source of
symmetry information in preference to the above space-group names.
They are only intended as comments.
;
_space_group_crystal_system        'monoclinic'
_space_group_IT_number             14
_space_group_name_H-M_alt          'P 1 21/n 1'
_space_group_name_Hall             '-P 2yn'
loop_
  _space_group_symop_operation_xyz
 'x, y, z'
 '-x+1/2, y+1/2, -z+1/2'
 '-x, -y, -z'
 'x-1/2, -y-1/2, z-1/2'

_cell_length_a                     13.2476(4)
_cell_length_b                     9.0084(2)
_cell_length_c                     14.1474(5)
_cell_angle_alpha                  90
_cell_angle_beta                   91.033(3)
_cell_angle_gamma                  90
_cell_volume                       1688.07(9)
_cell_formula_units_Z              4
_cell_measurement_reflns_used      4155
_cell_measurement_temperature      100.00(10)
_cell_measurement_theta_max        72.0870
_cell_measurement_theta_min        5.9390
_shelx_estimated_absorpt_T_max     0.875
_shelx_estimated_absorpt_T_min     0.688
_exptl_absorpt_coefficient_mu      3.420
_exptl_absorpt_correction_T_max    1.000
_exptl_absorpt_correction_T_min    0.827
_exptl_absorpt_correction_type     gaussian
_exptl_absorpt_process_details
;
CrysAlisPro 1.171.40.36a (Rigaku Oxford Diffraction, 2018)
Numerical absorption correction based on gaussian integration over
			a multifaceted crystal model
Empirical absorption correction using spherical harmonics,
 implemented in SCALE3 ABSPACK scaling algorithm.
;
_exptl_absorpt_special_details     ?
_exptl_crystal_colour              colourless
_exptl_crystal_colour_primary      colourless
_exptl_crystal_density_diffrn      1.551
_exptl_crystal_density_meas        ?
_exptl_crystal_density_method      ?
_exptl_crystal_description         needle
_exptl_crystal_F_000               800
loop_
  _exptl_crystal_face_index_h
  _exptl_crystal_face_index_k
  _exptl_crystal_face_index_l
  _exptl_crystal_face_perp_dist
 3 -1 8 0.0480
 -6 -1 -6 0.0074
 -1 -6 0 0.0574
 1 6 0 0.0318
 7 1 -5 0.0258
 -7 -2 5 0.0137

_exptl_crystal_size_max            0.118
_exptl_crystal_size_mid            0.072
_exptl_crystal_size_min            0.04
loop_
  _exptl_oxdiff_crystal_face_indexfrac_h
  _exptl_oxdiff_crystal_face_indexfrac_k
  _exptl_oxdiff_crystal_face_indexfrac_l
  _exptl_oxdiff_crystal_face_x
  _exptl_oxdiff_crystal_face_y
  _exptl_oxdiff_crystal_face_z
 3.3085 -0.8593 8.3007 -0.9322 -0.2764 0.2336
 -5.8713 -0.9008 -6.4392 0.9322 0.2764 0.2338
 -0.5867 -5.8394 -0.4022 -0.1362 0.7341 0.6653
 0.7679 5.8331 0.2507 0.1329 -0.7164 -0.6849
 6.7110 1.4959 -5.3456 -0.0780 0.4200 -0.9041
 -6.6709 -1.6507 5.2887 0.0735 -0.3954 0.9156

_exptl_transmission_factor_max     ?
_exptl_transmission_factor_min     ?
_diffrn_reflns_av_R_equivalents    0.0453
_diffrn_reflns_av_unetI/netI       0.0470
_diffrn_reflns_Laue_measured_fraction_full  0.996
_diffrn_reflns_Laue_measured_fraction_max  0.966
_diffrn_reflns_limit_h_max         16
_diffrn_reflns_limit_h_min         -16
_diffrn_reflns_limit_k_max         8
_diffrn_reflns_limit_k_min         -11
_diffrn_reflns_limit_l_max         17
_diffrn_reflns_limit_l_min         -17
_diffrn_reflns_number              10353
_diffrn_reflns_point_group_measured_fraction_full  0.996
_diffrn_reflns_point_group_measured_fraction_max  0.966
_diffrn_reflns_theta_full          67.684
_diffrn_reflns_theta_max           76.968
_diffrn_reflns_theta_min           4.532
_diffrn_ambient_environment        N~2~
_diffrn_ambient_temperature        100.00(10)
_diffrn_detector                   'CCD plate'
_diffrn_detector_area_resol_mean   10.0000
_diffrn_detector_type              HyPix
_diffrn_measured_fraction_theta_full  0.996
_diffrn_measured_fraction_theta_max  0.966
_diffrn_measurement_details
;
List of Runs (angles in degrees, time in seconds):

  # Type    Start    End  Width  t~exp~   \w     \q     \k     \f   Frames
--------------------------------------------------------------------------
  1  \w    -67.00  14.00   0.50    0.33    --  -48.20  67.00  -6.00  162
  2  \w    -76.00 -50.00   0.50    1.32    --  -86.25  67.00  -6.00   52
  3  \w    -46.00 -15.00   0.50    1.32    --  -86.25  45.00-180.00   62
  4  \w   -120.00 -30.00   0.50    0.33    --  -48.20 -67.00-140.00  180
  5  \w   -116.00 -90.00   0.50    0.33    --  -48.20-125.00   0.00   52
  6  \w     -3.00  26.00   0.50    0.33    --   48.20 -67.00-140.00   58
  7  \w     47.00  79.00   0.50    1.32    --  107.75 -67.00-140.00   64
  8  \w     60.00 103.00   0.50    1.32    --  107.75 -94.00 -90.00   86
  9  \w     36.00  68.00   0.50    1.32    --  107.75 -61.00 -60.00   64
 10  \w     42.00  68.00   0.50    1.32    --  107.75 -61.00   0.00   52
 11  \w     36.00  62.00   0.50    1.32    --  107.75 -61.00  90.00   52
 12  \w     36.00  92.00   0.50    1.32    --  107.75 -94.00 150.00  112
 13  \w     97.00 176.00   0.50    1.32    --  107.75  45.00 -60.00  158
 14  \w    149.00 178.00   0.50    1.32    --  107.75  67.00  -6.00   58
 15  \w    144.00 175.00   0.50    1.32    --  107.75  30.00 -90.00   62
 16  \w    140.00 173.00   0.50    1.32    --  107.75  77.00-120.00   66
 17  \w    138.00 164.00   0.50    1.32    --  107.75  61.00-180.00   52
 18  \w    103.00 137.00   0.50    1.32    --  107.75  77.00-120.00   68
 19  \w     95.00 137.00   0.50    1.32    --  107.75  30.00 -90.00   84
 20  \w     90.00 143.00   0.50    1.32    --  107.75  67.00  -6.00  106
 21  \w     91.00 130.00   0.50    1.32    --  107.75  61.00-180.00   78
;
_diffrn_measurement_device         'four-circle diffractometer'
_diffrn_measurement_device_type    'XtaLAB Synergy, Dualflex, HyPix'
_diffrn_measurement_method         '\w scans'
_diffrn_orient_matrix_type        
 'CrysAlisPro convention (1999,Acta A55,543-557)'
_diffrn_orient_matrix_UB_11        -0.0806382000
_diffrn_orient_matrix_UB_12        0.0366846000
_diffrn_orient_matrix_UB_13        -0.0763687000
_diffrn_orient_matrix_UB_21        0.0407546000
_diffrn_orient_matrix_UB_22        -0.1254994000
_diffrn_orient_matrix_UB_23        -0.0625317000
_diffrn_orient_matrix_UB_31        -0.0735495000
_diffrn_orient_matrix_UB_32        -0.1097107000
_diffrn_orient_matrix_UB_33        0.0461015000
_diffrn_radiation_monochromator    mirror
_diffrn_radiation_probe            x-ray
_diffrn_radiation_type             'Cu K\a'
_diffrn_radiation_wavelength       1.54184
_diffrn_source                     'micro-focus sealed X-ray tube'
_diffrn_source_type                'PhotonJet (Cu) X-ray Source'
_reflns_Friedel_coverage           0.000
_reflns_Friedel_fraction_full      .
_reflns_Friedel_fraction_max       .
_reflns_number_gt                  2896
_reflns_number_total               3452
_reflns_odcompleteness_completeness  97.93
_reflns_odcompleteness_iscentric   1
_reflns_odcompleteness_theta       75.12
_reflns_special_details
;
 Reflections were merged by SHELXL according to the crystal
 class for the calculation of statistics and refinement.
 
 _reflns_Friedel_fraction is defined as the number of unique
 Friedel pairs measured divided by the number that would be
 possible theoretically, ignoring centric projections and
 systematic absences.
;
_reflns_threshold_expression       'I > 2\s(I)'
_computing_cell_refinement         'CrysAlisPro 1.171.40.36a (Rigaku OD, 2018)'
_computing_data_collection         'CrysAlisPro 1.171.40.36a (Rigaku OD, 2018)'
_computing_data_reduction          'CrysAlisPro 1.171.40.36a (Rigaku OD, 2018)'
_computing_molecular_graphics      'Olex2 1.3 (Dolomanov et al., 2009)'
_computing_publication_material    'Olex2 1.3 (Dolomanov et al., 2009)'
_computing_structure_refinement    'SHELXL 2018/3 (Sheldrick, 2015)'
_computing_structure_solution      'ShelXT (Sheldrick, 2015)'
_refine_diff_density_max           0.748
_refine_diff_density_min           -0.762
_refine_diff_density_rms           0.081
_refine_ls_extinction_coef         .
_refine_ls_extinction_method       none
_refine_ls_goodness_of_fit_ref     1.032
_refine_ls_hydrogen_treatment      constr
_refine_ls_matrix_type             full
_refine_ls_number_parameters       227
_refine_ls_number_reflns           3452
_refine_ls_number_restraints       0
_refine_ls_R_factor_all            0.0562
_refine_ls_R_factor_gt             0.0469
_refine_ls_restrained_S_all        1.032
_refine_ls_shift/su_max            0.001
_refine_ls_shift/su_mean           0.000
_refine_ls_structure_factor_coef   Fsqd
_refine_ls_weighting_details      
 'w=1/[\s^2^(Fo^2^)+(0.0542P)^2^+2.3229P] where P=(Fo^2^+2Fc^2^)/3'
_refine_ls_weighting_scheme        calc
_refine_ls_wR_factor_gt            0.1182
_refine_ls_wR_factor_ref           0.1237
_refine_special_details            ?
_olex2_refinement_description
;
1. Fixed Uiso
 At 1.2 times of:
  All C(H) groups, All C(H,H) groups
 At 1.5 times of:
  All C(H,H,H) groups
2.a Secondary CH2 refined with riding coordinates:
 C13(H13A,H13B)
2.b Aromatic/amide H refined with riding coordinates:
 C2(H2), C5(H5), C6(H6), C9(H9), C10(H10), C11(H11), C12(H12), C15(H15),
 C16(H16), C18(H18), C19(H19)
2.c Idealised Me refined as rotating group:
 C20(H20A,H20B,H20C)
;
_atom_sites_solution_hydrogens     geom
_atom_sites_solution_primary       dual
_atom_sites_solution_secondary     ?
loop_
  _atom_site_label
  _atom_site_type_symbol
  _atom_site_fract_x
  _atom_site_fract_y
  _atom_site_fract_z
  _atom_site_U_iso_or_equiv
  _atom_site_adp_type
  _atom_site_occupancy
  _atom_site_site_symmetry_order
  _atom_site_calc_flag
  _atom_site_refinement_flags_posn
  _atom_site_refinement_flags_adp
  _atom_site_refinement_flags_occupancy
  _atom_site_disorder_assembly
  _atom_site_disorder_group
 Br1 Br 0.36765(3) 0.23196(4) 0.13023(3) 0.04495(16) Uani 1 1 d . . . . .
 O1 O 0.72490(17) 1.1118(3) -0.07582(17) 0.0363(5) Uani 1 1 d . . . . .
 N1 N 0.48719(19) 0.6475(3) 0.37853(19) 0.0296(5) Uani 1 1 d . . . . .
 N2 N 0.61874(19) 0.7244(3) 0.29226(19) 0.0296(5) Uani 1 1 d . . . . .
 N3 N 0.6550(2) 0.9499(3) 0.4418(2) 0.0354(6) Uani 1 1 d . . . . .
 C1 C 0.4470(3) 0.3951(4) 0.1764(2) 0.0365(7) Uani 1 1 d . . . . .
 C2 C 0.4234(2) 0.4575(4) 0.2620(2) 0.0331(7) Uani 1 1 d . . . . .
 H2 H 0.368264 0.426192 0.296517 0.040 Uiso 1 1 calc R U . . .
 C3 C 0.4877(2) 0.5712(3) 0.2937(2) 0.0305(6) Uani 1 1 d . . . . .
 C4 C 0.5692(2) 0.6164(4) 0.2395(2) 0.0305(6) Uani 1 1 d . . . . .
 C5 C 0.5902(3) 0.5542(4) 0.1523(2) 0.0352(7) Uani 1 1 d . . . . .
 H5 H 0.644131 0.586739 0.116491 0.042 Uiso 1 1 calc R U . . .
 C6 C 0.5270(3) 0.4411(4) 0.1212(2) 0.0398(8) Uani 1 1 d . . . . .
 H6 H 0.538092 0.395866 0.063174 0.048 Uiso 1 1 calc R U . . .
 C7 C 0.5666(2) 0.7360(3) 0.3754(2) 0.0283(6) Uani 1 1 d . . . . .
 C8 C 0.5946(2) 0.8326(3) 0.4561(2) 0.0283(6) Uani 1 1 d . . . . .
 C9 C 0.5550(2) 0.7983(4) 0.5435(2) 0.0340(7) Uani 1 1 d . . . . .
 H9 H 0.513617 0.715931 0.550951 0.041 Uiso 1 1 calc R U . . .
 C10 C 0.5787(3) 0.8896(4) 0.6192(3) 0.0375(7) Uani 1 1 d . . . . .
 H10 H 0.552360 0.870420 0.678433 0.045 Uiso 1 1 calc R U . . .
 C11 C 0.6418(3) 1.0095(4) 0.6059(3) 0.0363(7) Uani 1 1 d . . . . .
 H11 H 0.659703 1.071892 0.655856 0.044 Uiso 1 1 calc R U . . .
 C12 C 0.6774(3) 1.0335(4) 0.5165(3) 0.0391(8) Uani 1 1 d . . . . .
 H12 H 0.720230 1.114015 0.507714 0.047 Uiso 1 1 calc R U . . .
 C13 C 0.7174(2) 0.7847(4) 0.2671(2) 0.0335(7) Uani 1 1 d . . . . .
 H13A H 0.764448 0.703288 0.259271 0.040 Uiso 1 1 calc R U . . .
 H13B H 0.742546 0.846330 0.318532 0.040 Uiso 1 1 calc R U . . .
 C14 C 0.7138(2) 0.8760(4) 0.1770(2) 0.0298(6) Uani 1 1 d . . . . .
 C15 C 0.7967(2) 0.8715(4) 0.1180(2) 0.0318(7) Uani 1 1 d . . . . .
 H15 H 0.851749 0.812465 0.134817 0.038 Uiso 1 1 calc R U . . .
 C16 C 0.7993(2) 0.9524(4) 0.0354(2) 0.0326(7) Uani 1 1 d . . . . .
 H16 H 0.855681 0.948247 -0.002722 0.039 Uiso 1 1 calc R U . . .
 C17 C 0.7168(2) 1.0404(3) 0.0095(2) 0.0292(6) Uani 1 1 d . . . . .
 C18 C 0.6332(2) 1.0474(3) 0.0675(2) 0.0304(6) Uani 1 1 d . . . . .
 H18 H 0.578196 1.106772 0.050982 0.037 Uiso 1 1 calc R U . . .
 C19 C 0.6328(2) 0.9645(4) 0.1507(2) 0.0315(7) Uani 1 1 d . . . . .
 H19 H 0.576766 0.968711 0.189272 0.038 Uiso 1 1 calc R U . . .
 C20 C 0.6471(3) 1.2119(4) -0.1034(3) 0.0456(9) Uani 1 1 d . . . . .
 H20A H 0.661712 1.252778 -0.164365 0.068 Uiso 1 1 calc R U . . .
 H20B H 0.643107 1.290679 -0.057941 0.068 Uiso 1 1 calc R U . . .
 H20C H 0.583800 1.160107 -0.106724 0.068 Uiso 1 1 calc R U . . .

loop_
  _atom_site_aniso_label
  _atom_site_aniso_U_11
  _atom_site_aniso_U_22
  _atom_site_aniso_U_33
  _atom_site_aniso_U_23
  _atom_site_aniso_U_13
  _atom_site_aniso_U_12
 Br1 0.0420(2) 0.0378(2) 0.0543(3) -0.01576(17) -0.01961(17) 0.00601(15)
 O1 0.0325(12) 0.0390(12) 0.0375(12) 0.0066(10) 0.0002(9) 0.0025(9)
 N1 0.0263(12) 0.0295(13) 0.0329(13) -0.0046(11) -0.0022(10) -0.0009(10)
 N2 0.0265(12) 0.0315(13) 0.0308(13) 0.0008(11) -0.0023(10) 0.0021(10)
 N3 0.0365(14) 0.0335(14) 0.0361(14) -0.0009(12) -0.0041(11) -0.0073(11)
 C1 0.0385(17) 0.0328(16) 0.0376(17) -0.0077(14) -0.0120(14) 0.0039(13)
 C2 0.0289(15) 0.0330(16) 0.0371(17) -0.0029(13) -0.0084(12) 0.0035(12)
 C3 0.0281(14) 0.0287(15) 0.0345(16) 0.0001(13) -0.0060(12) 0.0034(12)
 C4 0.0291(15) 0.0317(16) 0.0306(15) -0.0014(13) -0.0044(12) 0.0043(12)
 C5 0.0372(17) 0.0377(17) 0.0308(16) -0.0007(14) 0.0002(13) 0.0061(14)
 C6 0.0477(19) 0.0401(18) 0.0311(16) -0.0054(14) -0.0069(14) 0.0127(15)
 C7 0.0280(14) 0.0269(15) 0.0299(15) 0.0014(12) -0.0017(12) 0.0013(11)
 C8 0.0221(13) 0.0282(14) 0.0343(16) 0.0001(13) -0.0045(11) 0.0006(11)
 C9 0.0325(16) 0.0331(16) 0.0367(17) -0.0039(14) 0.0034(13) -0.0030(13)
 C10 0.0361(17) 0.0405(18) 0.0359(17) -0.0019(15) 0.0031(13) -0.0012(14)
 C11 0.0361(17) 0.0348(17) 0.0378(17) -0.0062(14) -0.0060(13) 0.0013(14)
 C12 0.0397(18) 0.0356(17) 0.0419(19) 0.0009(15) -0.0067(14) -0.0098(14)
 C13 0.0251(14) 0.0404(17) 0.0350(16) 0.0035(14) -0.0010(12) 0.0002(13)
 C14 0.0263(14) 0.0323(15) 0.0306(15) -0.0032(13) -0.0027(11) -0.0008(12)
 C15 0.0254(14) 0.0315(16) 0.0385(17) -0.0010(13) -0.0019(12) 0.0032(12)
 C16 0.0246(14) 0.0344(16) 0.0389(17) -0.0011(14) 0.0013(12) -0.0010(12)
 C17 0.0291(15) 0.0266(14) 0.0316(15) -0.0019(12) -0.0044(12) -0.0038(11)
 C18 0.0261(14) 0.0265(15) 0.0386(16) -0.0023(13) -0.0043(12) 0.0022(11)
 C19 0.0243(14) 0.0338(16) 0.0365(17) -0.0012(13) 0.0030(12) 0.0003(12)
 C20 0.0408(19) 0.043(2) 0.053(2) 0.0173(17) -0.0030(16) 0.0042(16)

_geom_special_details
;
 All esds (except the esd in the dihedral angle between two l.s. planes)
 are estimated using the full covariance matrix.  The cell esds are taken
 into account individually in the estimation of esds in distances, angles
 and torsion angles; correlations between esds in cell parameters are only
 used when they are defined by crystal symmetry.  An approximate (isotropic)
 treatment of cell esds is used for estimating esds involving l.s. planes.
;
loop_
  _geom_bond_atom_site_label_1
  _geom_bond_atom_site_label_2
  _geom_bond_distance
  _geom_bond_site_symmetry_2
  _geom_bond_publ_flag
 Br1 C1 1.914(3) . ?
 O1 C17 1.373(4) . ?
 O1 C20 1.420(4) . ?
 N1 C3 1.383(4) . ?
 N1 C7 1.322(4) . ?
 N2 C4 1.385(4) . ?
 N2 C7 1.378(4) . ?
 N2 C13 1.465(4) . ?
 N3 C8 1.343(4) . ?
 N3 C12 1.326(4) . ?
 C1 C2 1.376(5) . ?
 C1 C6 1.392(5) . ?
 C2 H2 0.9300 . ?
 C2 C3 1.401(5) . ?
 C3 C4 1.397(5) . ?
 C4 C5 1.388(5) . ?
 C5 H5 0.9300 . ?
 C5 C6 1.385(5) . ?
 C6 H6 0.9300 . ?
 C7 C8 1.478(4) . ?
 C8 C9 1.386(5) . ?
 C9 H9 0.9300 . ?
 C9 C10 1.382(5) . ?
 C10 H10 0.9300 . ?
 C10 C11 1.381(5) . ?
 C11 H11 0.9300 . ?
 C11 C12 1.376(5) . ?
 C12 H12 0.9300 . ?
 C13 H13A 0.9700 . ?
 C13 H13B 0.9700 . ?
 C13 C14 1.516(4) . ?
 C14 C15 1.392(4) . ?
 C14 C19 1.383(4) . ?
 C15 H15 0.9300 . ?
 C15 C16 1.378(5) . ?
 C16 H16 0.9300 . ?
 C16 C17 1.395(4) . ?
 C17 C18 1.392(5) . ?
 C18 H18 0.9300 . ?
 C18 C19 1.394(5) . ?
 C19 H19 0.9300 . ?
 C20 H20A 0.9600 . ?
 C20 H20B 0.9600 . ?
 C20 H20C 0.9600 . ?

loop_
  _geom_angle_atom_site_label_1
  _geom_angle_atom_site_label_2
  _geom_angle_atom_site_label_3
  _geom_angle
  _geom_angle_site_symmetry_1
  _geom_angle_site_symmetry_3
  _geom_angle_publ_flag
 C17 O1 C20 118.1(3) . . ?
 C7 N1 C3 104.7(3) . . ?
 C4 N2 C13 123.0(3) . . ?
 C7 N2 C4 105.9(3) . . ?
 C7 N2 C13 130.0(3) . . ?
 C12 N3 C8 116.9(3) . . ?
 C2 C1 Br1 118.8(3) . . ?
 C2 C1 C6 124.0(3) . . ?
 C6 C1 Br1 117.2(3) . . ?
 C1 C2 H2 122.1 . . ?
 C1 C2 C3 115.8(3) . . ?
 C3 C2 H2 122.1 . . ?
 N1 C3 C2 129.0(3) . . ?
 N1 C3 C4 110.3(3) . . ?
 C4 C3 C2 120.5(3) . . ?
 N2 C4 C3 105.8(3) . . ?
 N2 C4 C5 131.5(3) . . ?
 C5 C4 C3 122.7(3) . . ?
 C4 C5 H5 121.6 . . ?
 C6 C5 C4 116.7(3) . . ?
 C6 C5 H5 121.6 . . ?
 C1 C6 H6 119.9 . . ?
 C5 C6 C1 120.2(3) . . ?
 C5 C6 H6 119.9 . . ?
 N1 C7 N2 113.2(3) . . ?
 N1 C7 C8 121.2(3) . . ?
 N2 C7 C8 125.6(3) . . ?
 N3 C8 C7 119.3(3) . . ?
 N3 C8 C9 123.1(3) . . ?
 C9 C8 C7 117.7(3) . . ?
 C8 C9 H9 120.8 . . ?
 C10 C9 C8 118.3(3) . . ?
 C10 C9 H9 120.8 . . ?
 C9 C10 H10 120.3 . . ?
 C11 C10 C9 119.3(3) . . ?
 C11 C10 H10 120.3 . . ?
 C10 C11 H11 121.1 . . ?
 C12 C11 C10 117.8(3) . . ?
 C12 C11 H11 121.1 . . ?
 N3 C12 C11 124.6(3) . . ?
 N3 C12 H12 117.7 . . ?
 C11 C12 H12 117.7 . . ?
 N2 C13 H13A 109.0 . . ?
 N2 C13 H13B 109.0 . . ?
 N2 C13 C14 113.0(3) . . ?
 H13A C13 H13B 107.8 . . ?
 C14 C13 H13A 109.0 . . ?
 C14 C13 H13B 109.0 . . ?
 C15 C14 C13 118.3(3) . . ?
 C19 C14 C13 123.5(3) . . ?
 C19 C14 C15 118.2(3) . . ?
 C14 C15 H15 119.2 . . ?
 C16 C15 C14 121.7(3) . . ?
 C16 C15 H15 119.2 . . ?
 C15 C16 H16 120.3 . . ?
 C15 C16 C17 119.5(3) . . ?
 C17 C16 H16 120.3 . . ?
 O1 C17 C16 115.1(3) . . ?
 O1 C17 C18 125.0(3) . . ?
 C18 C17 C16 119.9(3) . . ?
 C17 C18 H18 120.4 . . ?
 C17 C18 C19 119.3(3) . . ?
 C19 C18 H18 120.4 . . ?
 C14 C19 C18 121.5(3) . . ?
 C14 C19 H19 119.3 . . ?
 C18 C19 H19 119.3 . . ?
 O1 C20 H20A 109.5 . . ?
 O1 C20 H20B 109.5 . . ?
 O1 C20 H20C 109.5 . . ?
 H20A C20 H20B 109.5 . . ?
 H20A C20 H20C 109.5 . . ?
 H20B C20 H20C 109.5 . . ?

loop_
  _geom_torsion_atom_site_label_1
  _geom_torsion_atom_site_label_2
  _geom_torsion_atom_site_label_3
  _geom_torsion_atom_site_label_4
  _geom_torsion
  _geom_torsion_site_symmetry_1
  _geom_torsion_site_symmetry_2
  _geom_torsion_site_symmetry_3
  _geom_torsion_site_symmetry_4
  _geom_torsion_publ_flag
 Br1 C1 C2 C3 176.8(2) . . . . ?
 Br1 C1 C6 C5 -177.1(3) . . . . ?
 O1 C17 C18 C19 177.3(3) . . . . ?
 N1 C3 C4 N2 -0.8(3) . . . . ?
 N1 C3 C4 C5 177.6(3) . . . . ?
 N1 C7 C8 N3 -160.5(3) . . . . ?
 N1 C7 C8 C9 18.4(4) . . . . ?
 N2 C4 C5 C6 176.8(3) . . . . ?
 N2 C7 C8 N3 21.1(5) . . . . ?
 N2 C7 C8 C9 -160.0(3) . . . . ?
 N2 C13 C14 C15 -145.4(3) . . . . ?
 N2 C13 C14 C19 35.1(4) . . . . ?
 N3 C8 C9 C10 0.3(5) . . . . ?
 C1 C2 C3 N1 -175.5(3) . . . . ?
 C1 C2 C3 C4 0.7(4) . . . . ?
 C2 C1 C6 C5 1.5(5) . . . . ?
 C2 C3 C4 N2 -177.6(3) . . . . ?
 C2 C3 C4 C5 0.8(5) . . . . ?
 C3 N1 C7 N2 1.1(3) . . . . ?
 C3 N1 C7 C8 -177.5(3) . . . . ?
 C3 C4 C5 C6 -1.2(5) . . . . ?
 C4 N2 C7 N1 -1.6(3) . . . . ?
 C4 N2 C7 C8 176.9(3) . . . . ?
 C4 N2 C13 C14 67.7(4) . . . . ?
 C4 C5 C6 C1 0.1(5) . . . . ?
 C6 C1 C2 C3 -1.8(5) . . . . ?
 C7 N1 C3 C2 176.3(3) . . . . ?
 C7 N1 C3 C4 -0.2(3) . . . . ?
 C7 N2 C4 C3 1.4(3) . . . . ?
 C7 N2 C4 C5 -176.8(3) . . . . ?
 C7 N2 C13 C14 -126.1(3) . . . . ?
 C7 C8 C9 C10 -178.6(3) . . . . ?
 C8 N3 C12 C11 -1.1(5) . . . . ?
 C8 C9 C10 C11 -1.1(5) . . . . ?
 C9 C10 C11 C12 0.9(5) . . . . ?
 C10 C11 C12 N3 0.3(5) . . . . ?
 C12 N3 C8 C7 179.7(3) . . . . ?
 C12 N3 C8 C9 0.8(5) . . . . ?
 C13 N2 C4 C3 170.4(3) . . . . ?
 C13 N2 C4 C5 -7.8(5) . . . . ?
 C13 N2 C7 N1 -169.6(3) . . . . ?
 C13 N2 C7 C8 8.9(5) . . . . ?
 C13 C14 C15 C16 -179.5(3) . . . . ?
 C13 C14 C19 C18 179.5(3) . . . . ?
 C14 C15 C16 C17 -0.4(5) . . . . ?
 C15 C14 C19 C18 0.0(5) . . . . ?
 C15 C16 C17 O1 -177.4(3) . . . . ?
 C15 C16 C17 C18 0.8(5) . . . . ?
 C16 C17 C18 C19 -0.7(5) . . . . ?
 C17 C18 C19 C14 0.3(5) . . . . ?
 C19 C14 C15 C16 0.1(5) . . . . ?
 C20 O1 C17 C16 -175.4(3) . . . . ?
 C20 O1 C17 C18 6.5(5) . . . . ?

_shelx_res_file
;
TITL tf-16_a.res in P2(1)/n
    tf-16.res
    created by SHELXL-2018/3 at 11:10:23 on 07-Apr-2020
REM Old TITL tf-16 in P2(1)/n
REM SHELXT solution in P2(1)/n: R1 0.182, Rweak 0.030, Alpha 0.025
REM <I/s> 0.342 for 225 systematic absences, Orientation as input
REM Formula found by SHELXT: C20 N3 O Br
CELL 1.54184 13.2476 9.0084 14.1474 90 91.033 90
ZERR 4 0.0004 0.0002 0.0005 0 0.003 0
LATT 1
SYMM 0.5-X,0.5+Y,0.5-Z
SFAC C H Br N O
UNIT 80 64 4 12 4

L.S. 4
PLAN  1
SIZE 0.04 0.072 0.118
CONF
BOND
list 4
fmap 2
acta
MORE -1
BOND $H
REM <olex2.extras>
REM <HklSrc "%tf-16.hkl">
REM </olex2.extras>

WGHT    0.054200    2.322900
FVAR       0.33912
BR1   3    0.367649    0.231957    0.130233    11.00000    0.04200    0.03784 =
         0.05426   -0.01576   -0.01961    0.00601
O1    5    0.724903    1.111778   -0.075824    11.00000    0.03251    0.03899 =
         0.03749    0.00657    0.00019    0.00246
N1    4    0.487192    0.647524    0.378528    11.00000    0.02626    0.02950 =
         0.03285   -0.00455   -0.00223   -0.00087
N2    4    0.618741    0.724406    0.292264    11.00000    0.02650    0.03152 =
         0.03079    0.00075   -0.00233    0.00213
N3    4    0.655026    0.949932    0.441831    11.00000    0.03654    0.03347 =
         0.03610   -0.00088   -0.00407   -0.00731
C1    1    0.446959    0.395066    0.176385    11.00000    0.03850    0.03278 =
         0.03763   -0.00766   -0.01202    0.00392
C2    1    0.423394    0.457495    0.261953    11.00000    0.02886    0.03299 =
         0.03709   -0.00291   -0.00841    0.00346
AFIX  43
H2    2    0.368264    0.426192    0.296517    11.00000   -1.20000
AFIX   0
C3    1    0.487674    0.571188    0.293737    11.00000    0.02814    0.02872 =
         0.03455    0.00011   -0.00603    0.00336
C4    1    0.569228    0.616383    0.239465    11.00000    0.02911    0.03170 =
         0.03064   -0.00145   -0.00444    0.00428
C5    1    0.590250    0.554160    0.152270    11.00000    0.03720    0.03773 =
         0.03077   -0.00071    0.00024    0.00612
AFIX  43
H5    2    0.644131    0.586739    0.116491    11.00000   -1.20000
AFIX   0
C6    1    0.527016    0.441123    0.121153    11.00000    0.04773    0.04015 =
         0.03112   -0.00538   -0.00692    0.01269
AFIX  43
H6    2    0.538092    0.395866    0.063174    11.00000   -1.20000
AFIX   0
C7    1    0.566633    0.736006    0.375360    11.00000    0.02798    0.02694 =
         0.02991    0.00141   -0.00168    0.00134
C8    1    0.594569    0.832646    0.456091    11.00000    0.02209    0.02815 =
         0.03434    0.00013   -0.00449    0.00064
C9    1    0.555026    0.798307    0.543474    11.00000    0.03247    0.03305 =
         0.03671   -0.00386    0.00343   -0.00301
AFIX  43
H9    2    0.513617    0.715931    0.550951    11.00000   -1.20000
AFIX   0
C10   1    0.578689    0.889551    0.619168    11.00000    0.03611    0.04051 =
         0.03591   -0.00195    0.00309   -0.00116
AFIX  43
H10   2    0.552360    0.870420    0.678433    11.00000   -1.20000
AFIX   0
C11   1    0.641838    1.009466    0.605941    11.00000    0.03606    0.03480 =
         0.03776   -0.00615   -0.00599    0.00128
AFIX  43
H11   2    0.659703    1.071892    0.655856    11.00000   -1.20000
AFIX   0
C12   1    0.677449    1.033518    0.516462    11.00000    0.03969    0.03556 =
         0.04189    0.00093   -0.00674   -0.00978
AFIX  43
H12   2    0.720230    1.114015    0.507714    11.00000   -1.20000
AFIX   0
C13   1    0.717395    0.784691    0.267058    11.00000    0.02506    0.04039 =
         0.03500    0.00350   -0.00104    0.00019
AFIX  23
H13A  2    0.764448    0.703288    0.259271    11.00000   -1.20000
H13B  2    0.742546    0.846330    0.318532    11.00000   -1.20000
AFIX   0
C14   1    0.713800    0.875990    0.177042    11.00000    0.02626    0.03231 =
         0.03059   -0.00317   -0.00268   -0.00082
C15   1    0.796702    0.871525    0.118048    11.00000    0.02544    0.03150 =
         0.03849   -0.00104   -0.00194    0.00324
AFIX  43
H15   2    0.851749    0.812465    0.134817    11.00000   -1.20000
AFIX   0
C16   1    0.799311    0.952367    0.035430    11.00000    0.02461    0.03439 =
         0.03885   -0.00107    0.00130   -0.00099
AFIX  43
H16   2    0.855681    0.948247   -0.002722    11.00000   -1.20000
AFIX   0
C17   1    0.716764    1.040414    0.009472    11.00000    0.02908    0.02664 =
         0.03159   -0.00187   -0.00440   -0.00377
C18   1    0.633173    1.047411    0.067506    11.00000    0.02606    0.02648 =
         0.03862   -0.00234   -0.00430    0.00221
AFIX  43
H18   2    0.578196    1.106772    0.050982    11.00000   -1.20000
AFIX   0
C19   1    0.632773    0.964462    0.150665    11.00000    0.02429    0.03378 =
         0.03645   -0.00121    0.00303    0.00026
AFIX  43
H19   2    0.576766    0.968711    0.189272    11.00000   -1.20000
AFIX   0
C20   1    0.647082    1.211943   -0.103449    11.00000    0.04078    0.04340 =
         0.05250    0.01733   -0.00303    0.00419
AFIX 137
H20A  2    0.661712    1.252778   -0.164365    11.00000   -1.50000
H20B  2    0.643107    1.290679   -0.057941    11.00000   -1.50000
H20C  2    0.583800    1.160107   -0.106724    11.00000   -1.50000
AFIX   0
HKLF 4




REM  tf-16_a.res in P2(1)/n
REM wR2 = 0.1237, GooF = S = 1.032, Restrained GooF = 1.032 for all data
REM R1 = 0.0469 for 2896 Fo > 4sig(Fo) and 0.0562 for all 3452 data
REM 227 parameters refined using 0 restraints

END

WGHT      0.0542      2.3325

REM Highest difference peak  0.748,  deepest hole -0.762,  1-sigma level  0.081
Q1    1   0.4733  0.3496  0.0343  11.00000  0.05    0.75
;
_shelx_res_checksum                93814
_shelx_hkl_file
;
   0   0  -1    0.04    0.43
   0   0  -2   33.28    2.53
   0   0  -3   -1.05    2.03
   0   0  -4 2347.82  107.48
   0   0  -5    1.48    2.33
   0   0  -6    5.65    3.03
   0   0  -7   -1.57    2.90
   0   0  -8  824.85   42.68
   0   0  -9    3.50    3.38
   0   0  10   67.68    4.75
   0   0 -10   68.37    8.55
   0   0 -10   67.49    4.84
   0   0 -11   -0.69    1.69
   0   0  11   -0.95    1.73
   0   0 -11    4.09    4.88
   0   0 -12  334.62   23.59
   0   0 -12  300.97   15.80
   0   0  12  304.54   15.88
   0   0 -13   -0.87    1.77
   0   0 -13   -3.77    5.45
   0   0  14    0.33    2.00
   0   0  15    1.05    1.81
   0   0  16   84.94    5.29
   0   0  17   -0.50    1.16
   0   1  -1   40.71    2.23
   0  -1  -1   35.51    2.22
   0  -1   2 1312.59   62.13
   0   1  -2 1369.97   62.30
   0  -1  -2 1430.38   62.37
   0   1  -3   15.14    2.38
   0  -1   3   18.76    1.96
   0  -1  -3   16.67    2.41
   0  -1  -4  211.86   12.10
   0   1  -4  227.48   12.10
   0  -1  -5   25.93    3.66
   0   1  -5   25.78    3.58
   0   1  -6  423.68   22.57
   0   1  -7   20.48    4.12
   0   1  -8   10.64    3.81
   0   1  -9    4.09    3.49
   0   1   9    5.35    1.52
   0  -1   9    4.59    1.41
   0  -1   9    3.21    3.16
   0   1  10  472.80   26.34
   0  -1 -10  420.30   21.04
   0   1 -10  449.11   26.79
   0  -1  10  459.99   26.23
   0  -1  10  440.51   20.95
   0   1 -10  390.08   20.98
   0   1  10  437.07   20.96
   0  -1  11   -3.52    4.14
   0   1  11   -2.12    3.96
   0   1 -11   -0.82    4.80
   0  -1 -11    1.20    1.69
   0  -1  11   -0.63    1.69
   0  -1 -11    4.07    4.02
   0   1 -11    2.14    1.75
   0   1  11    0.96    1.60
   0  -1  12   22.75    6.18
   0  -1 -12   30.87    6.95
   0  -1 -12   26.85    3.18
   0   1  12   32.74    6.53
   0   1  12   27.50    3.31
   0   1 -12   21.83    2.95
   0   1 -12   27.34    7.38
   0   1  13    7.73    3.99
   0  -1 -13   14.74    5.89
   0   1 -13    8.27    4.74
   0  -1  13   10.72    4.90
   0   1 -13    7.40    2.16
   0   1  14  117.74    7.24
   0  -1  14  111.62    7.09
   0   1  15   12.14    2.27
   0  -1  15   13.17    2.37
   0   1  16   22.96    2.46
   0  -1  16   17.27    2.24
   0   1  17    4.08    1.26
   0  -1  17    5.07    1.35
   0  -2   0  132.10    7.33
   0   2   1    8.98    1.01
   0  -2   1    7.63    2.02
   0   2  -1    6.91    0.94
   0  -2   1    6.53    0.95
   0  -2  -1    9.11    1.05
   0   2  -2  294.25   14.05
   0  -2  -2  284.48   14.06
   0   2  -3  144.43    7.52
   0  -2  -3  118.35    7.34
   0  -2   3  125.26    7.43
   0  -2  -4 1073.97   51.45
   0  -2  -4 1134.99   50.09
   0   2  -4 1066.39   51.41
   0  -2   4 1058.45   50.98
   0   2  -5   85.47    6.19
   0  -2  -5   89.68    6.35
   0  -2  -6   15.96    3.60
   0   2  -6   10.01    3.21
   0  -2  -7  110.47    8.84
   0   2  -7  102.38    8.53
   0   2  -8  360.62   20.97
   0  -2   8  342.86   20.49
   0  -2  -8  339.68   20.81
   0  -2   9   59.81    4.20
   0   2   9   56.54    7.20
   0  -2  -9   70.84    7.86
   0   2   9   62.11    4.23
   0   2  -9   60.14    7.68
   0  -2   9   55.20    7.18
   0   2  10   10.67    4.63
   0   2  10    8.58    2.03
   0   2 -10    5.64    4.10
   0  -2  10   11.84    4.28
   0  -2 -10    5.63    4.04
   0  -2 -10   10.92    2.14
   0  -2  10    8.02    2.10
   0  -2  10   10.74    2.13
   0   2 -11    8.89    5.06
   0  -2  11   11.81    4.63
   0   2  11   14.10    2.40
   0  -2 -11   14.17    2.34
   0  -2  11   11.34    2.29
   0   2  11   13.28    4.60
   0  -2 -11    6.46    4.42
   0  -2  12  225.28   17.67
   0  -2 -12  252.45   19.22
   0   2 -12  263.41   19.44
   0   2  12  216.78   17.65
   0   2 -12  245.03   13.11
   0   2  13   44.22    6.89
   0   2 -13   25.61    6.68
   0   2  13   36.66    3.57
   0  -2  13   45.28    7.31
   0  -2  13   39.74    3.54
   0  -2 -13   33.60    6.96
   0   2 -13   27.35    3.27
   0  -2  14    2.93    2.02
   0   2  14    3.61    2.02
   0  -2  15    5.53    1.86
   0   2  15    4.71    1.77
   0   2  16   18.69    2.19
   0  -2  16   19.01    2.10
   0   2  17    3.50    1.04
   0  -2 -17    4.15    1.15
   0  -2  17    3.04    1.04
   0  -3   0    1.23    1.77
   0  -3  -1  164.20    9.46
   0  -3   1  178.43    9.87
   0   3   2 1182.81   53.75
   0  -3   2 1217.41   53.75
   0   3  -2 1167.76   53.83
   0  -3  -3  519.67   27.43
   0   3   3  550.50   27.27
   0  -3   3  585.94   28.25
   0   3  -3  561.27   27.45
   0  -3   3  543.60   27.23
   0   3   4  261.88   14.58
   0  -3   4  309.19   15.37
   0   3  -4  280.49   14.84
   0  -3   4  279.85   14.67
   0  -3  -4  285.83   14.19
   0  -3  -4  269.20   14.82
   0  -3   5  500.09   24.90
   0   3  -5  543.52   25.32
   0  -3  -5  496.02   25.12
   0  -3  -5  467.00   23.32
   0  -3  -6  822.46   40.20
   0  -3   6  796.24   39.80
   0   3   6  800.46   39.84
   0   3  -6  814.80   40.07
   0   3  -7   93.73    8.67
   0   3   7  129.65    9.34
   0  -3  -7  115.03    9.14
   0  -3   7  118.39    9.05
   0   3  -8    0.51    3.07
   0  -3   8    3.22    2.83
   0   3   8    7.89    3.78
   0  -3   8    4.16    1.67
   0  -3  -8   12.74    3.92
   0  -3  -9   56.54    7.09
   0   3   9   44.06    3.49
   0   3  -9   41.11    6.34
   0  -3   9   43.75    3.79
   0  -3   9   43.42    3.52
   0   3   9   49.48    6.43
   0  -3   9   56.49    6.69
   0   3  10  305.82   19.63
   0  -3 -10  312.85   20.77
   0  -3  10  299.42   14.93
   0   3 -10  296.03   20.51
   0  -3  10  273.70   19.06
   0   3  10  278.54   14.73
   0  -3 -11    1.52    3.44
   0  -3  11   -1.32    3.57
   0  -3  11    1.91    1.89
   0   3  11   -3.34    3.30
   0   3 -11    0.76    3.58
   0  -3 -11   -1.02    1.45
   0  -3  12   48.54    7.62
   0   3 -12   51.16    8.06
   0   3  12   55.88    4.30
   0  -3 -12   58.82    8.41
   0  -3  12   57.44    4.36
   0   3  12   46.91    7.39
   0  -3  12   49.50    4.23
   0  -3  13    7.51    2.06
   0   3  13    6.15    2.03
   0   3 -13    7.14    2.09
   0  -3  14   16.10    2.27
   0   3 -14   11.56    2.13
   0   3  14   12.85    2.25
   0  -3  15   23.61    2.50
   0   3  15   28.91    2.65
   0  -3  16    1.41    1.08
   0   3  16    2.33    1.12
   0  -4   0  677.20   33.36
   0  -4   1  230.44   12.01
   0  -4  -1  280.55   14.11
   0  -4   1  253.90   14.09
   0  -4  -1  250.77   12.10
   0  -4  -2    9.83    2.49
   0  -4   2    7.89    1.45
   0  -4   2    6.58    2.82
   0  -4  -3  170.34    9.53
   0  -4  -3  148.05    8.14
   0  -4   4  170.71   10.09
   0  -4  -4  196.32   10.75
   0  -4  -4  218.08   11.03
   0  -4   4  204.07   11.95
   0   4   4  180.54   10.19
   0   4   5   63.40    4.95
   0  -4   5   58.81    4.75
   0  -4  -5   54.64    4.40
   0  -4  -5   50.39    4.93
   0   4  -6   15.83    3.25
   0  -4   6   13.82    2.80
   0  -4  -6   14.51    3.26
   0   4   6   13.86    2.89
   0   4   7    2.92    2.35
   0  -4  -7    2.16    2.66
   0  -4   7    1.78    1.83
   0   4  -7    0.83    2.33
   0  -4   7    0.75    1.72
   0  -4   7   -0.76    1.46
   0  -4   8  381.19   18.15
   0  -4   8  339.51   20.73
   0   4   8  330.88   20.69
   0  -4  -8  366.75   17.96
   0  -4  -8  382.61   21.96
   0   4  -8  333.17   21.26
   0  -4   8  372.10   18.28
   0   4   9   95.51    9.09
   0  -4   9  113.73    6.86
   0   4  -9   83.68    9.26
   0  -4  -9  106.94   10.02
   0  -4   9  109.89    9.39
   0  -4  -9  115.40    6.63
   0  -4  10    5.11    2.30
   0  -4  10    9.53    3.58
   0  -4 -10    5.68    3.88
   0  -4  10    4.52    1.76
   0  -4 -10    7.34    2.01
   0   4  11    0.68    1.63
   0  -4  11    2.40    3.15
   0  -4 -11    2.23    1.59
   0  -4  11   -0.34    2.04
   0  -4  11    1.20    1.57
   0  -4 -11    0.66    2.82
   0  -4  12   93.12    6.03
   0   4  12  103.00    6.20
   0  -4  12  108.25    6.63
   0  -4  13   17.50    2.52
   0  -4  13   20.27    2.33
   0   4  13   16.69    2.39
   0   4 -13   19.25    2.81
   0   4  14   23.02    2.34
   0   4 -14   21.52    2.46
   0  -4 -15    1.92    1.52
   0  -4 -16    1.94    1.08
   0  -5   0    0.34    2.28
   0  -5   1   17.09    3.73
   0  -5  -1   17.46    3.35
   0  -5   1   20.69    2.28
   0  -5  -1   20.34    2.32
   0  -5   2  770.56   35.99
   0  -5  -2  734.56   38.05
   0  -5   2  827.37   39.04
   0  -5  -3  414.11   20.32
   0  -5   3  358.60   18.07
   0  -5   4    2.55    1.37
   0  -5  -4    1.93    1.95
   0  -5   5    8.58    2.17
   0  -5  -5   13.44    2.64
   0  -5   5   10.13    1.89
   0  -5   6  152.51    8.41
   0  -5  -6  164.95    9.57
   0  -5   6  160.19    8.58
   0  -5  -6  151.34    8.22
   0  -5  -6  151.24    8.50
   0  -5  -6  164.99    8.59
   0  -5   6  149.35    8.99
   0  -5  -7  247.64   12.15
   0  -5  -7  222.75   12.02
   0  -5   7  229.86   12.47
   0  -5   7  226.64   12.03
   0  -5  -8   40.68    3.45
   0  -5  -8   40.96    3.59
   0  -5   8   40.10    3.98
   0  -5   8   33.30    3.31
   0  -5   9   25.61    3.17
   0  -5  -9   16.30    2.65
   0  -5  -9   23.04    2.66
   0  -5 -10  127.77    7.79
   0  -5 -10  129.96    7.60
   0  -5  10  123.22    7.52
   0  -5  10  134.18    8.09
   0  -5 -11   42.65    3.58
   0  -5  11   40.37    3.89
   0  -5  11   41.99    3.45
   0  -5 -11   43.73    3.93
   0  -5  12    1.40    1.92
   0  -5 -12   -0.22    2.41
   0  -5 -12    5.13    1.95
   0  -5 -13    1.61    2.16
   0  -5 -13    2.16    1.73
   0   5 -13    1.36    1.67
   0  -5  13    1.01    1.56
   0   5 -14   48.25    3.52
   0  -5 -14   58.08    3.90
   0  -5 -15   13.74    1.72
   0  -6   0  557.01   29.83
   0  -6  -1   67.36    6.68
   0  -6  -1   67.73    5.38
   0  -6   1   65.04    6.80
   0  -6   1   59.56    4.55
   0  -6  -2   49.82    5.66
   0  -6   2   51.69    4.00
   0  -6   2   62.16    6.81
   0  -6  -2   50.12    4.76
   0  -6   3   71.75    4.80
   0  -6   3   69.46    5.22
   0  -6  -3   59.58    6.14
   0  -6  -3   60.54    4.32
   0  -6  -4  214.83   11.45
   0  -6  -4  223.95   12.67
   0  -6   4  224.70   11.81
   0  -6   4  259.36   12.44
   0  -6   4  208.46   11.38
   0  -6  -5  196.58   10.39
   0  -6   5  185.24   11.01
   0  -6  -5  187.28   11.48
   0  -6   5  191.60   10.20
   0  -6   5  211.65   10.77
   0  -6   5  201.76   11.23
   0  -6   6   -0.16    1.92
   0  -6  -6    0.88    1.59
   0  -6   6   -0.13    1.41
   0  -6  -6    1.48    2.54
   0  -6   6   -1.19    2.33
   0  -6  -7   48.15    4.77
   0  -6  -7   38.72    3.51
   0  -6   7   41.48    3.70
   0  -6   7   43.04    4.18
   0  -6   7   31.44    3.34
   0  -6   8   79.15    5.41
   0  -6   8   76.51    5.83
   0  -6  -8   76.61    6.47
   0  -6  -8   73.68    5.28
   0  -6  -9    0.17    1.87
   0  -6  -9    2.55    3.05
   0  -6   9    2.74    1.81
   0  -6   9    0.97    2.39
   0  -6  10    1.09    2.41
   0  -6 -10    5.77    2.86
   0  -6 -10    2.13    1.92
   0  -6  10    0.44    1.63
   0  -6 -11    0.21    2.41
   0  -6  11    4.92    2.21
   0  -6 -11    0.61    1.75
   0  -6  12   35.89    3.35
   0  -6 -12   34.65    3.71
   0  -6 -12   40.07    3.32
   0  -6  13   47.73    3.47
   0   6 -13   44.94    3.51
   0  -6 -13   46.55    3.40
   0  -6 -14   12.19    1.57
   0  -7   0    0.51    1.34
   0  -7   0    1.07    2.38
   0  -7   1   55.65    4.01
   0  -7   2   63.52    4.86
   0  -7  -2   66.83    5.81
   0  -7   2   63.67    4.38
   0  -7  -3   73.64    6.17
   0  -7   3   62.12    4.51
   0  -7  -3   64.15    4.57
   0  -7   3   76.44    5.22
   0  -7  -4   78.71    5.49
   0  -7   4   97.14    6.12
   0  -7   4   85.48    6.55
   0  -7  -4   97.60    7.11
   0  -7   5    2.14    1.98
   0  -7   5   -2.20    2.78
   0  -7  -5   -0.15    1.66
   0  -7  -5    4.76    3.20
   0  -7  -6  126.02    8.78
   0  -7  -6  115.83    7.40
   0  -7   6  127.82    7.81
   0  -7   6  147.41    8.63
   0  -7  -7   21.62    2.76
   0  -7  -7   24.70    3.94
   0  -7   7   22.35    2.89
   0  -7   7   27.01    3.70
   0  -7   8    6.22    2.91
   0  -7   8    9.64    2.18
   0  -7  -8   10.09    2.11
   0  -7  -8   12.71    3.21
   0  -7   9   24.78    3.48
   0  -7  -9   22.81    3.73
   0  -7  -9   23.97    2.74
   0  -7   9   25.19    2.69
   0  -7 -10   53.10    4.04
   0  -7  10   56.21    4.60
   0  -7 -10   60.68    5.05
   0  -7 -11   23.15    2.99
   0  -7  11   20.39    2.70
   0  -7 -11   18.72    2.25
   0  -7  12    3.01    1.61
   0  -7 -12    3.51    1.29
   0  -7  13    2.80    1.12
   0   7 -13    1.61    0.90
   0  -8   0   67.37    5.76
   0  -8  -1  126.23    7.56
   0  -8  -1  152.13    9.11
   0  -8  -2   18.15    3.64
   0  -8   2   18.88    3.25
   0  -8  -2   12.81    2.12
   0  -8   3   25.14    3.80
   0  -8   4  217.08   12.24
   0  -8   4  202.30   12.07
   0  -8   5   35.39    3.62
   0  -8  -5   34.84    4.82
   0  -8   6    3.42    1.95
   0  -8   6    7.29    3.01
   0  -8  -6    5.60    3.14
   0  -8  -6    3.98    1.66
   0  -8  -7    2.84    2.87
   0  -8   7    1.17    2.42
   0  -8  -7   -0.88    1.42
   0  -8   7    2.20    1.80
   0  -8   8   81.74    5.70
   0  -8  -8   87.20    6.21
   0  -8  -8   66.91    4.67
   0  -8  -9  118.44    7.58
   0  -8   9  120.12    7.33
   0  -8 -10   15.94    2.59
   0  -8  10   19.26    2.53
   0  -8  11    9.52    1.85
   0  -8  12    4.93    1.23
   0  -9   0    2.43    2.71
   0  -9   0    0.37    2.20
   0  -9   1   59.98    5.12
   0  -9  -1   63.17    5.55
   0  -9   1   66.50    5.11
   0  -9   1   58.20    5.47
   0  -9   2   49.12    4.61
   0  -9   2   53.76    4.47
   0  -9  -2   41.49    4.68
   0  -9  -3   80.76    5.99
   0  -9   3   69.23    5.34
   0  -9   3   70.56    5.73
   0  -9   4   41.39    3.90
   0  -9   4   41.13    4.30
   0  -9  -4   43.73    4.43
   0  -9   5   58.18    4.75
   0  -9   5   50.03    4.30
   0  -9  -5   46.82    4.53
   0  -9  -6   35.65    3.73
   0  -9   7   44.82    4.27
   0  -9  -7   57.03    4.29
   0  -9  -8    1.19    1.60
   0  -9   8    1.16    1.85
   0  -9   9    1.37    1.54
   0  -9  10   26.47    2.28
   0 -10   0   72.42    4.97
   0 -10   0   69.96    4.68
   0 -10   0   69.47    5.29
   0 -10  -1   15.80    2.48
   0 -10   1   16.90    2.40
   0 -10  -1   16.93    2.89
   0 -10   1   19.64    2.67
   0 -10   1   15.54    2.83
   0 -10  -2   11.93    2.51
   0 -10  -2   10.08    2.15
   0 -10   2   11.45    2.15
   0 -10   2   10.77    2.22
   0 -10   3   21.58    2.66
   0 -10   3   19.68    2.61
   0 -10  -3   20.06    2.87
   0 -10   4    9.66    1.90
   0 -10   4   13.18    2.31
   0 -10  -4   12.57    2.32
   0 -10   5   35.37    3.02
   0 -10  -5   27.09    2.79
   0 -10   6    1.24    1.59
   0 -10  -6    1.87    1.42
   0 -10  -7    2.02    1.11
   0 -10   8   18.18    1.77
   0 -11   0    0.75    1.06
   0 -11   1   61.36    3.68
   0 -11  -1   59.23    3.66
   0 -11  -2   36.48    2.58
   0 -11  -3   36.19    2.45
   0 -11  -4    4.26    0.98
  -1   0  17   10.83    1.60
  -1   0  16    0.12    1.58
  -1   0  15    7.64    2.22
  -1   0  14    0.68    1.95
  -1   0  13   80.22    5.81
   1   0 -13   79.43   10.50
   1   0 -12   -1.78    4.49
   1   0 -11   55.07    8.27
   1   0 -10    0.68    3.36
   1   0  -9   60.25    7.96
  -1   0   9   74.76    4.77
   1   0  -8   -1.90    3.10
   1   0  -7 1459.15   69.97
   1   0  -6   -0.92    2.68
   1   0  -5   39.25    4.25
   1   0  -4    2.77    2.01
  -1   0   2   -1.74    1.52
  -1   0   1    5.33    1.00
  -1   0   0    0.13    0.49
  -1   0  -1    4.50    1.00
  -1   0  -2    0.34    1.54
  -1   0  -3    6.93    2.36
   1   0   3    6.34    0.73
  -1   0  -4    1.03    2.10
  -1   0  -5 1438.49   67.64
  -1   0  -6   -1.33    2.70
  -1   0  -7    0.41    3.32
  -1   0  -8    1.02    3.59
   1   0   9    1.83    1.35
  -1   0  -9    2.46    3.56
  -1   0 -10   -0.73    4.31
   1   0  10    1.41    1.52
  -1   0 -10    2.38    1.77
  -1   0 -11   32.23    6.88
  -1   0 -11   24.78    3.01
   1   0  11   25.32    2.93
  -1   0 -12    1.81    4.08
   1   0  12   -0.87    1.93
  -1   0 -12    0.39    1.95
  -1   0 -13    5.53    4.46
  -1   0 -13    4.03    2.10
   1   0  13    5.73    2.18
  -1   0 -14   -1.02    1.94
   1   0  15    7.46    2.26
   1   0  16    1.29    1.57
   1   0  17   17.09    1.89
  -1   1  17    9.24    1.54
  -1  -1  17    8.99    1.41
  -1   1  16    1.74    1.57
  -1  -1  16   -0.91    1.55
  -1   1  15    5.28    2.00
  -1  -1  15    6.25    2.09
  -1  -1  14    8.45    2.36
  -1   1  14   10.19    2.35
  -1   1  13   59.05    4.67
  -1  -1  13   64.37    4.77
  -1   1  13   50.65    8.06
  -1  -1  13   48.13    7.81
   1   1 -13   58.78    9.21
   1  -1 -13   59.89    9.57
   1   1 -12   60.17    9.24
   1  -1 -12   70.98    9.73
  -1  -1  12   61.81    8.59
  -1   1  12   75.96    9.20
   1  -1 -11   27.54    6.73
   1   1 -11   27.48    6.38
  -1   1  11   26.29    6.03
  -1  -1  11   20.71    5.46
  -1   1  10    7.42    4.09
  -1  -1  10    2.81    1.73
  -1  -1  10    3.09    3.24
  -1   1  10    4.42    1.75
  -1  -1  10    3.83    1.71
   1   1 -10    4.76    4.18
   1   1  -9  221.74   15.12
  -1  -1   9  191.35   14.08
  -1   1   9  189.96   14.06
  -1   1   9  193.67   10.31
  -1  -1   9  198.32   10.36
   1   1  -8    3.81    3.08
  -1   1   8    2.71    2.99
  -1  -1   8    2.26    3.16
  -1   1   7  652.56   33.18
  -1  -1   7  678.02   33.49
   1   1  -7  602.00   33.03
   1   1  -6    1.54    2.65
  -1  -1   6   -4.92    2.91
  -1   1   6    0.92    2.74
   1   1  -5  591.92   28.28
   1  -1  -5  540.75   28.03
   1  -1  -4   57.19    4.76
   1   1  -4   60.48    4.70
  -1   1   3   47.93    3.90
  -1  -1   2 1511.10   69.92
  -1   1   2 1568.69   69.92
  -1   1   2 1528.86   69.95
  -1  -1   2 1520.27   69.88
  -1  -1   1   57.36    3.23
  -1   1   1   49.92    3.19
  -1   1   1   51.95    3.16
  -1  -1   1   55.74    3.25
  -1   1   0   37.08    2.22
  -1  -1   0   38.50    2.24
  -1  -1  -1   12.92    1.58
  -1   1  -1   16.03    1.67
  -1   1  -2  456.42   22.08
  -1  -1  -2  465.90   22.12
  -1   1  -3 1797.07   82.02
  -1  -1  -3 1843.45   81.99
   1  -1   3 1749.51   81.10
   1  -1   4   11.37    1.57
  -1   1  -4    9.77    2.48
  -1  -1  -4   10.03    2.54
  -1   1  -5   30.70    4.10
  -1  -1  -5   29.20    4.04
  -1   1  -6    0.34    2.64
  -1   1  -7  960.37   47.88
  -1   1  -8  142.96   11.39
  -1   1  -9   50.08    7.12
   1  -1   9   55.86    3.86
   1   1   9   50.15    3.77
   1  -1  10   24.32    2.76
  -1   1 -10   21.72    2.84
   1   1  10   25.39    2.68
  -1  -1 -10   23.05    2.81
  -1   1 -10   24.18    6.00
   1  -1  11   71.51    5.02
   1  -1  11   49.89    7.88
  -1  -1 -11   71.97    9.60
  -1  -1 -11   70.24    5.20
   1   1  11   65.87    8.64
  -1   1 -11   60.42    5.07
  -1   1 -11   86.88   10.16
   1   1  11   75.22    5.08
   1  -1  12   55.84    4.60
  -1  -1 -12   61.42    9.23
   1   1  12   53.12    4.49
  -1   1 -12   60.49    4.87
   1   1  12   54.24    8.27
  -1   1 -12   67.52    9.25
   1  -1  12   55.39    8.25
  -1  -1 -12   50.07    4.53
   1  -1  13    3.13    3.70
  -1   1 -13    0.90    4.45
   1   1  13    1.25    2.02
  -1   1 -13    1.75    2.06
  -1  -1 -13    1.51    1.91
  -1  -1 -13   -1.80    4.55
   1  -1  13    1.23    1.91
   1   1  13    0.79    3.55
  -1   1 -14    0.86    1.74
   1  -1  15   41.67    3.54
   1   1  15   37.44    3.43
  -1   1 -15   34.86    3.13
   1  -1  16   -2.45    1.52
   1   1  16   -0.68    1.59
   1  -1  17    3.49    1.20
   1   1  17    4.32    1.23
   1  -2 -17    0.97    1.07
  -1  -2  16    2.48    1.44
  -1   2  16    1.94    1.36
  -1   2  15    8.91    2.09
  -1  -2  15   13.20    2.19
  -1   2  14    0.95    1.89
  -1  -2  14   -1.40    1.96
   1  -2 -13   21.95    6.25
  -1   2  13   21.91    5.82
   1   2 -13   17.45    5.55
  -1  -2  13   30.72    3.34
  -1  -2  13   18.75    5.37
  -1   2  13   29.78    3.24
  -1  -2  12  179.43   15.24
  -1  -2  12  183.45   10.21
  -1   2  12  185.63   15.12
   1   2 -12  174.26   16.01
   1  -2 -12  180.73   15.99
  -1   2  12  187.31   10.26
  -1  -2  11   14.40    2.50
  -1   2  11    9.57    4.24
   1  -2 -11   13.36    5.23
   1   2 -11   10.95    4.70
  -1  -2  11   14.23    4.77
   1  -2 -10   26.53    5.64
  -1  -2  10   14.49    2.55
  -1  -2  10   26.95    5.59
   1   2 -10   22.38    5.28
  -1   2  10   25.97    5.32
  -1  -2   9   10.75    4.20
   1  -2  -9   16.80    4.67
   1   2  -9   13.87    4.51
  -1   2   9    5.39    3.77
  -1  -2   9   14.20    2.37
  -1   2   9   13.82    2.14
  -1  -2   9   13.24    2.13
   1   2  -8   44.29    6.06
  -1   2   8   64.33    6.77
  -1  -2   8   66.79    6.89
   1  -2  -8   57.59    6.45
  -1   2   7   53.24    5.86
  -1  -2   7   38.15    5.21
   1   2  -7   57.65    5.90
   1  -2  -7   53.58    5.80
   1   2  -6  185.10   11.87
  -1   2   6  197.19   12.13
  -1  -2   6  183.97   11.92
   1  -2  -6  194.56   12.19
  -1   2   5   55.56    5.05
   1   2  -5   52.59    5.01
   1  -2  -5   54.66    5.04
  -1  -2   5   65.44    5.31
  -1   2   4    8.04    2.26
  -1  -2   4    5.27    2.04
   1   2  -4    7.52    1.88
   1  -2  -4   10.51    2.42
   1  -2  -3 1610.83   74.96
   1   2  -3 1668.19   74.94
  -1   2   3 1621.53   75.01
  -1   2   2  265.03   13.04
  -1  -2   2  264.52   13.05
  -1  -2   1   70.69    3.96
  -1   2   1   71.50    3.98
  -1  -2   1   81.10    4.90
  -1   2   0   56.39    3.12
  -1  -2   0   57.19    3.14
  -1   2  -1  341.25   16.89
  -1  -2  -1  393.25   17.42
  -1  -2  -1  357.69   16.95
  -1  -2  -2  104.94    6.07
  -1  -2  -2  100.43    5.69
  -1   2  -2  107.25    6.01
  -1   2  -3  874.75   39.65
  -1  -2  -3  794.86   39.45
   1  -2   3  845.58   39.33
  -1  -2  -4  445.12   21.70
  -1   2  -4  446.51   21.75
   1  -2   4  398.99   20.81
   1  -2   5  911.01   41.14
  -1  -2  -5  872.77   42.37
  -1   2  -5  813.80   42.13
  -1   2  -6    5.60    3.31
  -1  -2  -6    1.05    2.79
  -1   2  -7   48.68    5.86
  -1  -2  -7   51.65    6.21
  -1  -2  -8    2.64    3.01
  -1   2  -8    2.10    2.95
   1   2   9  495.81   23.74
   1  -2   9  449.78   23.95
  -1  -2  -9  557.20   29.66
  -1   2  -9  538.90   29.60
  -1  -2  -9  534.42   24.25
   1  -2   9  487.72   23.71
   1  -2  10   28.42    2.88
  -1  -2 -10   25.57    6.01
   1   2  10   22.40    5.67
   1   2  10   23.74    2.79
   1  -2  10   25.38    5.63
  -1  -2 -10   25.57    3.10
  -1   2 -10   35.66    6.67
  -1  -2 -11   11.25    5.15
   1   2  11   12.10    4.79
   1   2  11   10.90    2.26
  -1  -2 -11   12.06    2.58
  -1   2 -11    8.81    5.20
   1  -2  11   11.29    4.53
   1  -2  11   13.85    2.40
   1  -2  12    3.02    1.88
   1   2  12    1.03    1.89
  -1  -2 -12    4.25    4.28
   1   2  12   -2.28    3.97
  -1   2 -12   -2.53    4.65
  -1  -2 -12    0.20    1.87
  -1   2 -12    2.48    2.24
   1  -2  12    8.26    4.41
  -1  -2 -13   78.77   10.29
  -1   2 -13   92.20    6.24
  -1   2 -13   79.15   10.17
   1   2  13   79.26    9.74
   1  -2  13   83.48    9.59
   1  -2  14   36.15    3.35
  -1   2 -14   36.68    3.40
  -1  -2 -14   24.48    2.73
   1   2  14   32.86    3.37
  -1   2 -15    2.02    1.52
   1  -2  15    2.32    1.73
   1   2  15    2.24    1.73
   1   2  16    0.60    1.35
   1  -2  16   -0.58    1.44
   1   2  17   10.40    1.26
   1  -2  17    8.06    1.23
   1  -3 -17    6.15    1.09
  -1   3  16    8.09    1.40
  -1  -3  16    7.99    1.37
  -1  -3  15   75.58    4.81
  -1   3  15   78.21    4.92
  -1  -3  14    5.66    1.73
  -1   3  14    3.33    1.80
  -1  -3  13   24.34    2.90
  -1   3  13   31.20    3.15
   1   3 -12    0.79    4.16
  -1  -3  12    4.35    1.99
  -1   3  12    2.82    3.26
   1  -3 -12   -0.81    4.38
  -1   3  12    4.75    2.00
  -1  -3  12    0.70    3.07
   1   3 -12    0.36    1.88
  -1  -3  12    1.54    2.04
   1  -3 -11   29.05    6.43
  -1  -3  11   31.32    6.20
   1   3 -11   25.09    6.45
  -1  -3  11   29.94    3.61
  -1   3  11   37.56    6.73
  -1  -3  11   40.09    3.53
  -1   3  11   48.29    3.72
  -1  -3  10   90.92    5.87
   1   3 -10   90.15    9.66
   1  -3 -10   84.36    9.66
  -1   3  10   76.68    8.76
  -1  -3  10   84.25    9.17
  -1  -3   9  133.09   10.88
   1   3  -9  142.40   11.64
   1  -3  -9  131.40   11.35
  -1   3   9  148.61   11.35
  -1  -3   9  132.56    7.88
  -1  -3   8    2.25    2.61
  -1   3   8    2.73    2.60
   1   3  -8    8.29    3.34
  -1  -3   8    2.79    1.75
   1  -3  -8    3.44    2.81
  -1  -3   7   17.45    3.81
   1  -3  -7   23.57    4.31
  -1   3   7   27.10    4.32
   1   3  -7   19.66    3.74
  -1  -3   6   18.27    3.24
   1   3  -6   17.85    3.31
   1  -3  -6   21.46    3.53
  -1   3   6   19.74    3.41
   1   3  -5  905.98   42.15
   1  -3  -5  916.91   42.32
  -1   3   5  846.09   41.86
  -1  -3   5  824.79   41.75
   1  -3  -4   73.97    5.55
  -1  -3   4   78.34    5.48
   1   3  -4   84.65    5.64
  -1   3   4   73.03    5.42
   1  -3  -3   38.34    3.35
   1   3  -3   43.96    3.37
  -1   3   3   45.08    3.44
  -1  -3   3   42.66    3.42
   1  -3  -2  107.23    5.86
   1   3  -2  100.76    5.73
  -1  -3   1  511.35   22.48
   1  -3  -1  437.23   20.54
  -1  -3   0    9.80    2.08
  -1  -3  -1    6.75    0.76
  -1   3  -1    4.18    0.58
  -1  -3  -2  181.40    9.61
  -1  -3  -2  184.43   10.13
  -1   3  -2  197.75    9.64
  -1  -3  -3   85.17    5.76
  -1   3  -3   99.78    6.12
  -1  -3  -3   98.59    6.16
   1  -3   4   89.05    6.72
  -1   3  -4   91.01    6.63
  -1  -3  -4  110.50    7.06
   1  -3   5  167.41   10.27
  -1   3  -5  192.23   11.13
  -1  -3  -5  158.80   10.72
  -1   3  -6    0.37    2.39
  -1  -3  -6   -1.49    2.91
  -1   3  -7   81.13    7.53
  -1  -3  -7   73.66    7.52
  -1   3  -8   12.14    4.23
   1  -3   8   19.21    2.39
  -1  -3  -8   17.19    4.34
   1  -3   9   61.55    4.68
   1  -3   9   69.91    7.68
  -1  -3  -9   69.25    8.07
   1   3   9   68.61    7.73
   1  -3   9   68.07    4.42
   1  -3   9   55.73    4.45
   1   3   9   61.02    4.26
  -1   3  -9   63.40    7.87
   1   3  10    1.00    1.56
   1   3  10   -1.26    3.87
  -1   3 -10    3.42    3.52
   1  -3  10    0.62    3.20
   1  -3  10    0.84    1.48
   1  -3  10    0.72    1.79
  -1  -3 -10   -1.39    3.57
  -1  -3 -11   37.47    6.69
   1  -3  11   33.46    3.33
   1   3  11   36.06    3.43
  -1   3 -11   32.64    6.54
   1  -3  11   41.93    6.62
   1   3  11   33.07    6.14
   1  -3  12   20.70    5.18
   1   3  12   20.47    5.15
  -1   3 -12   13.79    5.47
  -1  -3 -12   17.47    2.54
  -1  -3 -12   20.07    5.51
   1  -3  13   33.03    3.14
  -1  -3 -13   29.44    2.94
   1   3  13   30.26    3.13
  -1   3 -13   22.17    3.13
   1  -3  14    5.92    1.78
  -1   3 -14    7.06    2.02
   1   3  14    5.97    1.88
   1   3  15   54.50    3.64
  -1   3 -15   42.47    3.39
   1  -3  15   50.14    3.57
  -1  -3 -16    3.01    1.39
   1   3  16    0.72    1.12
   1  -3  16    0.41    1.02
  -1  -3 -17    0.76    0.76
   1  -4 -15   64.13    4.67
  -1   4  14    2.56    1.39
  -1  -4  13    3.04    2.05
  -1   4  13    4.39    1.67
  -1  -4  13    4.22    1.70
  -1  -4  12    2.93    1.62
  -1  -4  12   -0.52    2.25
  -1   4  12    1.51    1.71
  -1   4  11  151.11    8.47
   1  -4 -11  141.99   12.79
  -1  -4  11  149.86    8.40
  -1  -4  11  155.96    8.95
  -1  -4  10    0.38    1.55
  -1  -4  10    2.86    2.33
   1  -4 -10    6.54    3.43
  -1  -4  10    1.13    3.12
   1  -4  -9   21.46    4.68
  -1  -4   9   19.21    2.98
   1   4  -9    9.18    4.14
  -1  -4   9   26.78    4.72
  -1   4   9   13.79    4.08
  -1  -4   9   20.37    2.21
  -1  -4   8   86.14    7.73
  -1   4   8   73.00    7.41
   1   4  -8   73.03    7.71
  -1  -4   8   90.98    5.77
   1  -4  -8   79.86    7.97
   1   4  -7  529.83   30.04
   1  -4  -7  616.07   30.55
  -1  -4   7  598.16   27.54
  -1  -4   7  542.84   29.54
  -1   4   7  544.70   29.63
  -1   4   6   20.78    3.36
   1  -4  -6   26.68    3.76
   1   4  -6   18.90    3.21
  -1  -4   6   24.64    3.43
   1   4  -5    2.01    1.74
   1  -4  -5    0.78    1.94
   1  -4  -5    1.27    1.57
  -1   4   5    0.92    1.72
  -1  -4   5   -0.23    1.65
   1  -4  -4  116.88    7.62
   1  -4  -4  115.30    7.23
  -1  -4   4  112.97    6.16
   1  -4  -3  487.38   23.53
  -1  -4   3  494.68   23.07
  -1  -4   2   15.73    3.19
   1  -4  -2   13.30    1.80
  -1  -4   2    9.50    1.62
  -1  -4   1    1.28    2.30
   1  -4  -1    1.47    1.30
  -1  -4   1    0.33    1.19
  -1  -4   0  331.83   16.38
  -1  -4   0  287.20   14.38
   1  -4   0  293.31   14.42
   1  -4   0  332.38   16.83
   1  -4   1  582.14   28.64
  -1  -4  -1  551.97   27.98
  -1  -4  -2    8.53    2.23
  -1  -4  -3    4.14    2.03
   1  -4   3    8.04    1.36
  -1  -4  -3    6.29    1.43
   1  -4   4   65.92    5.79
   1  -4   4   54.88    4.23
  -1  -4  -4   64.29    4.75
   1   4   4   50.25    4.22
  -1  -4  -5 1164.39   50.64
   1  -4   5 1043.66   50.87
  -1   4  -5 1034.40   50.20
   1  -4   5 1021.39   49.78
   1   4   5 1013.22   49.86
  -1   4  -6  124.75    9.05
   1  -4   6  117.63    8.60
   1   4   6  126.17    8.81
  -1  -4  -6  135.72    9.36
  -1   4  -7   45.34    5.32
   1  -4   7   37.25    4.77
   1  -4   7   44.13    3.66
   1   4   7   38.05    4.95
   1  -4   7   42.43    3.41
  -1  -4  -7   44.45    3.37
  -1  -4  -7   41.61    5.31
   1   4   8   26.12    4.50
   1  -4   8   26.72    2.99
  -1  -4  -8   24.00    4.48
  -1  -4  -8   26.03    2.83
   1  -4   8   30.53    4.67
   1  -4   8   26.46    2.92
  -1   4  -8   35.58    5.01
  -1  -4  -9  257.39   12.97
   1  -4   9  248.06   12.98
  -1  -4  -9  271.41   17.33
   1  -4   9  241.27   16.30
   1  -4   9  237.85   12.98
  -1   4  -9  217.07   16.28
   1   4   9  249.53   16.54
   1  -4  10   24.72    5.29
  -1  -4 -10   36.93    6.18
   1  -4  10   28.27    3.16
  -1  -4 -10   34.87    3.33
  -1  -4 -11    4.43    1.84
   1  -4  11   -2.38    3.55
   1  -4  11    0.63    1.86
  -1  -4 -11   -1.33    3.41
   1  -4  12    4.21    1.83
   1  -4  12    3.27    1.60
   1   4  12    5.53    1.81
  -1  -4 -12    3.39    1.77
   1  -4  13   27.82    2.59
  -1   4 -13   29.49    3.41
   1   4  13   27.52    2.68
  -1  -4 -13   24.81    2.68
  -1   4 -14   33.97    3.20
   1   4  14   34.67    2.82
  -1   4 -15    0.09    1.12
  -1  -4 -15   -0.84    1.38
  -1  -4 -16    0.40    1.02
   1  -5 -15   11.56    1.68
   1  -5 -14    2.77    1.59
   1  -5 -14    0.59    1.94
   1  -5 -13   23.82    2.90
  -1  -5  13   23.33    2.76
   1  -5 -13   22.69    3.49
   1  -5 -12    1.66    2.70
  -1  -5  12   -0.66    2.16
   1  -5 -12   -0.17    1.99
   1  -5 -11   20.39    2.94
  -1  -5  11   13.82    2.97
   1  -5 -10   74.83    5.48
  -1  -5  10   75.68    5.70
  -1  -5   9  108.72    6.67
  -1  -5   9  121.92    7.43
   1  -5  -9  111.66    7.15
  -1  -5   8    0.37    2.16
   1  -5  -8   -0.96    1.43
  -1  -5   8    0.14    1.51
   1  -5  -8   -0.49    1.78
   1  -5  -7    7.51    2.05
  -1  -5   7    8.69    1.87
   1  -5  -7    5.53    1.67
  -1  -5   7    9.12    1.83
  -1  -5   7    9.06    2.43
   1  -5  -6  146.98    8.24
  -1  -5   6  147.79    8.12
  -1  -5   6  136.93    8.56
  -1  -5   6  143.78    8.26
   1  -5  -6  158.32    8.12
  -1  -5   5  119.40    6.86
  -1  -5   5  100.78    6.17
   1  -5  -5  105.91    6.25
   1  -5  -5   98.69    7.46
  -1  -5   5  104.38    6.29
   1  -5  -5  111.51    7.25
   1  -5  -4    6.33    2.25
  -1  -5   4    4.76    1.45
  -1  -5   3    8.63    1.63
   1  -5  -3   13.24    2.84
  -1  -5   2   72.49    4.72
   1  -5  -2   85.59    6.86
   1  -5  -1  250.88   12.68
  -1  -5   1  241.57   12.56
   1  -5   0  394.22   19.50
  -1  -5   0  438.89   22.14
   1  -5   0  434.76   22.39
  -1  -5   0  398.61   19.49
   1  -5   1    3.28    2.68
  -1  -5  -1    5.03    2.42
   1  -5   2   56.14    5.90
   1  -5   3  312.88   15.44
   1  -5   4  170.35   12.14
   1  -5   4  187.38    9.75
   1  -5   5   22.09    2.55
   1  -5   5   25.17    4.51
   1  -5   5   23.93    2.84
  -1  -5  -5   21.09    2.39
  -1  -5  -6   52.67    4.00
   1  -5   6   58.06    3.94
  -1  -5  -6   55.30    3.81
  -1  -5  -6   55.40    3.90
  -1  -5  -6   56.19    4.95
   1  -5   6   50.55    4.17
   1  -5   7  610.20   28.58
  -1  -5  -7  561.95   28.00
  -1  -5  -7  597.07   29.06
   1  -5   7  580.37   28.26
  -1  -5  -7  599.20   27.87
  -1  -5  -7  587.20   28.25
   1  -5   7  594.90   28.19
  -1  -5  -8   89.46    6.35
  -1  -5  -8   86.30    5.48
   1  -5   8   77.30    5.39
   1  -5   8   72.37    5.68
  -1  -5  -9   67.68    4.99
   1  -5   9   72.25    5.23
   1  -5   9   73.16    5.41
  -1  -5  -9   68.62    5.80
  -1  -5 -10    1.63    2.59
  -1  -5 -10    2.03    1.88
   1  -5  10    0.17    2.24
  -1  -5 -11   91.19    5.74
  -1  -5 -11   84.70    6.50
   1  -5  11   82.16    5.72
  -1  -5 -11   80.79    5.73
  -1  -5 -12   15.21    2.50
  -1  -5 -12   19.82    3.05
   1  -5  12   15.35    2.42
   1  -5  12   14.11    2.13
  -1  -5 -12   15.30    2.25
  -1   5 -13    2.63    1.91
  -1  -5 -13    1.34    1.60
  -1   5 -14    7.29    1.75
  -1  -5 -14    7.55    1.69
  -1  -5 -15   35.70    2.50
   1  -6 -14    6.43    1.42
  -1  -6  13    2.03    1.66
   1  -6 -13    2.07    1.51
   1  -6 -13    1.62    1.94
  -1  -6  12   37.71    3.62
   1  -6 -12   40.87    3.53
   1  -6 -12   43.54    4.24
   1  -6 -11   30.94    4.18
   1  -6 -11   35.91    3.39
  -1  -6  11   34.85    3.68
   1  -6 -10   83.38    5.76
   1  -6 -10   86.10    6.93
  -1  -6  10   81.95    5.98
  -1  -6   9    5.90    2.84
   1  -6  -9   10.04    3.54
  -1  -6   9    9.12    1.86
   1  -6  -9   10.14    2.40
  -1  -6   8   35.35    3.24
  -1  -6   8   38.12    4.13
   1  -6  -8   35.30    4.86
   1  -6  -8   28.27    3.26
   1  -6  -7  160.00    9.96
   1  -6  -7  151.06    8.67
  -1  -6   7  137.74    9.09
  -1  -6   7  150.20    8.52
  -1  -6   6   55.55    4.37
   1  -6  -6   54.03    4.21
  -1  -6   6   46.24    4.61
  -1  -6   6   51.16    4.11
  -1  -6   5    6.92    2.11
   1  -6  -5    4.64    1.75
   1  -6  -5    4.64    2.89
  -1  -6   5    5.46    1.90
   1  -6  -4   23.03    2.57
   1  -6  -4   14.16    3.38
  -1  -6   4   24.02    2.82
  -1  -6   4   21.70    3.17
  -1  -6   4   21.80    2.67
   1  -6  -4   23.13    3.59
   1  -6  -3  237.21   13.77
  -1  -6   3  206.24   11.24
  -1  -6   3  202.27   10.71
   1  -6  -3  180.48   10.44
   1  -6  -3  223.40   11.90
   1  -6  -2  118.23    9.11
   1  -6  -2   93.25    6.06
  -1  -6   2  114.75    6.94
  -1  -6   2  111.02    6.41
   1  -6  -1   29.10    2.96
  -1  -6   1   30.24    3.26
  -1  -6   1   26.22    2.81
   1  -6  -1   23.13    4.38
   1  -6   0   32.09    5.14
  -1  -6   0   39.27    3.70
   1  -6   0   33.22    3.89
   1  -6   0   36.34    3.36
   1  -6   1  356.63   20.82
  -1  -6  -1  379.26   18.29
   1  -6   1  327.63   17.77
   1  -6   2  123.58    7.69
   1  -6   2  122.53    7.09
  -1  -6  -2  133.69    8.11
   1  -6   2  124.92   10.25
   1  -6   3    1.62    2.01
   1  -6   3    2.91    1.72
  -1  -6  -3    2.93    2.52
   1  -6   3    0.89    1.54
   1  -6   4   34.18    3.50
   1  -6   4   35.71    3.03
  -1  -6  -4   36.26    3.01
  -1  -6  -4   42.30    4.20
  -1  -6  -4   38.56    3.19
   1  -6   4   33.18    5.70
   1  -6   4   38.54    3.90
   1  -6   4   42.51    3.62
   1  -6   4   36.19    3.19
   1  -6   5  304.99   16.23
  -1  -6  -5  281.90   15.40
   1  -6   5  324.81   16.08
   1  -6   5  320.60   16.01
  -1  -6  -5  308.39   16.57
   1  -6   5  316.25   15.57
  -1  -6  -5  337.74   15.76
   1  -6   6   19.31    2.88
   1  -6   6   17.86    3.24
   1  -6   6   18.35    2.82
  -1  -6  -6   24.63    3.69
  -1  -6  -6   23.51    2.50
   1  -6   6   24.58    2.58
   1  -6   7   21.75    2.62
  -1  -6  -7   17.75    2.61
   1  -6   7   16.85    2.80
  -1  -6  -7   17.79    2.46
  -1  -6  -7   21.71    3.55
   1  -6   7   14.51    3.20
   1  -6   7   21.78    3.08
   1  -6   8   18.97    2.62
  -1  -6  -8   19.20    3.51
  -1  -6  -8   16.99    2.74
   1  -6   8   22.81    3.32
  -1  -6  -8   16.34    2.47
   1  -6   8   19.74    2.87
  -1  -6  -9   44.72    3.85
  -1  -6  -9   47.15    4.81
   1  -6   9   46.95    4.08
   1  -6   9   51.89    4.63
   1  -6  10  127.87    7.59
  -1  -6 -10  137.00    8.39
   1  -6  10  120.17    7.71
  -1  -6 -10  117.70    7.31
   1  -6  11    3.55    1.92
  -1  -6 -11    4.89    2.45
  -1  -6 -11    3.79    1.78
   1  -6  11    2.09    1.60
  -1  -6 -12    2.30    1.49
   1  -6  12    1.64    1.58
  -1   6 -13   35.51    3.00
  -1  -6 -13   30.98    2.55
  -1   6 -14    7.68    1.33
   1  -7 -13   18.50    1.74
   1  -7 -12    0.20    1.34
  -1  -7  12    1.26    1.68
   1  -7 -12    1.38    1.96
   1  -7 -11    0.18    2.22
   1  -7 -11    1.98    1.57
  -1  -7  11   -0.14    1.99
  -1  -7  10   89.37    6.34
   1  -7 -10   91.31    5.91
   1  -7 -10  101.93    6.93
   1  -7  -9   46.58    4.77
  -1  -7   9   47.57    4.32
   1  -7  -8   15.54    2.52
   1  -7  -8   20.49    3.84
  -1  -7   8   21.36    2.51
  -1  -7   8   14.23    3.18
  -1  -7   7    7.94    2.85
   1  -7  -7    9.41    2.25
   1  -7  -7    4.89    3.22
  -1  -7   7   10.01    2.10
  -1  -7   6  111.45    7.30
   1  -7  -6  117.14    7.09
   1  -7  -6  120.78    8.52
  -1  -7   6  112.96    7.02
   1  -7  -5  190.46   11.52
   1  -7  -5  187.41   10.21
  -1  -7   5  174.33   10.24
  -1  -7   5  195.68   10.56
   1  -7  -4    8.55    2.15
   1  -7  -4   15.82    3.57
  -1  -7   4    9.98    2.47
  -1  -7   4    9.48    2.43
  -1  -7   4   11.26    3.04
  -1  -7   3   28.91    3.76
   1  -7  -3   22.11    2.65
  -1  -7   3   22.16    2.86
   1  -7  -3   22.90    4.36
   1  -7  -3   32.10    4.41
  -1  -7   3   25.43    3.11
  -1  -7   2   91.78    6.42
   1  -7  -2   70.88    7.71
  -1  -7   1  137.42    8.54
   1  -7  -1  128.40   10.83
   1  -7   0   29.32    5.17
  -1  -7   0   31.30    3.78
   1  -7   0   24.99    2.80
  -1  -7  -1    1.05    2.37
   1  -7   1   -0.56    1.64
   1  -7   1    0.86    2.46
   1  -7   1    1.69    2.96
   1  -7   2  263.58   14.25
   1  -7   2  258.91   13.40
   1  -7   3  206.75   11.16
  -1  -7  -3  212.54   12.50
   1  -7   3  206.80   11.55
   1  -7   3  205.26   11.95
   1  -7   3  219.25   11.72
  -1  -7  -4  113.03    8.01
   1  -7   4  110.68    7.22
   1  -7   4  114.12    7.27
   1  -7   4  121.40    7.64
  -1  -7  -4  102.31    6.41
  -1  -7  -5   51.49    3.80
   1  -7   5   50.05    4.89
  -1  -7  -5   48.02    5.04
   1  -7   5   44.66    4.76
   1  -7   5   51.03    4.42
   1  -7   5   47.29    3.71
   1  -7   5   49.00    4.27
   1  -7   6  121.08    7.75
   1  -7   6  122.14    7.17
   1  -7   6  123.34    7.66
  -1  -7  -6  131.38    8.66
  -1  -7  -6  114.93    7.08
   1  -7   6  134.35    8.33
  -1  -7  -7   14.90    3.40
   1  -7   7   18.14    3.26
   1  -7   7   17.72    2.75
   1  -7   7   20.23    2.49
  -1  -7  -7   13.03    2.23
  -1  -7  -8   50.17    4.95
  -1  -7  -8   46.42    3.81
   1  -7   8   54.07    4.73
   1  -7   8   51.12    4.29
  -1  -7  -9   -0.63    2.43
   1  -7   9    1.12    1.72
  -1  -7  -9    0.52    1.51
   1  -7   9    3.25    2.19
  -1  -7 -10    0.23    1.32
  -1  -7 -10   -0.36    2.09
   1  -7  10    1.57    2.02
   1  -7  10    0.27    1.44
   1  -7  11   36.79    3.29
   1  -7  12    9.03    1.73
  -1   7 -13    0.79    0.97
  -1  -8  12    8.77    1.46
  -1  -8  11   11.30    1.96
   1  -8 -11    7.72    2.01
   1  -8 -10    2.43    1.35
   1  -8 -10    6.52    2.23
  -1  -8  10    0.92    1.95
   1  -8  -9    6.45    2.68
  -1  -8   9    4.37    2.36
   1  -8  -9    6.84    1.69
   1  -8  -8  123.51    7.13
   1  -8  -8  122.72    8.37
  -1  -8   8  126.64    7.90
   1  -8  -7    2.73    2.92
   1  -8  -7    1.26    1.56
  -1  -8   6   51.22    4.27
   1  -8  -6   43.15    5.17
   1  -8  -6   48.38    3.90
  -1  -8   5   15.30    2.81
   1  -8  -5   14.02    3.85
  -1  -8   5   14.07    3.06
   1  -8  -5   10.17    2.16
   1  -8  -4   46.20    5.25
  -1  -8   4   42.14    4.12
  -1  -8   4   43.38    4.56
  -1  -8   3   95.67    6.78
  -1  -8   3   83.49    6.29
  -1  -8   3  102.11    7.11
  -1  -8   2   14.14    3.02
   1  -8  -2    8.16    1.98
  -1  -8   2    5.23    2.84
  -1  -8   2    5.68    2.42
   1  -8  -1    3.13    1.75
  -1  -8   1    0.23    2.73
  -1  -8   0   48.46    4.95
   1  -8   0   48.18    3.90
  -1  -8  -1   56.43    5.13
   1  -8   1   53.39    5.21
   1  -8   1   44.61    3.85
   1  -8   2   10.88    3.09
  -1  -8  -2   14.46    3.19
   1  -8   2   12.19    2.79
   1  -8   2    8.57    2.08
   1  -8   3   92.01    6.51
   1  -8   3   98.54    6.94
   1  -8   3   90.44    6.35
  -1  -8  -3   86.97    6.78
   1  -8   4   -2.09    2.43
   1  -8   4    2.93    2.94
   1  -8   4    1.93    2.11
   1  -8   5    3.55    2.52
   1  -8   5    4.41    2.92
   1  -8   5    4.53    2.29
   1  -8   6  198.03   10.81
   1  -8   6  180.02   10.58
   1  -8   6  198.34   11.30
  -1  -8  -7   21.52    3.53
   1  -8   7   21.85    2.84
   1  -8   7   23.07    3.50
   1  -8   8   38.09    3.88
   1  -8   8   32.12    3.26
  -1  -8  -8   37.59    3.97
   1  -8   9    6.79    1.70
   1  -8   9    4.02    2.12
   1  -8  10   31.13    2.99
   1  -8  11    1.90    1.44
  -1   8 -12    2.18    1.01
  -1  -9  10   12.43    1.71
   1  -9 -10    3.15    1.13
   1  -9  -9    3.30    1.59
  -1  -9   9   12.12    1.99
   1  -9  -8   20.44    2.77
  -1  -9   8   29.14    3.00
   1  -9  -7   -0.95    1.94
  -1  -9   6   32.95    3.59
   1  -9  -6   32.69    3.72
  -1  -9   5   17.31    2.86
  -1  -9   5   12.24    2.47
   1  -9  -5   18.38    3.11
   1  -9  -4  119.31    7.88
  -1  -9   4  119.98    7.55
  -1  -9   4  113.78    7.23
   1  -9  -3   23.29    3.73
  -1  -9   3   17.73    2.96
  -1  -9   3   17.59    3.24
   1  -9  -3   17.04    2.14
  -1  -9   3   20.48    2.92
   1  -9  -2   35.75    4.42
  -1  -9   2   35.48    3.99
  -1  -9   2   43.97    4.05
  -1  -9   2   39.93    4.45
   1  -9  -2   40.52    3.25
   1  -9  -1   37.77    3.27
  -1  -9   1   39.04    3.98
  -1  -9   1   48.75    4.57
  -1  -9   1   49.84    4.22
   1  -9   0   42.92    3.37
  -1  -9   0   44.89    4.03
  -1  -9   0   45.40    4.69
  -1  -9  -1   16.67    3.18
  -1  -9  -1   15.87    2.51
   1  -9   2   13.76    3.27
   1  -9   2   13.72    3.15
  -1  -9  -2   11.78    3.09
  -1  -9  -3   22.50    3.27
   1  -9   3   19.65    3.52
   1  -9   3   16.37    3.31
  -1  -9  -4   71.01    5.44
   1  -9   4   63.19    5.48
  -1  -9  -5   12.11    2.68
  -1  -9  -6    8.58    2.25
   1  -9   6   10.38    2.67
  -1  -9  -7   28.36    3.15
   1  -9   7   44.09    3.74
   1  -9   8   87.81    5.56
   1  -9   9   13.81    2.08
   1  -9  10    3.79    1.29
   1 -10  -7   12.61    1.85
  -1 -10   7   24.46    2.20
   1 -10  -6    0.73    1.52
  -1 -10   6    0.10    1.46
   1 -10  -5    3.24    1.81
  -1 -10   5    2.64    1.66
  -1 -10   4   80.38    5.06
   1 -10  -4   76.02    5.29
   1 -10  -3   11.17    2.52
  -1 -10   3    4.89    1.86
  -1 -10   3    8.53    1.93
  -1 -10   2    0.26    1.69
   1 -10  -2    3.72    2.30
  -1 -10   2    0.12    1.65
  -1 -10   1    5.43    1.73
  -1 -10   1    5.48    1.86
   1 -10  -1    8.50    1.98
  -1 -10   0   21.94    2.65
  -1 -10   0   18.26    2.86
   1 -10   0   16.82    2.55
  -1 -10  -1    1.35    1.78
   1 -10   1    4.27    1.99
  -1 -10  -1    3.37    2.07
  -1 -10  -2   39.72    3.46
   1 -10   2   39.80    3.64
   1 -10   2   40.90    4.01
  -1 -10  -2   38.17    3.63
  -1 -10  -3   17.38    2.58
   1 -10   3   26.41    3.00
  -1 -10  -4   46.45    3.57
   1 -10   4   44.65    3.71
   1 -10   5   22.02    2.65
  -1 -10  -5   17.60    2.26
   1 -10   7    3.66    1.41
   1 -10   8   14.73    1.60
   1 -11  -3    0.34    1.02
  -1 -11   1    0.51    0.92
  -1 -11   0    4.21    1.19
  -1 -11  -1   -0.26    1.04
   1 -11   2    7.12    1.17
  -1 -11  -2   10.91    1.32
  -1 -11  -3    0.31    0.78
   1 -11   3   -0.21    0.83
  -2   0  17    0.08    1.18
  -2   0  16    0.70    1.55
  -2   0  15    1.19    2.02
  -2   0  14   82.51    5.80
  -2   0  13    0.35    2.11
   2   0 -13   -1.84    4.15
  -2   0  12   24.58    3.18
   2   0 -12   36.29    7.49
  -2   0  11    1.57    1.76
   2   0 -11   -2.34    4.24
   2   0 -10  216.62   16.24
   2   0  -9   -0.58    3.40
   2   0  -8   12.38    4.33
   2   0  -7   -2.33    2.82
   2   0  -6  232.34   13.98
  -2   0   4  213.35   11.97
  -2   0   3    0.49    2.02
  -2   0   2 3057.68  138.72
  -2   0   1   -0.89    1.54
  -2   0   0    0.36    1.29
  -2   0  -1   -1.64    1.79
  -2   0  -2  139.73    8.12
  -2   0  -3    0.19    2.17
  -2   0  -4   63.35    5.49
  -2   0  -5    2.76    2.73
  -2   0  -6  447.65   24.44
  -2   0  -7   -2.28    3.53
  -2   0  -8   13.29    4.78
   2   0   9    0.13    1.35
  -2   0  -9   -1.30    1.77
  -2   0  -9   -0.65    3.22
   2   0  10  148.88    8.48
  -2   0 -10  147.85    8.88
  -2   0 -10  171.75   14.17
  -2   0 -11   -0.40    1.89
   2   0  11   -0.65    1.75
  -2   0 -11    1.66    4.57
   2   0  12  123.95    7.45
  -2   0 -12  116.42    7.77
  -2   0 -12   97.05   12.13
   2   0  13   -1.78    1.99
  -2   0 -13   -0.82    2.24
  -2   0 -13    0.91    4.00
  -2   0 -14  239.67   12.97
  -2   0 -15    2.20    1.71
   2   0  16   13.18    2.05
   2   0  17   -0.68    1.12
   2  -1 -17    1.86    1.06
  -2   1  16   25.14    2.60
  -2  -1  16   23.14    2.53
  -2  -1  15    0.29    1.86
  -2   1  15    2.03    1.86
  -2   1  14   -2.33    2.01
  -2  -1  14    2.31    2.13
   2   1 -13    0.91    4.29
  -2  -1  13    1.56    2.15
  -2   1  13   -1.75    2.14
  -2   1  13    0.78    3.52
  -2  -1  13   -0.78    3.85
   2  -1 -13    1.82    4.11
  -2  -1  12   94.30    6.18
   2   1 -12   94.32   11.11
   2  -1 -12   89.43   10.65
  -2  -1  12   88.81   10.07
  -2   1  12   86.84    6.01
  -2   1  12   92.77   10.23
  -2   1  11   83.77    5.59
  -2  -1  11   84.77    5.67
   2  -1 -11   81.01   10.03
  -2   1  11   83.08    9.57
  -2  -1  11   76.01    9.11
   2   1 -11   95.58   10.28
  -2   1  10  133.79   11.69
  -2  -1  10  130.64   11.42
   2   1 -10  133.15   11.94
  -2  -1  10  119.33    7.55
  -2  -1   9    0.53    3.36
  -2   1   9    4.27    3.23
   2   1  -9    4.62    3.55
   2   1  -8  239.38   15.24
  -2   1   8  212.44   14.77
  -2  -1   8  213.76   14.63
  -2   1   7   50.58    5.70
  -2  -1   7   38.60    5.41
   2   1  -7   40.52    5.11
  -2   1   6    7.68    3.40
   2   1  -6    7.61    3.23
  -2  -1   6    4.16    3.40
  -2   1   5  259.90   14.42
  -2  -1   5  249.11   14.39
  -2  -1   4  430.80   22.12
  -2   1   4  451.10   22.30
  -2   1   3   75.11    5.14
  -2   1   3   62.52    4.95
  -2  -1   3   72.64    5.14
  -2   1   2    4.70    1.89
  -2  -1   2    3.16    1.96
  -2  -1   1  639.09   30.09
  -2   1   1  649.55   30.11
  -2  -1   0 4000.78  182.87
  -2   1   0 4107.24  182.91
  -2   1  -1  319.58   16.30
  -2  -1  -1  346.47   16.36
  -2  -1  -2 1508.53   68.13
  -2   1  -2 1449.67   68.08
  -2  -1  -3  158.00    9.22
  -2   1  -3  148.28    8.98
  -2   1  -4  621.40   31.26
  -2  -1  -4  647.79   31.39
  -2   1  -5   73.05    6.39
   2  -1   5   66.87    4.22
  -2  -1  -5   67.61    6.44
  -2   1  -6  221.23   14.13
  -2   1  -7  305.36   18.79
  -2   1  -8  475.02   27.29
   2  -1   9  105.25    6.36
  -2   1  -9  102.22   10.57
   2   1   9  109.53    6.39
  -2  -1  -9  115.31    6.83
   2   1  10   54.01    4.14
   2  -1  10   54.67    4.07
  -2   1 -10   56.15    4.56
  -2  -1 -10   49.38    4.40
  -2   1 -10   55.25    8.12
  -2  -1 -11   45.29    7.90
  -2   1 -11   34.58    3.85
  -2  -1 -11   41.44    3.97
   2   1  11   38.24    3.50
   2  -1  11   42.21    3.64
  -2   1 -11   46.68    7.86
   2  -1  12  374.95   19.02
   2  -1  12  352.11   24.65
  -2   1 -12  404.72   26.39
  -2   1 -12  394.24   19.53
   2   1  12  358.41   24.70
  -2  -1 -12  389.51   19.50
   2   1  12  369.79   19.07
  -2  -1 -12  343.29   25.26
   2   1  13    3.97    3.92
   2  -1  13    2.36    4.35
  -2   1 -13    2.27    2.14
  -2  -1 -13    5.38    4.14
   2  -1  13    3.84    1.94
  -2   1 -13    4.47    4.42
  -2  -1 -13    2.84    2.20
   2   1  13    1.77    1.95
  -2  -1 -14   34.24    3.60
  -2   1 -14   38.02    3.77
   2  -1  15    0.82    1.69
  -2   1 -15    0.29    1.59
   2   1  15    3.46    1.86
   2   1  16   27.55    2.62
   2  -1  16   25.74    2.50
   2   1  17    2.19    1.13
   2  -1  17    1.38    1.14
  -2   2  17    2.56    0.99
   2  -2 -17    3.44    1.05
  -2  -2  17    2.79    0.98
  -2  -2  16    8.60    1.67
  -2   2  16    8.25    1.70
  -2  -2  15    2.98    1.80
  -2   2  15    2.12    1.71
  -2  -2  14   16.83    2.56
  -2   2  14   18.51    2.72
   2  -2 -13    1.74    3.41
  -2  -2  13    3.00    1.95
  -2   2  13    0.84    2.05
   2   2 -13    3.47    4.63
   2   2 -12    2.52    4.33
  -2  -2  12    9.50    2.37
  -2  -2  12    6.69    4.93
  -2   2  12    8.41    2.36
  -2   2  12    5.23    4.00
   2  -2 -12   10.08    4.88
  -2  -2  11    2.09    3.91
  -2  -2  11    6.57    1.97
   2   2 -11   -6.12    4.75
  -2   2  11    0.70    3.52
  -2   2  11    2.84    1.92
  -2  -2  11    4.77    2.27
   2  -2 -11    6.15    4.32
  -2   2  10  352.31   17.77
  -2   2  10  375.67   22.87
  -2  -2  10  353.92   22.68
   2  -2 -10  356.27   23.00
  -2  -2  10  351.11   18.12
   2   2 -10  403.12   23.67
  -2  -2  10  360.81   17.79
   2  -2  -9    1.75    3.47
   2   2  -9    2.32    3.75
  -2   2   9    3.23    3.35
  -2  -2   9    7.00    3.68
  -2  -2   9    1.48    1.76
   2   2  -8    7.30    3.53
  -2  -2   8    8.69    3.56
  -2   2   8    8.74    3.33
   2  -2  -8    9.30    3.87
  -2   2   7   22.01    3.98
   2   2  -7   19.38    3.99
  -2  -2   7   19.66    3.91
   2  -2  -7   18.70    4.13
   2  -2  -6 1056.57   52.56
   2   2  -6 1152.03   52.98
  -2   2   6 1096.37   52.67
  -2  -2   6 1068.62   52.56
   2  -2  -5   75.57    6.20
  -2  -2   5   67.30    5.93
   2   2  -5   74.10    5.92
  -2   2   5   75.53    6.13
  -2   2   4  270.69   14.68
  -2  -2   4  276.57   14.73
  -2   2   3   10.75    2.31
  -2  -2   3   13.44    2.26
  -2   2   3    9.84    2.14
  -2   2   2 1241.44   55.63
  -2  -2   2 1170.95   55.54
  -2  -2   1   16.95    1.91
  -2   2   1   15.87    1.92
  -2  -2   0   15.73    1.77
  -2   2   0   12.72    1.68
  -2  -2  -1 2152.06   97.37
  -2   2  -1 2126.90   97.36
  -2  -2  -2 9999.00  450.05
  -2   2  -2 9982.42  450.03
  -2   2  -3  404.66   20.17
  -2  -2  -3  393.30   20.11
  -2   2  -4   47.96    4.74
  -2  -2  -4   50.53    4.66
   2  -2   5    8.19    1.96
  -2  -2  -5   10.68    3.37
  -2   2  -5    5.57    2.81
  -2  -2  -6  714.34   33.74
  -2   2  -6  617.84   33.16
   2  -2   6  633.20   31.01
  -2   2  -7  141.85   11.06
  -2  -2  -7  152.93   11.35
  -2  -2  -8   10.96    3.74
  -2   2  -8   12.54    4.36
   2   2   9   11.42    1.92
  -2  -2  -9    8.81    2.22
  -2   2  -9   12.63    4.58
   2  -2   9   13.26    2.00
  -2  -2  -9    8.30    3.95
   2  -2   9   12.71    2.16
   2  -2  10  501.72   23.72
  -2   2 -10  501.09   29.85
   2   2  10  492.03   23.73
  -2  -2 -10  473.80   24.16
  -2  -2 -10  471.62   29.59
  -2   2 -11    7.93    4.53
   2   2  11    0.65    1.85
   2  -2  11    1.75    1.91
  -2  -2 -11   11.94    4.95
   2  -2  11   -2.16    4.35
  -2  -2 -11    0.82    2.07
  -2  -2 -12   19.73    3.15
  -2   2 -12   20.13    5.92
   2  -2  12   17.41    5.36
   2   2  12   16.87    5.37
  -2  -2 -12   19.36    5.88
   2   2  12   18.82    2.72
  -2   2 -12   18.11    3.25
   2  -2  12   21.42    2.92
  -2   2 -13    9.93    2.67
  -2  -2 -13    0.85    4.46
  -2   2 -13    7.61    4.45
   2   2  13    9.03    2.27
   2  -2  13    9.14    2.35
  -2   2 -14   38.11    3.73
   2  -2  15   12.57    2.05
   2   2  15   12.53    2.10
  -2   2 -15    7.79    1.97
  -2  -2 -15    7.06    1.54
   2   2  16   15.84    1.85
   2  -2  16   11.39    1.72
  -2   2 -16   11.09    1.57
   2  -2  17    5.95    0.97
   2   2  17    5.12    1.05
   2  -3 -17    6.05    1.07
   2  -3 -16   21.74    2.18
  -2  -3  15    0.73    1.35
   2  -3 -15    2.44    1.70
  -2   3  15   -1.09    1.47
  -2  -3  14   47.38    3.85
  -2   3  14   51.52    3.96
  -2   3  13   43.23    3.73
  -2  -3  13   39.94    3.62
  -2  -3  12  198.76   10.72
  -2   3  12  193.45   10.31
   2  -3 -12  166.80   15.12
   2   3 -12  151.88   14.84
  -2  -3  12  180.66   10.20
  -2   3  11   -1.36    3.35
  -2  -3  11    2.02    3.47
  -2  -3  11    3.03    1.84
  -2   3  11    5.22    1.98
  -2  -3  11    1.48    2.36
   2  -3 -11    1.49    3.68
   2   3 -11   -2.23    3.75
   2   3 -10   15.90    4.79
  -2  -3  10   11.11    4.29
  -2   3  10    7.43    4.02
  -2   3  10   11.30    2.14
   2  -3 -10   10.01    4.43
  -2  -3  10   11.17    2.16
  -2  -3  10    5.97    2.40
  -2  -3   9   -0.54    3.15
  -2  -3   9    0.81    1.87
   2  -3  -9    2.90    2.92
  -2  -3   9    1.74    1.46
  -2   3   9   -2.73    2.91
   2   3  -9   -0.58    3.23
  -2   3   9    0.25    1.38
  -2  -3   8  286.60   17.97
  -2   3   8  295.10   18.11
   2  -3  -8  282.35   18.27
   2   3  -8  309.51   18.60
  -2  -3   8  292.99   14.93
  -2  -3   7  171.42   11.84
   2   3  -7  166.21   11.74
  -2   3   7  198.15   12.31
   2  -3  -7  169.63   11.99
   2  -3  -6   10.30    2.92
   2   3  -6    9.89    2.72
  -2   3   6   12.77    3.01
  -2  -3   6    8.48    2.85
  -2  -3   5   16.22    3.02
  -2   3   5   19.50    3.11
   2  -3  -5   19.31    3.13
   2   3  -5   17.96    2.88
   2  -3  -4  314.82   16.32
   2   3  -4  305.08   16.16
  -2  -3   1  496.21   22.97
  -2   3   1  481.45   22.93
  -2  -3   0  914.53   41.08
  -2   3   0  877.04   41.03
  -2   3  -1  151.67    8.11
  -2  -3  -1  166.31    8.22
  -2   3  -2  719.95   34.66
  -2  -3  -2  753.09   34.75
  -2   3  -3   44.88    3.92
  -2  -3  -3   45.27    4.09
   2  -3   4  496.37   24.89
  -2  -3  -4  493.76   24.99
  -2   3  -4  484.89   24.85
   2  -3   5   52.12    4.79
  -2  -3  -5   53.84    5.37
  -2   3  -5   55.51    5.46
  -2   3  -6   38.47    4.80
  -2  -3  -6   31.77    4.75
   2  -3   6   42.36    4.20
  -2   3  -7   -1.35    3.12
  -2  -3  -7    3.21    2.93
  -2  -3  -8  292.25   17.68
  -2  -3  -8  245.67   13.56
  -2   3  -8  271.80   17.21
   2   3   9   93.25    5.62
   2  -3   9   87.10    5.57
  -2   3  -9   91.27    9.31
  -2  -3  -9  110.79    9.97
  -2   3 -10    2.06    3.80
   2  -3  10    8.31    3.81
   2  -3  10    0.99    1.56
  -2  -3 -10    1.39    3.83
   2   3  10   -0.58    1.72
  -2  -3 -11   12.03    4.77
   2   3  11   16.13    4.98
  -2   3 -11    9.75    4.81
   2  -3  11   11.89    2.23
   2  -3  11    8.95    4.37
   2   3  11   12.27    2.29
   2  -3  12  180.40   15.50
  -2   3 -12  193.48   16.41
  -2  -3 -12  186.92   16.22
   2   3  12  167.49   15.25
   2  -3  12  210.71   11.17
   2   3  12  220.41   11.26
  -2  -3 -13   38.73    3.52
  -2   3 -13   38.06    4.05
  -2  -3 -14    7.55    1.83
  -2   3 -14    6.49    2.21
   2  -3  14   11.74    2.00
   2   3  14    9.67    2.03
   2   3  15    4.13    1.50
  -2   3 -15    4.00    1.52
   2  -3  15    3.56    1.45
   2   3  16   14.37    1.60
  -2  -3 -16   14.55    1.76
   2  -4 -16    2.75    1.28
   2  -4 -16   -0.30    1.07
   2  -4 -15   15.13    2.22
   2  -4 -15   10.12    2.34
  -2   4  14   52.67    3.75
   2  -4 -14   62.79    4.47
  -2  -4  13    7.51    1.79
  -2   4  13    9.53    1.97
  -2  -4  13   10.05    2.49
  -2  -4  12   19.72    2.39
  -2   4  12   16.50    2.36
  -2  -4  12   16.84    3.00
  -2   4  11    9.56    2.04
  -2  -4  11    8.65    1.98
  -2  -4  11   15.40    2.95
   2  -4 -11    7.59    3.84
  -2  -4  10  165.77    9.67
  -2  -4  10  158.53    8.88
  -2  -4   9    1.25    2.17
  -2  -4   9    0.12    1.23
   2  -4  -9   -2.83    3.08
   2   4  -8   22.46    4.47
   2  -4  -8   18.47    4.51
  -2  -4   8   31.84    3.35
   2  -4  -7    6.13    2.56
  -2  -4   7    9.11    2.30
  -2  -4   7    5.92    1.37
   2   4  -7    3.20    2.47
  -2  -4   6  220.73   11.03
   2   4  -6  220.41   13.36
   2  -4  -6  225.02   13.56
   2   4  -5   23.16    3.20
   2  -4  -5   33.44    3.63
  -2  -4   5   28.99    2.32
  -2  -4   4    8.19    1.42
   2  -4  -4    5.11    1.93
   2  -4  -3   99.27    6.24
  -2  -4   3  106.38    5.68
   2  -4  -2  470.96   22.72
  -2  -4   2  491.92   22.71
   2  -4  -2  490.97   22.81
  -2  -4   1  152.37    7.82
   2  -4  -1  151.63    7.90
   2  -4   0   47.40    3.25
   2  -4   1   70.73    4.30
  -2  -4  -2  638.32   29.58
  -2  -4  -3   67.55    4.79
   2  -4   3   70.72    6.26
  -2   4  -4  124.12    8.38
  -2  -4  -4  151.07    8.84
   2  -4   4  147.38    9.89
  -2  -4  -5    0.91    1.90
   2  -4   5    1.01    2.21
  -2   4  -5   -0.59    1.81
   2  -4   6  451.40   24.28
  -2  -4  -6  470.83   24.81
  -2   4  -6  453.43   24.61
  -2  -4  -7  109.56    6.88
  -2   4  -7  113.62    9.43
  -2  -4  -7  121.77    9.65
   2  -4   7  122.69    7.06
   2  -4   7  120.24    6.90
  -2   4  -8   63.45    7.20
   2  -4   8   61.08    4.59
  -2  -4  -8   69.37    4.71
   2  -4   8   58.63    4.60
  -2  -4  -8   74.42    7.53
   2  -4   8   55.40    6.36
   2  -4   9   20.77    2.30
   2  -4   9   21.09    2.75
   2   4   9   14.78    4.41
   2  -4   9   19.23    4.48
  -2  -4  -9   22.78    2.89
   2  -4   9   25.93    2.91
  -2  -4  -9   14.11    4.17
   2  -4  10  228.98   12.26
   2  -4  10  204.94   11.49
   2  -4  10  194.15   15.35
   2  -4  10  222.06   11.74
   2   4  10  219.25   11.56
  -2  -4 -10  242.46   12.10
  -2  -4 -10  223.13   16.34
  -2  -4 -11   32.14    5.96
  -2  -4 -11   33.88    3.49
  -2  -4 -12    5.30    1.91
   2   4  13    0.83    1.47
   2  -4  13    0.80    1.38
  -2  -4 -13    1.57    1.52
  -2   4 -13    1.16    2.11
  -2   4 -14   56.41    4.16
   2   4  14   46.99    3.42
  -2  -4 -14   49.50    3.56
  -2  -4 -15   82.54    4.78
  -2   4 -15   78.16    4.87
  -2  -4 -16    2.15    0.85
   2  -5 -15    2.27    1.59
   2  -5 -14    7.54    2.39
  -2  -5  13   23.56    2.98
   2  -5 -13   29.87    3.86
  -2  -5  12   61.60    4.98
  -2  -5  11    8.10    2.62
   2  -5 -11    5.92    2.41
   2  -5 -10   22.96    3.22
  -2  -5  10   20.46    3.17
   2  -5  -9    7.76    2.14
  -2  -5   9    5.22    2.62
   2  -5  -8  145.07    8.50
  -2  -5   8  147.25    8.75
  -2  -5   7    7.30    1.62
   2  -5  -7   10.30    2.13
  -2  -5   7    8.37    2.49
  -2  -5   6    2.10    1.43
   2  -5  -6    3.85    1.67
  -2  -5   6    2.53    2.14
  -2  -5   6    5.44    1.87
   2  -5  -5   91.08    5.30
  -2  -5   5   88.45    5.38
  -2  -5   5   79.78    4.99
  -2  -5   4  679.63   30.76
   2  -5  -4  591.32   32.83
  -2  -5   3  204.68   10.41
   2  -5  -3  201.52   12.84
   2  -5  -2  298.15   15.02
   2  -5  -2  334.89   17.96
  -2  -5   2  300.22   14.88
  -2  -5   1   42.21    3.30
   2  -5  -1   42.49    3.28
   2  -5  -1   41.85    5.16
   2  -5   0  502.36   24.32
   2  -5   0  547.26   27.50
   2  -5   1  237.05   12.24
   2  -5   1  253.78   15.06
   2  -5   2   31.60    4.78
   2  -5   2   24.88    2.58
   2  -5   4  465.59   25.55
  -2  -5  -4  463.71   22.35
   2  -5   5  207.00   14.07
   2  -5   5  214.09   11.40
   2  -5   5  226.28   11.22
   2  -5   5  208.19   11.24
  -2  -5  -5  218.89   11.19
  -2  -5  -5  216.40   11.41
   2  -5   5  223.45   11.72
  -2  -5  -6    4.01    2.27
   2  -5   6    3.03    1.81
   2  -5   6    3.41    1.65
  -2  -5  -6    1.67    1.60
  -2  -5  -6    1.25    1.27
   2  -5   6    2.63    2.62
  -2  -5  -6    1.87    1.26
  -2  -5  -7    4.44    1.52
  -2  -5  -7    4.66    2.44
   2  -5   7    3.47    1.69
   2  -5   7    3.86    1.94
  -2  -5  -7    5.01    1.46
   2  -5   7    1.60    2.20
  -2  -5  -7    2.61    1.69
  -2  -5  -8  307.37   15.17
  -2  -5  -8  290.52   16.05
   2  -5   8  309.25   15.65
   2  -5   8  317.46   15.82
  -2  -5  -8  291.99   15.62
   2  -5   9   27.29    3.11
  -2  -5  -9   23.00    3.44
   2  -5   9   25.57    3.19
  -2  -5  -9   28.36    3.09
  -2  -5 -10   25.00    3.46
   2  -5  10   25.22    3.09
   2  -5  10   22.23    3.16
  -2  -5 -10   21.00    3.01
   2  -5  11   34.83    3.42
  -2  -5 -11   33.80    3.31
  -2  -5 -11   33.64    3.47
  -2  -5 -11   35.25    3.73
  -2  -5 -12   95.28    6.01
  -2  -5 -12   91.34    6.11
   2  -5  12  103.24    6.16
  -2   5 -13    2.06    2.00
  -2  -5 -13    4.69    1.57
   2  -5  13    0.33    0.65
  -2  -5 -13    3.33    1.54
  -2   5 -14   26.61    2.72
  -2  -5 -14   29.13    2.44
  -2   5 -15    0.14    0.89
   2  -6 -14   16.07    1.87
   2  -6 -14   12.70    2.06
   2  -6 -13    0.32    2.12
  -2  -6  13    1.30    1.66
   2  -6 -13    0.59    1.50
  -2  -6  12    1.21    2.07
   2  -6 -12    2.75    1.88
   2  -6 -12    6.39    2.73
  -2  -6  11   38.12    4.02
   2  -6 -11   53.61    5.09
   2  -6 -11   46.99    4.05
  -2  -6  10   38.57    3.97
   2  -6 -10   33.40    4.62
   2  -6 -10   32.72    3.63
   2  -6  -9   59.14    5.92
  -2  -6   9   60.51    5.19
   2  -6  -9   57.05    4.69
   2  -6  -8    4.62    2.14
   2  -6  -8    4.25    3.05
  -2  -6   8    5.02    2.80
   2  -6  -7  356.14   17.36
  -2  -6   7  318.40   16.77
  -2  -6   7  337.74   17.62
   2  -6  -7  368.12   18.92
  -2  -6   6  249.15   12.86
  -2  -6   6  230.50   12.47
   2  -6  -6  251.04   12.86
  -2  -6   5    0.28    1.50
  -2  -6   5   -0.74    2.31
  -2  -6   5    0.32    1.71
   2  -6  -5    1.53    1.63
   2  -6  -4    4.49    1.69
   2  -6  -4    2.84    2.53
  -2  -6   4    5.75    1.92
  -2  -6   4    4.79    2.38
  -2  -6   4    4.28    1.67
  -2  -6   4    5.02    2.25
  -2  -6   3  492.46   23.37
  -2  -6   3  469.31   23.02
  -2  -6   3  487.03   23.49
   2  -6  -3  508.60   26.25
   2  -6  -3  457.81   23.84
   2  -6  -3  462.66   22.87
  -2  -6   3  464.93   22.85
  -2  -6   2  533.43   25.15
   2  -6  -2  498.34   24.56
   2  -6  -2  506.66   25.58
   2  -6  -2  532.68   28.08
   2  -6  -1    5.99    3.25
   2  -6  -1    3.00    1.84
  -2  -6   1    4.21    2.17
   2  -6  -1    4.45    2.47
   2  -6  -1    1.54    1.41
   2  -6   0    0.15    1.69
  -2  -6   0   -0.17    1.85
   2  -6   0    2.38    2.92
   2  -6   0    2.50    2.39
   2  -6   1  126.79    7.43
   2  -6   1  138.27   10.68
   2  -6   1  120.76    7.15
   2  -6   1  130.46    7.86
   2  -6   2  167.63    9.47
  -2  -6  -2  189.44    9.52
   2  -6   2  188.34   10.09
   2  -6   2  176.56    9.77
  -2  -6  -2  175.70   10.30
   2  -6   2  182.97   13.25
   2  -6   2  164.06    9.20
  -2  -6  -3  215.79   11.15
   2  -6   3  206.63   10.97
   2  -6   3  203.61   11.16
  -2  -6  -3  227.32   12.05
   2  -6   3  220.42   11.74
   2  -6   4    2.32    1.78
   2  -6   4    5.13    2.00
   2  -6   4    1.11    2.15
   2  -6   4    2.93    1.47
   2  -6   4    2.67    1.92
   2  -6   4    1.57    3.26
  -2  -6  -4    3.10    2.48
  -2  -6  -4    2.80    1.55
  -2  -6  -5   57.33    5.11
   2  -6   5   60.71    4.31
   2  -6   5   59.04    4.59
   2  -6   5   59.62    7.23
   2  -6   5   59.46    4.70
   2  -6   5   61.95    5.12
  -2  -6  -5   63.54    4.47
   2  -6   6  126.26    7.59
   2  -6   6  127.24    7.91
   2  -6   6  128.51    7.95
  -2  -6  -6  132.01    7.52
  -2  -6  -6  147.27    8.59
  -2  -6  -6  132.66    7.88
  -2  -6  -6  124.69    7.27
  -2  -6  -7   26.65    2.81
   2  -6   7   25.68    3.00
   2  -6   7   30.88    3.47
  -2  -6  -7   31.23    3.27
  -2  -6  -7   37.62    3.98
   2  -6   7   29.36    3.44
  -2  -6  -7   31.51    2.88
   2  -6   7   28.71    3.78
  -2  -6  -8    1.27    1.49
   2  -6   8    5.08    2.11
   2  -6   8    0.57    2.19
  -2  -6  -8    2.79    1.62
  -2  -6  -8    8.42    2.75
  -2  -6  -8    5.36    2.19
   2  -6   8    5.65    2.65
   2  -6   9   68.73    5.07
   2  -6   9   70.34    5.22
  -2  -6  -9   65.78    5.14
   2  -6   9   64.60    5.05
  -2  -6  -9   63.90    4.62
  -2  -6  -9   72.79    5.53
  -2  -6 -10  112.56    7.63
   2  -6  10  125.37    7.48
  -2  -6 -10  130.30    7.55
  -2  -6 -10  114.43    7.04
   2  -6  10  132.11    7.67
  -2  -6 -11   48.65    3.78
   2  -6  11   49.12    4.03
   2  -6  12   -0.12    1.41
   2  -6  12    1.20    1.55
  -2  -6 -12    0.62    1.22
  -2   6 -13    0.94    1.58
  -2   6 -14   17.97    1.82
   2  -7 -13   34.97    2.97
   2  -7 -13   36.93    2.57
  -2  -7  12   22.27    2.65
   2  -7 -12   25.69    3.07
   2  -7 -12   25.60    2.43
   2  -7 -11    3.49    1.66
  -2  -7  11    2.78    2.16
   2  -7 -11    2.10    2.47
   2  -7 -10    7.48    2.86
  -2  -7  10    2.21    2.29
   2  -7 -10    5.23    1.89
  -2  -7   9   60.71    5.22
   2  -7  -9   69.39    5.97
   2  -7  -9   71.95    5.05
   2  -7  -8  142.47    9.52
  -2  -7   8  148.26    8.83
   2  -7  -8  134.12    8.33
   2  -7  -7   29.90    3.35
   2  -7  -7   26.76    4.30
   2  -7  -6   10.80    2.37
  -2  -7   6   11.93    2.50
  -2  -7   5  285.16   14.56
  -2  -7   5  264.56   14.83
   2  -7  -5  276.50   14.35
   2  -7  -4  103.12    6.63
  -2  -7   4  112.62    7.34
  -2  -7   4  111.42    7.33
  -2  -7   4  110.09    6.80
  -2  -7   3   71.07    5.08
  -2  -7   3   68.00    5.39
  -2  -7   3   67.94    5.57
   2  -7  -3   57.96    6.97
   2  -7  -3   66.40    4.88
  -2  -7   2   14.74    3.00
  -2  -7   2   14.94    2.87
   2  -7  -2   12.52    3.70
   2  -7  -2   17.22    4.19
  -2  -7   1  176.67   10.15
   2  -7  -1  151.61   12.79
   2  -7  -1  172.88   10.69
   2  -7   0  237.52   12.93
   2  -7   0  218.68   12.01
  -2  -7   0  233.68   12.73
   2  -7   0  226.48   12.36
   2  -7   0  234.24   16.27
  -2  -7  -1   66.07    5.18
   2  -7   1   58.34    4.49
   2  -7   1   58.96    7.42
   2  -7   1   63.70    4.91
   2  -7   1   59.93    5.24
   2  -7   2   17.90    2.16
  -2  -7  -2   15.74    2.96
   2  -7   2   22.97    3.37
   2  -7   2   20.74    2.71
   2  -7   2   16.69    4.65
   2  -7   3   35.60    3.35
   2  -7   3   33.42    3.00
   2  -7   3   34.16    3.63
   2  -7   3   32.31    4.06
   2  -7   4  122.02    8.23
   2  -7   4  128.31    7.90
   2  -7   4  129.93    7.60
  -2  -7  -4  126.52    8.53
   2  -7   4  130.45    7.87
   2  -7   4  121.77    7.26
  -2  -7  -5   66.37    5.71
   2  -7   5   60.56    4.49
   2  -7   5   65.01    5.19
   2  -7   5   62.66    5.53
   2  -7   5   68.72    5.13
   2  -7   6    4.60    2.89
   2  -7   6    3.33    2.25
   2  -7   6    4.67    1.88
   2  -7   6    2.61    2.26
  -2  -7  -6    1.15    2.50
   2  -7   7   33.28    3.60
  -2  -7  -7   31.64    3.91
   2  -7   7   39.40    4.33
   2  -7   7   30.25    3.17
  -2  -7  -8  119.95    8.02
   2  -7   8  128.75    7.49
   2  -7   8  124.63    7.96
   2  -7   8  127.16    7.84
  -2  -7  -9   76.34    5.53
   2  -7   9   70.69    5.21
   2  -7   9   77.02    5.58
   2  -7  10   69.75    4.92
   2  -7  10   72.38    5.05
   2  -7  11   11.51    1.82
   2  -7  11   10.72    2.05
   2  -7  12   32.99    2.58
  -2   7 -13   13.64    1.70
  -2  -8  12    2.63    1.20
  -2  -8  11   54.86    3.84
   2  -8 -11   50.36    3.31
   2  -8 -11   48.59    3.94
   2  -8 -10   26.49    3.29
  -2  -8  10   28.99    3.06
   2  -8 -10   25.76    2.53
   2  -8  -9    2.56    1.61
  -2  -8   9    2.15    2.11
   2  -8  -9    0.40    2.67
   2  -8  -8    3.99    1.77
   2  -8  -8    5.55    3.04
   2  -8  -7   18.00    2.65
   2  -8  -7   20.00    3.75
  -2  -8   6   65.86    5.42
   2  -8  -6   68.37    4.84
   2  -8  -6   63.05    6.00
  -2  -8   5    5.56    2.22
  -2  -8   5    4.81    2.59
   2  -8  -5    1.91    1.85
  -2  -8   4   16.49    3.25
  -2  -8   4   15.70    2.84
  -2  -8   3   75.00    5.55
  -2  -8   3   74.31    5.79
  -2  -8   3   70.30    5.98
   2  -8  -2   74.58    5.28
  -2  -8   2   71.47    5.67
  -2  -8   2   77.55    5.64
  -2  -8   2   77.89    6.03
  -2  -8   1   80.45    5.78
   2  -8  -1   77.72    5.43
   2  -8  -1   81.42    6.46
  -2  -8   1   69.80    5.98
   2  -8   0   12.57    3.55
  -2  -8   0    8.65    2.44
   2  -8   0   11.75    2.33
  -2  -8   0    6.11    2.77
  -2  -8  -1   44.94    4.59
   2  -8   1   38.83    4.51
  -2  -8  -1   43.38    3.95
   2  -8   1   41.62    3.69
  -2  -8  -2  104.68    7.49
   2  -8   2  118.82    7.91
   2  -8   2  113.75    7.35
   2  -8   2  110.52    6.90
   2  -8   3   19.05    2.64
   2  -8   3   24.91    3.90
  -2  -8  -3   23.51    3.39
   2  -8   3   22.72    3.31
  -2  -8  -4    2.68    2.35
   2  -8   4    0.20    1.98
   2  -8   4    0.94    2.16
   2  -8   4   -0.66    2.66
   2  -8   5   69.63    5.31
  -2  -8  -5   62.89    5.30
   2  -8   5   58.37    4.28
   2  -8   5   70.58    5.87
   2  -8   5   71.30    5.30
  -2  -8  -6   50.52    4.68
   2  -8   6   54.00    3.99
   2  -8   6   63.35    4.88
   2  -8   6   61.05    4.82
   2  -8   6   69.23    5.42
  -2  -8  -7   58.23    4.84
   2  -8   7   70.32    5.05
   2  -8   7   71.88    5.45
   2  -8   8    2.50    1.69
   2  -8   8    4.97    2.41
   2  -8   9    0.56    1.86
   2  -8   9   -0.66    1.55
   2  -8  10   17.02    1.99
   2  -8  10   21.69    2.44
   2  -8  11   43.83    3.11
  -2   8 -12    1.28    0.98
  -2  -9  10    0.32    1.21
   2  -9 -10    0.49    1.11
   2  -9  -9   10.86    2.05
   2  -9  -8   21.73    2.79
   2  -9  -7   49.97    3.55
  -2  -9   7   54.78    4.22
   2  -9  -6   10.98    2.75
  -2  -9   6    7.21    2.37
   2  -9  -6    8.47    1.71
  -2  -9   5   16.86    2.76
   2  -9  -5   14.38    2.09
   2  -9  -4   31.84    3.06
  -2  -9   4   37.02    3.76
  -2  -9   4   36.98    3.47
   2  -9  -3   26.11    2.74
  -2  -9   3   25.12    3.05
  -2  -9   3   25.69    3.26
  -2  -9   2    2.41    2.60
  -2  -9   2    2.33    1.98
  -2  -9   2    2.60    2.02
   2  -9  -2    0.96    1.60
  -2  -9   1  191.59   10.57
  -2  -9   1  184.04   10.33
   2  -9  -1  173.04    9.99
  -2  -9   1  189.19   10.95
   2  -9   0   39.15    4.44
  -2  -9   0   36.05    3.92
   2  -9   0   29.45    2.96
  -2  -9   0   33.16    3.29
  -2  -9   0   34.64    3.53
   2  -9   1  111.42    6.75
   2  -9   1  116.62    7.41
   2  -9   1  128.58    8.09
  -2  -9  -1  107.98    7.42
   2  -9   2   31.00    4.15
   2  -9   2   34.77    3.70
  -2  -9  -2   29.52    3.68
  -2  -9  -3  183.04   10.16
   2  -9   3  173.93    9.99
   2  -9   3  174.67   10.44
  -2  -9  -4   65.60    5.13
   2  -9   4   72.61    5.18
   2  -9   5    5.79    2.70
   2  -9   5   10.11    2.36
  -2  -9  -5    6.86    2.08
   2  -9   6    4.25    2.36
   2  -9   7   18.70    2.75
   2  -9   8   21.44    2.57
   2  -9   9   48.86    3.42
   2  -9  10    0.24    1.02
  -2 -10   8    5.96    1.15
   2 -10  -7   11.62    1.83
  -2 -10   7   20.16    1.98
   2 -10  -6    0.54    1.53
  -2 -10   6    0.18    1.38
   2 -10  -5    1.01    1.80
  -2 -10   5    0.10    1.48
  -2 -10   4   44.33    3.36
  -2 -10   3   22.80    2.35
  -2 -10   3   21.07    2.38
   2 -10  -2   34.40    3.14
  -2 -10   2   30.22    2.80
   2 -10  -1   71.94    5.48
   2 -10  -1   68.58    4.98
  -2 -10   1   77.32    4.93
   2 -10  -1   84.07    5.22
   2 -10   0   -0.41    1.87
   2 -10   0    0.16    2.21
  -2 -10   0    0.12    1.63
   2 -10   0    0.14    1.82
   2 -10   1   22.45    3.12
  -2 -10  -1   21.84    2.71
   2 -10   1   23.25    2.95
  -2 -10  -1   19.06    2.50
   2 -10   1   21.55    2.73
   2 -10   2    2.99    1.83
   2 -10   2    2.47    2.24
  -2 -10  -2    1.26    1.68
  -2 -10  -2    2.61    1.60
   2 -10   2    2.42    2.03
   2 -10   3   88.61    5.47
  -2 -10  -3   68.44    4.89
   2 -10   3   84.07    5.17
  -2 -10  -3   78.99    4.98
   2 -10   4    0.11    1.49
   2 -10   6   27.61    2.58
   2 -10   7   59.23    3.72
   2 -10   8   -0.22    0.87
   2 -11  -4    5.17    0.98
   2 -11  -3    5.51    1.31
   2 -11  -3    8.28    1.25
   2 -11  -2   12.63    1.50
   2 -11  -1   28.07    2.22
   2 -11   0    3.91    1.20
   2 -11   1   11.35    1.46
   2 -11   1    7.74    1.19
   2 -11   2    3.29    0.99
   2 -11   3    7.05    1.11
   3   0 -17   -0.34    0.82
  -3   0  17    0.87    1.07
  -3   0  16    1.68    1.54
  -3   0  15    2.73    1.90
  -3   0  14    0.50    2.10
   3   0 -13    5.36    4.77
  -3   0  13    2.47    2.29
  -3   0  12    1.57    2.12
   3   0 -12   -8.56    4.96
  -3   0  11   10.24    2.31
   3   0 -11    7.84    4.56
  -3   0  10   -0.29    1.60
   3   0 -10    0.69    4.00
  -3   0   9  184.64    9.87
   3   0  -9  192.91   14.15
   3   0  -8   -0.49    2.88
   3   0  -7   49.38    6.03
  -3   0   6    0.48    1.06
  -3   0   5 1235.18   58.80
  -3   0   4    1.67    2.38
  -3   0   3  795.61   37.97
  -3   0   2    2.50    1.99
  -3   0   1 1684.78   77.28
  -3   0   0    0.95    1.90
  -3   0  -1    3.85    2.29
  -3   0  -2    0.97    2.52
  -3   0  -3 1538.69   71.73
  -3   0  -4    1.66    2.52
  -3   0  -5    7.99    3.27
  -3   0  -6    0.80    2.93
  -3   0  -7  695.65   36.67
  -3   0  -8    1.13    3.36
  -3   0  -9   54.93    4.51
   3   0   9   62.07    4.22
  -3   0  -9   59.73    8.08
  -3   0 -10   -0.75    4.00
  -3   0 -10   -0.39    2.08
   3   0  10   -0.15    1.63
  -3   0 -11  351.94   24.43
   3   0  11  361.19   17.88
  -3   0 -11  346.60   18.31
   3   0  12   -0.18    1.91
  -3   0 -12    1.80    4.06
  -3   0 -12   -2.40    2.04
  -3   0 -13    0.64    2.21
   3   0  13    1.58    2.11
  -3   0 -13   -2.74    4.51
  -3   0 -14   -1.14    2.13
   3   0  14   -1.31    1.95
  -3   0 -15  182.96   10.05
   3   0  16    1.97    1.36
   3   0  17    2.62    1.06
  -3  -1  17   12.03    1.51
  -3   1  17   14.22    1.57
   3  -1 -17    9.71    1.34
  -3   1  16    3.68    1.66
  -3  -1  16    4.27    1.62
  -3  -1  15   11.54    2.36
  -3   1  15   17.68    2.40
  -3  -1  14   17.38    2.77
  -3   1  14   16.35    2.75
   3   1 -13  172.53   16.17
  -3   1  13  199.62   10.82
  -3  -1  13  191.66   10.76
   3  -1 -13  178.63   16.04
  -3   1  12   -0.69    1.93
  -3  -1  12   -0.52    1.90
  -3  -1  12    0.77    3.47
  -3   1  12   -2.31    4.46
   3  -1 -12   -2.55    4.11
   3   1 -12   -1.69    4.51
  -3  -1  11   71.76    5.32
  -3   1  11   75.52    5.43
   3  -1 -11   74.94    9.65
  -3   1  11   85.46    9.63
   3   1 -11   92.59   10.30
  -3  -1  11   92.61   10.00
  -3   1  10   61.57    4.32
  -3  -1  10   47.71    7.24
  -3   1  10   58.02    7.56
  -3  -1  10   55.30    4.27
   3   1 -10   48.20    7.71
  -3  -1   9  125.40    7.08
  -3   1   9  133.19    7.14
   3   1  -9  115.34   10.59
  -3   1   9  122.63   10.91
  -3  -1   9  120.40   10.60
  -3  -1   9  107.30    7.30
  -3  -1   8   47.82    6.26
   3   1  -8   39.76    5.91
  -3   1   8   48.78    6.30
  -3   1   7  635.18   32.33
  -3  -1   7  602.32   32.26
   3   1  -7  609.44   32.18
  -3   1   6    2.59    1.22
  -3   1   6    6.61    3.23
  -3  -1   6    3.13    3.04
  -3  -1   6    1.37    1.10
  -3   1   5  341.79   18.38
  -3  -1   5  336.86   18.36
  -3  -1   5  321.69   18.35
  -3   1   5  339.08   18.38
  -3  -1   4  162.01    9.75
  -3  -1   4  146.52    9.61
  -3   1   4  155.70    9.83
  -3   1   4  167.66    9.96
  -3  -1   3  884.12   43.19
  -3   1   3  943.06   43.37
  -3  -1   2   27.31    3.09
  -3   1   2   24.62    2.94
  -3   1   1  177.28    9.48
  -3  -1   1  166.32    9.40
  -3   1   0 2730.53  125.52
  -3  -1   0 2794.21  125.56
  -3  -1  -1   94.82    6.12
  -3   1  -1   91.98    6.09
  -3  -1  -2   18.85    3.04
  -3   1  -2   18.86    2.99
  -3  -1  -3    0.24    2.25
  -3   1  -3    1.65    2.00
  -3  -1  -4   14.28    3.37
  -3   1  -4   15.93    3.31
  -3  -1  -5 1220.42   59.47
  -3   1  -5 1255.39   59.55
  -3   1  -6   10.83    3.68
   3  -1   6    8.80    1.46
  -3   1  -7   33.01    5.38
  -3   1  -8   15.19    4.52
   3  -1   9  424.53   21.36
   3   1   9  435.32   21.26
  -3   1  -9  482.84   27.14
   3  -1   9  453.57   21.30
  -3  -1  -9  429.50   21.71
  -3   1 -10   67.61    5.26
   3   1  10   68.92    4.73
  -3   1 -10   81.29    9.43
  -3  -1 -10   62.04    5.08
   3  -1  10   61.31    4.58
  -3  -1 -10   58.34    8.70
  -3  -1 -11   21.58    5.57
  -3   1 -11   12.46    5.45
   3   1  11    9.47    2.36
  -3   1 -11    7.32    2.72
  -3  -1 -11   10.59    2.59
   3  -1  11    9.53    2.30
  -3   1 -12    2.21    2.37
   3   1  12    4.03    2.05
  -3  -1 -12    6.24    4.84
   3  -1  12    1.21    1.94
  -3   1 -12    0.89    3.91
  -3  -1 -12    4.15    2.17
   3   1  13   19.74    5.29
  -3   1 -13   16.09    5.69
   3   1  13   19.83    2.78
   3  -1  13   18.53    2.73
   3  -1  13   18.00    5.36
  -3   1 -13   19.49    3.11
  -3  -1 -13   18.56    3.10
  -3  -1 -13   21.47    6.04
  -3   1 -14    0.57    2.05
   3  -1  14    2.55    1.93
  -3  -1 -14    2.07    1.82
   3   1  14    1.13    1.81
  -3   1 -15    0.61    1.70
   3  -1  16   14.29    1.89
   3   1  16   14.91    1.93
   3  -1  17   29.28    2.10
   3   1  17   27.83    2.15
  -3  -2  17    8.78    1.14
  -3   2  17    9.90    1.21
   3  -2 -17    9.14    1.20
   3  -2 -16    0.20    1.25
  -3  -2  15    4.14    1.81
  -3   2  15    5.11    1.83
  -3  -2  14   68.37    4.91
  -3   2  14   64.01    4.85
  -3   2  13  158.14    9.14
  -3  -2  13  158.29    9.14
  -3  -2  12   16.85    2.78
  -3   2  12   16.30    2.55
  -3   2  11  139.19    7.86
  -3  -2  11  130.80    7.68
  -3   2  11  121.89   12.29
  -3  -2  11  121.46    8.08
   3  -2 -11  121.76   12.28
   3   2 -11  115.15   12.32
  -3  -2  11  116.06   11.68
  -3  -2  10   69.69    4.90
  -3   2  10   72.10    5.04
   3  -2 -10   75.44    9.05
  -3  -2  10   88.48    9.19
   3   2 -10   79.31    9.05
  -3  -2  10   68.74    5.52
  -3   2  10   82.71    9.05
   3  -2  -9  206.60   15.05
  -3   2   9  225.90   15.31
  -3  -2   9  212.74   14.87
   3   2  -9  201.51   14.83
  -3   2   9  188.27   10.55
  -3  -2   9  219.89   11.14
  -3  -2   9  195.01   10.58
  -3   2   8    8.36    3.40
  -3  -2   8   15.22    3.99
   3  -2  -8   12.38    3.90
   3   2  -8   11.34    3.62
   3   2  -7  152.16   10.62
  -3  -2   7  134.80   10.47
  -3   2   7  139.18   10.57
   3  -2  -7  137.14   10.49
   3   2  -6    2.75    2.50
  -3  -2   6    2.12    2.77
  -3   2   6    6.38    3.14
   3  -2  -6    1.38    2.44
  -3   2   5 1333.92   63.08
  -3  -2   5 1321.71   62.99
  -3  -2   4  156.80    9.60
  -3   2   4  149.16    9.52
  -3  -2   3   58.83    4.77
  -3   2   3   61.26    4.95
  -3   2   2    2.02    1.65
  -3  -2   2    1.67    1.56
  -3  -2   1 2466.72  110.91
  -3   2   1 2399.82  110.89
  -3  -2   0    0.14    1.55
  -3   2   0    0.70    1.44
  -3   2  -1  496.54   24.05
  -3  -2  -1  496.23   24.04
  -3   2  -2 2648.38  122.61
  -3  -2  -2 2716.14  122.68
  -3   2  -3 1003.77   49.19
  -3  -2  -3 1070.44   49.40
  -3  -2  -4   12.16    3.18
  -3   2  -4   19.61    3.54
  -3  -2  -5  109.47    8.54
  -3   2  -5  109.91    8.34
   3  -2   6   37.71    3.46
  -3  -2  -6   29.81    4.70
  -3   2  -6   37.77    5.10
  -3   2  -7  715.02   33.01
  -3  -2  -7  700.57   33.14
  -3  -2  -8   26.03    5.01
  -3   2  -8   28.14    5.45
   3  -2   8   24.54    2.57
  -3  -2  -8   26.50    2.96
  -3   2  -9    5.85    4.05
   3   2   9    4.89    1.72
  -3  -2  -9    7.59    2.29
   3  -2   9    7.44    2.04
  -3  -2  -9    8.49    4.52
   3  -2   9    7.06    1.78
  -3  -2 -10   92.49    6.35
   3   2  10   89.52    5.84
  -3  -2 -10   90.31   10.17
   3  -2  10   80.32    6.03
   3  -2  10   96.98    5.90
  -3   2 -10  101.80   10.46
  -3  -2 -11   52.16    8.14
  -3  -2 -11   54.06    4.97
  -3   2 -11   58.65    5.07
   3  -2  11   60.21    4.46
   3   2  11   59.22    4.46
  -3   2 -11   69.07    9.24
   3  -2  12   31.99    3.30
  -3  -2 -12   33.61    3.87
   3   2  12   19.34    5.68
  -3  -2 -12   25.56    6.68
   3  -2  12   28.18    6.24
  -3   2 -12   27.17    6.66
   3   2  12   37.03    3.50
  -3   2 -12   22.21    3.72
  -3   2 -13    8.75    2.50
   3  -2  13    4.39    1.96
   3   2  13    5.34    2.00
  -3   2 -14    3.35    2.08
   3   2  15   15.36    2.19
  -3  -2 -15   15.40    1.93
   3  -2  15   14.47    2.09
  -3   2 -15   12.85    2.23
   3  -2  16    2.16    1.28
  -3   2 -16    1.36    1.17
   3   2  16    2.24    1.29
  -3  -2 -16   -0.44    0.92
   3   2  17    0.13    0.72
  -3  -2 -17    0.05    0.71
  -3   3  16   -0.83    1.02
  -3  -3  16    0.67    0.93
   3  -3 -16    1.25    1.24
   3  -3 -15   12.74    2.11
  -3  -3  14    5.03    1.77
  -3   3  14    5.30    1.79
  -3   3  13    2.42    1.91
  -3  -3  13    1.34    1.92
  -3   3  12    6.35    2.16
  -3  -3  12    7.01    2.68
   3  -3 -12    4.66    3.93
   3   3 -12    6.16    3.89
  -3  -3  12    3.91    1.96
  -3  -3  11   37.44    3.42
  -3   3  11   37.14    3.50
   3  -3 -11   31.60    6.50
  -3  -3  11   38.76    4.08
   3   3 -11   29.11    6.09
  -3  -3  10    8.93    2.00
  -3   3  10   10.33    2.07
   3   3 -10    4.65    3.69
  -3  -3  10    8.44    2.60
   3  -3 -10    8.03    3.46
  -3  -3   9   23.01    3.15
   3   3  -9   24.65    5.12
  -3  -3   9   27.21    2.79
  -3   3   9   25.76    2.69
   3  -3  -9   28.93    5.22
  -3   3   8   25.75    2.50
  -3  -3   8   29.58    2.60
   3  -3  -8   26.39    4.91
   3   3  -8   27.71    4.82
  -3  -3   8   30.54    3.23
   3   3  -7  198.27   13.29
   3  -3  -7  208.23   13.51
   3  -3  -6   54.47    5.55
   3   3  -6   59.14    5.52
   3  -3  -5   92.41    7.32
   3   3  -5  113.90    7.78
  -3  -3   3  776.64   36.45
  -3   3   3  745.01   36.39
  -3   3   2   14.01    2.20
  -3  -3   2   13.45    2.16
  -3  -3   1   71.80    4.73
  -3   3   1   67.14    4.64
  -3   3   0    1.87    1.41
  -3  -3   0    2.52    1.41
  -3   3  -1  383.85   18.94
  -3  -3  -1  386.82   18.95
  -3  -3  -2  169.77    9.30
  -3   3  -2  156.12    9.19
  -3   3  -3  250.58   13.88
  -3  -3  -3  250.98   13.98
  -3  -3  -4   68.63    5.84
  -3   3  -4   60.97    5.63
  -3  -3  -5 1367.64   62.83
   3  -3   5 1411.61   61.90
   3  -3   6  155.71    9.51
  -3  -3  -6  144.63   10.66
  -3   3  -6  132.59   10.45
  -3  -3  -7   16.28    3.97
  -3   3  -7   11.24    3.62
   3  -3   7   15.38    2.67
   3  -3   7   16.01    2.17
  -3  -3  -8   10.60    2.30
   3  -3   8   11.09    2.09
   3   3   8    8.76    1.70
   3  -3   8    9.82    1.76
  -3   3  -8    6.80    3.55
  -3  -3  -8    7.99    3.43
  -3  -3  -9  447.64   21.04
  -3  -3  -9  394.59   25.19
   3   3   9  418.67   20.13
   3  -3   9  406.09   20.05
   3  -3   9  394.28   20.41
  -3   3  -9  391.90   25.16
  -3  -3 -10   19.40    5.20
   3  -3  10   18.71    2.90
   3   3  10   22.11    2.69
  -3   3 -10   19.28    5.17
   3  -3  10   18.70    2.56
   3   3  11   79.41    5.43
   3   3  11   74.21    9.00
   3  -3  11   66.34    8.67
   3  -3  11   84.96    5.48
  -3  -3 -11   65.22    9.16
  -3   3 -11   70.20    9.18
   3  -3  12    5.62    3.17
   3  -3  12    2.62    1.72
  -3   3 -12    1.55    3.49
   3   3  12   -0.64    1.77
   3   3  12    8.64    4.04
  -3  -3 -12    4.67    3.51
  -3   3 -12    3.46    2.52
   3   3  13  101.87    6.35
  -3  -3 -13   92.94    6.33
  -3   3 -13  106.38    7.05
  -3   3 -14    5.24    2.09
  -3  -3 -14    3.22    1.63
   3   3  15    0.57    1.32
  -3   3 -15    0.26    1.46
  -3  -3 -15    0.57    1.15
   3  -3  15    0.64    1.25
  -3  -3 -16    1.82    1.02
   3   3  16    1.96    0.96
  -3   3 -16    1.95    1.00
   3  -4 -16    0.08    1.24
   3  -4 -16    3.07    1.07
   3  -4 -15   10.98    1.97
   3  -4 -15   11.87    2.35
  -3   4  14    0.80    1.24
   3  -4 -14    2.14    1.74
   3  -4 -13    5.93    2.31
   3  -4 -12    8.20    2.56
  -3  -4  12   13.13    2.83
  -3   4  12   12.27    2.09
  -3  -4  12   12.71    2.12
  -3  -4  11   80.27    5.13
  -3   4  11   73.69    5.06
  -3  -4  11   82.59    6.10
  -3  -4  10  171.34    9.68
  -3   4  10  159.74    8.72
   3  -4 -10  152.10   12.87
  -3  -4  10  150.72    8.64
  -3  -4   9   91.98    5.79
   3  -4  -9  111.17    9.73
  -3  -4   9  105.49    6.78
  -3  -4   8   29.33    3.34
   3   4  -8   31.12    4.92
   3  -4  -8   30.67    5.02
   3   4  -7   25.68    4.35
  -3  -4   7   34.72    3.38
   3  -4  -7   26.57    4.42
   3  -4  -6  221.97   13.48
   3   4  -6  191.48   13.00
   3  -4  -6  223.66   11.29
   3  -4  -5    0.28    1.73
   3   4  -5    0.55    1.82
  -3  -4   4   21.54    1.90
   3  -4  -4   21.49    2.89
   3   4  -4   20.23    2.70
  -3  -4   3   35.27    2.46
   3  -4  -3   24.20    2.95
  -3  -4   2    3.64    1.22
   3  -4  -2    5.34    1.45
   3  -4  -1  187.42    9.39
  -3  -4   1  182.22    9.51
  -3  -4   0   70.44    4.37
   3  -4   0   77.91    4.49
  -3  -4  -1   24.29    2.22
  -3  -4  -2    2.98    1.34
  -3  -4  -3  433.63   21.47
  -3   4  -3  427.25   21.38
  -3   4  -4   65.51    5.58
   3  -4   4   60.72    6.22
  -3  -4  -4   78.24    5.93
  -3   4  -5  376.79   21.62
   3  -4   5  388.99   22.02
   3  -4   6  164.46    8.70
  -3   4  -6  190.15   11.75
   3  -4   6  154.74    8.61
  -3  -4  -6  171.56   11.38
  -3  -4  -6  161.16    8.78
   3  -4   7  561.73   27.94
  -3   4  -7  624.35   31.76
  -3  -4  -7  573.56   28.02
   3  -4   7  577.11   28.00
   3  -4   7  650.79   30.82
  -3  -4  -7  620.71   31.84
  -3  -4  -8   21.90    4.88
   3  -4   8   27.36    2.93
   3  -4   8   27.90    2.91
  -3   4  -8   28.55    5.13
  -3  -4  -8   24.37    2.95
  -3  -4  -8   22.93    2.44
   3  -4   9   30.87    2.81
  -3  -4  -9   31.03    5.59
   3  -4   9   27.76    3.07
  -3  -4  -9   33.68    3.41
   3  -4  10   45.82    3.43
  -3  -4 -10   34.52    6.22
   3  -4  10   33.39    5.87
   3   4  10   38.59    3.37
  -3  -4 -10   42.22    4.06
  -3  -4 -11   48.44    7.08
   3   4  11   46.48    3.85
   3  -4  11   50.95    3.88
  -3  -4 -11   52.10    4.37
  -3  -4 -12   49.58    4.20
   3  -4  13    2.04    1.36
   3   4  13   -0.79    1.39
  -3   4 -13    1.38    2.20
  -3  -4 -13    0.15    1.71
   3   4  14    2.27    1.28
  -3  -4 -14    2.17    1.44
  -3   4 -14    0.62    1.72
  -3  -4 -15   14.73    1.68
  -3  -4 -15   14.58    1.61
  -3   4 -15   19.85    2.09
   3  -5 -15    2.21    1.29
   3  -5 -15    3.94    1.66
   3  -5 -14    0.66    2.07
   3  -5 -13    8.77    2.95
  -3  -5  12    9.20    2.52
  -3  -5  11   21.07    3.26
  -3  -5  10    5.99    2.62
  -3  -5   9    4.16    2.56
  -3  -5   8  256.25   13.76
  -3  -5   7  164.40    9.53
  -3  -5   6   27.59    2.87
  -3  -5   5    2.71    1.29
  -3  -5   5    4.07    1.70
  -3  -5   5    0.63    1.97
   3  -5  -5    4.72    1.74
   3  -5  -4   64.69    4.40
  -3  -5   4   63.88    4.15
  -3  -5   4   62.68    4.69
  -3  -5   4   73.76    4.96
   3  -5  -4   67.51    5.50
  -3  -5   3  155.37    8.24
   3  -5  -2   74.33    4.75
   3  -5  -1   18.60    2.18
   3  -5   0   99.81    5.91
   3  -5   1  185.11    9.79
   3  -5   2   22.35    2.50
   3  -5   3   16.27    4.03
   3  -5   4  264.02   14.06
   3  -5   4  277.11   13.87
   3  -5   4  278.32   13.73
  -3  -5  -4  269.87   13.70
   3  -5   4  280.68   13.96
  -3  -5  -4  268.69   13.97
   3  -5   4  294.44   17.34
  -3  -5  -5   97.18    6.21
   3  -5   5   97.60    6.10
   3  -5   5   98.38    6.19
   3  -5   5  101.45    8.69
  -3  -5  -5  100.83    5.98
   3  -5   5  102.97    6.03
   3  -5   5   99.34    6.28
  -3  -5  -6   82.21    5.32
  -3  -5  -6   77.69    4.95
   3  -5   6   75.55    5.03
   3  -5   6   81.47    7.66
   3  -5   6   68.68    5.08
   3  -5   7  178.22    9.48
   3  -5   7  149.69    9.46
  -3  -5  -7  183.50    9.68
  -3  -5  -7  166.54    9.16
   3  -5   8  101.03    6.19
  -3  -5  -8   89.83    6.21
  -3  -5  -8   81.94    5.56
   3  -5   8   95.89    6.33
  -3  -5  -8   94.50    5.79
  -3  -5  -9   48.99    4.20
   3  -5   9   43.69    3.98
   3  -5   9   38.91    3.95
  -3  -5  -9   46.83    3.59
  -3  -5 -10    3.70    1.69
   3  -5  10    5.57    2.20
   3  -5  10    5.49    2.02
  -3  -5 -10    6.34    2.24
  -3  -5 -11    4.77    1.70
  -3  -5 -11    4.23    2.01
  -3  -5 -12    5.85    1.66
  -3  -5 -12    7.78    2.02
   3  -5  13   26.13    2.65
  -3  -5 -13   29.76    2.81
  -3   5 -14   11.85    2.01
  -3   5 -15    1.85    1.00
   3  -6 -14    0.58    1.15
   3  -6 -14    0.11    1.62
   3  -6 -13   12.64    2.61
  -3  -6  12   13.53    2.57
   3  -6 -12   16.36    3.27
  -3  -6  11   -0.70    2.36
   3  -6 -11   -1.98    2.01
   3  -6 -11    0.99    3.02
   3  -6 -10   36.54    3.68
  -3  -6  10   30.69    3.81
   3  -6 -10   32.02    4.64
   3  -6  -9   92.06    6.33
  -3  -6   9   93.97    6.70
  -3  -6   8    4.42    2.59
   3  -6  -8    7.68    2.36
   3  -6  -7   16.14    2.64
  -3  -6   6   46.24    3.66
  -3  -6   6   54.87    4.75
  -3  -6   6   52.77    4.16
   3  -6  -6   56.20    4.37
   3  -6  -6   57.95    5.57
   3  -6  -5  130.14    7.42
   3  -6  -5  105.98    9.24
  -3  -6   5  117.73    7.71
  -3  -6   5  116.42    7.23
   3  -6  -5  142.92    8.84
  -3  -6   4   62.36    5.09
   3  -6  -4   73.53    5.78
  -3  -6   4   67.87    4.70
   3  -6  -4   73.18    7.01
  -3  -6   4   62.14    5.10
   3  -6  -4   64.69    4.72
  -3  -6   3   11.26    2.48
   3  -6  -3    8.52    1.91
  -3  -6   3   10.37    2.09
   3  -6  -3    9.91    1.77
   3  -6  -3    4.15    2.79
  -3  -6   3   14.24    2.47
   3  -6  -3    9.93    2.88
   3  -6  -2  132.16    8.25
   3  -6  -2  121.33    7.23
  -3  -6   2  130.18    7.69
   3  -6  -2  123.16   10.24
  -3  -6   2  121.28    7.47
   3  -6  -2  123.00    7.00
  -3  -6   1  166.02    8.81
   3  -6  -1  151.50    8.16
   3  -6  -1  151.08    8.60
   3  -6  -1  174.94   12.00
  -3  -6   1  154.62    8.55
   3  -6  -1  138.18    8.25
   3  -6  -1  134.32    9.05
  -3  -6   0   17.78    2.67
   3  -6   0   17.14    2.07
  -3  -6   0   16.78    2.10
   3  -6   0   13.22    4.08
   3  -6   0   16.71    2.54
  -3  -6   0   17.47    2.42
   3  -6   0   20.11    3.23
  -3  -6  -1   25.21    2.92
   3  -6   1   20.48    2.42
   3  -6   1   23.94    2.86
   3  -6   1   25.54    5.01
   3  -6   1   23.04    2.57
   3  -6   2  160.36    9.50
   3  -6   2  146.56    8.74
   3  -6   2  175.71    9.43
  -3  -6  -2  170.05    9.01
   3  -6   2  172.65    9.13
   3  -6   2  175.26   12.74
   3  -6   3  126.93    7.62
   3  -6   3  135.83    7.53
  -3  -6  -3  121.91    8.07
   3  -6   3  129.35    7.90
  -3  -6  -3  137.81    7.60
   3  -6   3  136.82    8.19
   3  -6   4    2.77    2.27
   3  -6   4    0.94    1.69
  -3  -6  -4    0.77    2.04
   3  -6   4   -1.25    1.53
   3  -6   4    2.75    3.04
   3  -6   4    0.32    1.87
  -3  -6  -4    1.47    1.64
   3  -6   5    6.62    2.35
  -3  -6  -5    4.89    2.36
   3  -6   5   12.79    2.45
   3  -6   5    8.27    1.90
   3  -6   5    5.86    2.07
   3  -6   5    5.99    3.58
  -3  -6  -5    8.95    2.05
  -3  -6  -5    7.22    2.14
   3  -6   6  100.87    6.60
   3  -6   6  108.17    6.79
  -3  -6  -6   92.02    6.17
  -3  -6  -6   93.41    6.75
   3  -6   6   99.01    6.30
   3  -6   6   98.49    9.44
  -3  -6  -6  107.95    6.74
   3  -6   7   42.16    3.74
   3  -6   7   37.61    4.22
   3  -6   7   45.81    4.18
  -3  -6  -7   44.44    3.62
  -3  -6  -7   34.01    3.86
  -3  -6  -7   32.97    3.63
  -3  -6  -8   94.07    6.94
   3  -6   8  109.78    7.28
   3  -6   8  107.38    7.29
   3  -6   8  117.25    7.02
  -3  -6  -8  117.15    6.76
  -3  -6  -8  111.86    7.25
   3  -6   9    0.88    1.99
   3  -6   9    0.58    1.95
   3  -6   9    1.39    2.12
  -3  -6  -9    3.25    1.50
  -3  -6  -9    3.51    1.35
  -3  -6  -9    4.88    2.15
  -3  -6 -10    3.88    2.08
   3  -6  10    6.82    2.14
   3  -6  10    1.70    2.08
  -3  -6 -10    4.68    1.36
   3  -6  10    4.99    2.02
   3  -6  11   35.21    3.34
  -3  -6 -11   37.26    3.37
   3  -6  11   32.03    3.07
   3  -6  12   36.24    3.12
  -3   6 -13   -0.13    1.71
  -3   6 -14    6.41    1.33
   3  -7 -13    3.36    1.21
   3  -7 -13    4.50    1.67
   3  -7 -12   15.86    2.69
  -3  -7  12   16.56    2.32
   3  -7 -12   18.11    2.09
  -3  -7  11   56.99    4.46
   3  -7 -11   52.49    4.06
   3  -7 -11   60.34    4.95
  -3  -7  10    0.17    2.19
   3  -7 -10    4.52    1.91
   3  -7 -10    3.42    2.91
  -3  -7   9   51.57    4.87
   3  -7  -9   60.60    4.61
   3  -7  -8   74.45    4.93
   3  -7  -8   49.61    3.90
   3  -7  -7   10.50    2.34
   3  -7  -7    6.24    1.67
   3  -7  -6   40.83    3.45
  -3  -7   6   48.53    4.63
   3  -7  -6   43.77    4.00
   3  -7  -6   50.00    5.37
   3  -7  -5    7.32    2.13
   3  -7  -5    3.91    3.32
  -3  -7   5    4.69    2.09
   3  -7  -5    3.59    1.66
  -3  -7   5    3.14    2.52
   3  -7  -4   66.24    7.73
   3  -7  -4   83.71    5.75
  -3  -7   4   75.34    5.95
   3  -7  -4  101.22    7.22
  -3  -7   4   94.77    5.88
   3  -7  -4   81.14    5.26
   3  -7  -3   43.48    3.44
  -3  -7   3   46.28    3.91
  -3  -7   3   41.41    4.07
   3  -7  -3   40.94    5.94
   3  -7  -3   50.71    5.17
   3  -7  -3   40.89    3.80
  -3  -7   3   46.61    4.53
  -3  -7   2    8.33    2.24
   3  -7  -2    9.97    3.58
   3  -7  -2    5.55    1.65
   3  -7  -2    6.09    3.41
  -3  -7   2    3.96    2.58
  -3  -7   2   10.30    2.42
   3  -7  -1    0.13    1.37
   3  -7  -1   -4.62    3.40
  -3  -7   1   -0.19    2.22
  -3  -7   1    1.48    1.89
   3  -7  -1    1.28    2.79
  -3  -7   0  119.10    7.47
   3  -7   0  125.74    7.98
   3  -7   0  118.04    7.13
   3  -7   0  108.03    6.68
   3  -7   0  117.66    7.39
   3  -7   0  105.70   10.27
  -3  -7   0  108.75    6.96
   3  -7   1  185.76   10.54
   3  -7   1  172.24    9.43
   3  -7   1  181.38   10.16
   3  -7   1  170.63   13.92
  -3  -7  -1  166.46   10.11
   3  -7   1  176.63    9.88
   3  -7   2   57.45    4.37
   3  -7   2   52.78    4.01
   3  -7   2   55.20    4.59
   3  -7   2   61.00    7.69
  -3  -7  -2   55.75    4.58
   3  -7   2   49.91    4.82
   3  -7   3   58.65    5.26
  -3  -7  -3   62.61    4.96
   3  -7   3   62.49    4.97
   3  -7   3   64.17    4.75
   3  -7   3   64.81    4.90
   3  -7   3   54.69    4.25
   3  -7   4   68.19    5.54
  -3  -7  -4   61.50    5.13
   3  -7   4   66.46    5.15
   3  -7   4   60.34    7.94
   3  -7   4   60.96    4.86
  -3  -7  -4   64.80    4.94
   3  -7   4   67.17    4.69
  -3  -7  -5  104.53    6.79
   3  -7   5  104.03    6.61
   3  -7   5  114.57    7.18
   3  -7   5  107.82    7.27
   3  -7   6   84.15    6.66
   3  -7   6   94.20    6.00
   3  -7   6   89.67    6.44
   3  -7   6   91.80    6.32
  -3  -7  -7  107.83    7.34
   3  -7   7  114.78    7.47
   3  -7   7  121.94    7.67
   3  -7   7  115.93    7.12
   3  -7   8   13.17    2.38
   3  -7   8   13.35    2.72
   3  -7   8   13.68    2.89
   3  -7   9   62.50    4.68
   3  -7   9   61.46    4.88
   3  -7   9   70.45    5.06
   3  -7  10   27.19    2.97
   3  -7  10   27.29    2.87
   3  -7  11    0.12    1.34
   3  -7  11   -0.10    1.41
  -3   7 -13   23.27    2.05
   3  -8 -11    0.16    1.19
  -3  -8  11   -0.50    1.47
   3  -8 -11    2.27    1.80
  -3  -8  10   27.69    3.01
   3  -8 -10   28.32    2.59
   3  -8 -10   26.63    3.37
   3  -8  -9    6.23    1.82
   3  -8  -9    2.21    2.77
   3  -8  -8    3.80    1.78
   3  -8  -7    5.19    2.01
  -3  -8   7    5.68    2.71
  -3  -8   6   40.45    4.04
   3  -8  -6   37.42    3.56
  -3  -8   5  210.61   11.28
  -3  -8   5  187.01   10.78
   3  -8  -5  203.00   10.82
   3  -8  -5  186.21   12.07
   3  -8  -4    1.12    3.32
  -3  -8   4    3.91    2.39
  -3  -8   4    2.00    1.91
   3  -8  -3   24.33    4.09
  -3  -8   3   18.86    2.71
  -3  -8   3   10.40    2.75
   3  -8  -3    8.89    3.28
  -3  -8   2   16.93    3.22
   3  -8  -2    9.61    3.89
  -3  -8   2   18.38    2.83
   3  -8  -2   18.02    2.80
  -3  -8   2   12.39    2.63
   3  -8  -1   85.66    6.68
   3  -8  -1   87.53    5.84
  -3  -8   1   85.45    5.92
  -3  -8   1   86.99    5.87
   3  -8  -1   92.85    9.18
  -3  -8   1   77.48    6.14
  -3  -8   0    8.34    2.64
   3  -8   0    8.86    2.30
   3  -8   0    7.69    3.16
   3  -8   0    5.00    3.47
  -3  -8   0    8.73    2.20
  -3  -8  -1    0.80    2.14
   3  -8   1    1.82    2.73
   3  -8   1    2.04    2.07
   3  -8   1    1.29    3.18
   3  -8   1   -0.12    1.35
   3  -8   2   40.99    4.41
   3  -8   2   29.84    2.90
   3  -8   2   34.50    3.88
  -3  -8  -2   34.95    4.01
   3  -8   2   36.33    3.89
   3  -8   2   38.47    3.56
   3  -8   3  111.28    7.39
  -3  -8  -3  102.97    6.81
   3  -8   3   96.29    6.07
   3  -8   3  101.95    6.55
   3  -8   3   97.47    6.94
   3  -8   3  105.72    6.89
  -3  -8  -4  192.16   11.51
   3  -8   4  218.47   11.79
   3  -8   4  209.85   11.05
   3  -8   4  228.78   12.23
   3  -8   5   13.08    2.15
   3  -8   5   16.70    3.56
   3  -8   5   14.52    2.88
   3  -8   5   16.22    2.90
  -3  -8  -5   13.09    2.57
  -3  -8  -6   73.32    5.35
   3  -8   6   81.21    5.22
   3  -8   6   79.72    5.76
   3  -8   6   88.64    6.33
   3  -8   6   86.48    5.78
   3  -8   7   41.51    3.39
   3  -8   7   37.36    3.74
   3  -8   7   45.12    4.25
   3  -8   8   57.00    4.31
   3  -8   8   53.62    4.49
   3  -8   9   -0.67    1.52
   3  -8   9   -1.51    1.80
   3  -8  10    0.19    1.37
   3  -8  10   -1.34    1.42
   3  -8  11   24.22    1.94
  -3   8 -12   32.63    2.36
   3  -9 -10    0.14    1.11
   3  -9  -9    0.53    1.54
   3  -9  -9    1.89    1.02
  -3  -9   8   39.70    3.29
   3  -9  -8   35.70    2.73
   3  -9  -7   47.63    3.65
  -3  -9   7   63.83    4.27
  -3  -9   6   16.87    2.61
   3  -9  -6   10.69    1.96
   3  -9  -5    2.45    1.56
  -3  -9   5    0.44    1.90
   3  -9  -4   76.56    5.20
  -3  -9   4   85.16    5.58
  -3  -9   4   76.33    5.27
   3  -9  -3   35.35    4.15
  -3  -9   3   35.32    3.42
   3  -9  -3   40.07    3.36
  -3  -9   3   30.39    3.21
   3  -9  -2    8.10    3.17
  -3  -9   2    9.78    2.25
  -3  -9   2   11.73    2.23
   3  -9  -2   10.01    2.18
   3  -9  -1   -2.55    2.59
  -3  -9   1    0.92    1.88
  -3  -9   1    0.65    1.66
  -3  -9   1    0.18    2.15
   3  -9  -1   -0.29    1.72
   3  -9   0   29.81    3.93
  -3  -9   0   33.89    3.59
  -3  -9   0   28.47    3.17
   3  -9   0   24.62    2.87
   3  -9   1   43.63    4.38
   3  -9   1   29.85    3.11
   3  -9   1   40.26    3.67
  -3  -9  -1   38.51    3.57
  -3  -9  -1   33.56    3.64
   3  -9   2    3.18    2.76
  -3  -9  -2    8.03    2.26
   3  -9   2    4.46    1.78
   3  -9   2    2.69    2.07
  -3  -9  -3   27.99    3.14
   3  -9   3   25.23    3.57
   3  -9   3   32.87    3.41
   3  -9   4   29.03    3.25
  -3  -9  -4   23.04    2.76
   3  -9   4   25.42    3.72
   3  -9   5   30.95    3.65
   3  -9   5   32.55    3.29
   3  -9   6   60.41    4.83
   3  -9   7    8.51    2.17
   3  -9   8   16.09    2.18
   3  -9   9   24.57    2.23
   3 -10  -7    0.73    1.26
  -3 -10   7    0.45    1.11
  -3 -10   6   75.27    4.40
  -3 -10   5    2.10    1.25
   3 -10  -4   33.94    3.40
  -3 -10   4   34.23    2.69
   3 -10  -3   22.51    2.96
   3 -10  -2    6.78    2.39
  -3 -10   2    3.88    1.46
   3 -10  -2    8.25    1.97
   3 -10  -1    0.77    2.15
  -3 -10   1    2.65    1.42
   3 -10  -1    1.66    1.72
   3 -10   0    0.46    2.17
  -3 -10   0    1.24    1.39
   3 -10   0    1.39    2.03
   3 -10   0   -1.53    1.80
   3 -10   1    4.17    2.06
   3 -10   1    4.97    2.18
   3 -10   1    1.63    1.73
  -3 -10  -1    0.41    1.34
  -3 -10  -2   57.99    3.81
   3 -10   2   56.34    4.12
   3 -10   2   56.56    4.44
   3 -10   2   60.35    4.48
  -3 -10  -3    6.59    1.62
   3 -10   3   10.60    1.93
   3 -10   5   14.57    2.17
   3 -10   6   19.67    2.14
   3 -10   7   22.15    1.94
   3 -11  -3    2.71    1.10
   3 -11  -3    6.02    1.00
   3 -11  -2   14.20    1.71
   3 -11  -2   19.78    1.66
   3 -11  -1    5.11    1.14
   3 -11   0   45.38    2.86
   3 -11   1    8.86    1.23
   3 -11   1    9.72    1.34
   3 -11   2    6.09    1.09
  -4   0  17   -0.07    0.91
   4   0 -16    9.14    1.56
  -4   0  15    0.41    1.68
  -4   0  14   42.22    3.93
   4   0 -13    0.86    3.49
  -4   0  13   -0.70    2.08
  -4   0  12    2.12    2.19
   4   0 -12    7.64    4.61
  -4   0  11    3.03    2.05
   4   0 -11   -3.95    4.72
  -4   0  10  264.02   13.85
   4   0 -10  287.89   19.70
  -4   0   9    0.14    1.41
   4   0  -9   -4.84    3.50
   4   0  -8  344.73   20.95
  -4   0   7   -0.10    1.24
  -4   0   6   25.06    2.29
  -4   0   5    0.77    1.00
  -4   0   5    1.31    2.49
  -4   0   4 1939.45   90.29
  -4   0   3    1.21    2.22
  -4   0   2  529.33   26.27
  -4   0   1    2.51    1.94
  -4   0   0 2124.00   97.50
  -4   0  -1   -1.19    2.09
  -4   0  -2  636.85   31.44
  -4   0  -3    2.55    2.59
  -4   0  -4  636.57   32.38
  -4   0  -5    0.38    2.70
  -4   0  -6    8.93    3.87
  -4   0  -7    4.69    3.57
  -4   0  -8  122.37    7.27
   4   0   8  116.21    6.82
   4   0   9    0.28    1.46
  -4   0  -9   -0.70    3.72
  -4   0  -9    0.74    1.81
  -4   0 -10    3.15    4.13
   4   0  10    2.81    1.80
  -4   0 -10    3.90    2.15
  -4   0 -11    0.88    2.14
  -4   0 -11   -2.59    4.53
   4   0  11    1.70    1.83
  -4   0 -12  422.88   21.36
   4   0  12  408.26   20.75
  -4   0 -12  436.25   28.16
   4   0  13   -0.34    1.96
  -4   0 -13   -0.22    2.09
  -4   0 -14   11.12    2.56
   4   0  14    9.25    2.33
  -4   0 -15   -0.31    1.77
   4   0  16    0.94    1.36
   4   0  17    0.51    0.86
  -4  -1  17   -1.73    0.95
  -4   1  17    1.81    0.87
   4  -1 -16    5.84    1.39
   4   1 -16    3.53    1.02
  -4  -1  15    0.53    1.77
  -4   1  15   -0.94    1.80
  -4   1  14   17.31    2.67
  -4  -1  14   17.99    2.74
  -4   1  13    0.69    2.09
  -4  -1  13   -0.52    2.37
   4  -1 -13   -1.70    4.20
  -4  -1  12   12.94    2.62
  -4   1  12    6.31    2.52
   4  -1 -12    1.68    4.42
   4   1 -12    8.37    4.40
   4   1 -11   43.92    7.55
  -4  -1  11   34.87    3.56
  -4   1  11   35.29    3.55
   4  -1 -11   33.86    6.88
  -4   1  10   61.66    4.49
  -4  -1  10   57.25    4.39
   4   1 -10   66.91    8.50
   4  -1 -10   55.13    7.97
  -4  -1   9    2.47    1.57
  -4   1   9    1.65    1.55
  -4  -1   9   -0.17    2.15
   4   1  -9   -2.42    2.86
   4   1  -8   27.99    5.12
  -4  -1   8   30.71    2.86
  -4   1   8   35.85    3.06
  -4  -1   8   33.29    3.43
  -4  -1   7    8.38    1.59
  -4   1   7    6.77    1.54
  -4   1   6   34.18    2.65
  -4  -1   6   37.01    2.69
  -4   1   5   36.66    4.66
  -4  -1   5   28.91    2.35
  -4   1   5   31.03    2.36
  -4  -1   5   33.16    4.49
  -4  -1   4   12.26    3.43
  -4   1   4   10.38    3.30
  -4   1   3   46.84    4.53
  -4  -1   3   39.29    4.44
  -4  -1   2  350.70   18.10
  -4   1   2  344.96   18.01
  -4  -1   1  204.07   11.37
  -4   1   1  202.00   11.35
  -4  -1   0  601.34   29.14
  -4   1   0  596.84   29.16
  -4  -1  -1  188.74   10.35
  -4   1  -1  168.50   10.14
  -4  -1  -2 1719.08   77.98
  -4   1  -2 1626.86   77.80
  -4  -1  -3   12.86    3.37
  -4   1  -3   10.87    3.11
  -4   1  -4   15.31    3.61
  -4  -1  -4   17.98    3.71
  -4   1  -5   25.86    4.50
   4  -1   6  193.67   10.79
  -4   1  -6  278.13   15.21
  -4   1  -7   35.08    5.73
  -4  -1  -8   38.75    3.66
   4  -1   8   35.75    3.19
  -4   1  -8   39.47    6.39
   4  -1   8   39.95    3.17
   4   1   8   37.89    3.14
  -4  -1  -9    6.98    4.18
   4  -1   9    7.04    1.73
   4   1   9    7.39    1.88
   4  -1   9    7.16    1.94
  -4  -1  -9   10.36    2.34
  -4   1  -9    6.97    4.46
   4   1  10  105.32    6.62
  -4   1 -10  115.26   11.73
  -4  -1 -10  108.29    7.21
   4  -1  10  102.91    6.60
  -4  -1 -10   97.38   11.17
  -4   1 -10  107.67    7.20
  -4   1 -11    0.86    4.14
   4   1  11    3.23    1.95
  -4  -1 -11   -1.77    2.30
  -4   1 -11   -0.45    2.27
   4  -1  11    0.84    1.82
  -4  -1 -11   -0.86    4.41
  -4   1 -12   36.70    7.63
  -4   1 -12   41.63    4.55
  -4  -1 -12   43.59    4.43
   4  -1  12   44.68    3.98
  -4  -1 -12   28.68    7.09
   4   1  12   45.96    4.09
  -4  -1 -13   24.22    3.49
   4  -1  13   20.30    2.91
   4   1  13   20.09    2.82
  -4   1 -13   23.02    3.43
  -4   1 -14  171.72    9.96
   4   1  14  174.91    9.55
  -4  -1 -14  162.55    9.81
   4  -1  14  168.66    9.46
  -4   1 -15    0.45    1.67
   4  -1  16   14.64    1.82
  -4  -1 -16   12.42    1.58
   4  -1  17    0.65    0.76
   4   1  17    0.05    0.77
   4  -2 -16    2.74    1.28
  -4   2  16    6.17    1.42
  -4  -2  16    4.48    1.38
   4  -2 -15    1.85    1.50
  -4  -2  14    0.44    1.75
  -4   2  14    1.92    1.90
  -4   2  13    4.94    2.23
  -4  -2  13    7.18    2.23
  -4  -2  12  180.71    9.84
  -4   2  12  178.49    9.87
   4  -2 -12  156.67   14.62
   4  -2 -11    6.94    4.50
  -4  -2  11   10.86    2.37
  -4   2  11   12.25    2.42
   4   2 -11    9.18    4.32
   4  -2 -10   14.73    4.98
  -4   2  10    8.31    2.30
  -4  -2  10   13.21    3.14
  -4  -2  10   10.26    2.29
  -4   2   9   15.68    2.23
  -4  -2   9   10.81    2.50
  -4  -2   9   14.09    2.21
   4  -2  -9   13.98    4.33
   4   2  -9   13.89    4.26
  -4  -2   8  151.03    8.49
  -4   2   8  153.60    8.55
  -4  -2   8  170.12    9.10
   4   2  -8  165.86   12.21
   4  -2  -8  167.86   12.59
   4   2  -7   20.83    4.03
   4  -2  -7   10.25    3.57
  -4  -2   6   79.04    4.68
  -4   2   6   81.54    4.68
  -4  -2   5   19.11    3.50
  -4   2   5   21.37    1.90
  -4  -2   5   16.82    1.75
  -4   2   5   21.96    3.77
  -4   2   4  421.11   21.74
  -4  -2   4  402.05   21.54
  -4  -2   3   20.33    3.12
  -4   2   3   22.05    3.17
  -4  -2   2    9.78    2.36
  -4   2   2    9.91    2.55
  -4  -2   1  128.29    7.81
  -4   2   1  121.21    7.77
  -4  -2   0  665.45   32.23
  -4   2   0  671.48   32.28
  -4  -2  -1   49.13    4.37
  -4   2  -1   49.56    4.35
  -4   2  -2   11.74    2.67
  -4  -2  -2    8.40    2.47
  -4  -2  -3  316.65   17.30
  -4   2  -3  304.65   17.10
  -4  -2  -4  557.92   28.62
  -4   2  -4  548.68   28.69
  -4  -2  -5  237.07   15.03
  -4   2  -5  233.96   14.72
  -4  -2  -6   30.86    5.03
  -4   2  -6   22.96    4.72
   4  -2   6   28.11    3.18
  -4   2  -7   50.44    6.57
  -4  -2  -7   50.14    6.46
   4  -2   7   38.25    3.65
  -4   2  -8  383.74   24.37
   4  -2   8  384.21   19.66
   4   2   8  401.62   19.59
   4  -2   8  413.22   19.57
  -4  -2  -8  451.16   25.26
  -4  -2  -8  410.19   20.20
  -4   2  -9   18.05    5.10
   4  -2   9   24.53    2.89
  -4  -2  -9   24.30    3.05
   4   2   9   22.36    2.57
   4  -2   9   23.02    2.57
  -4  -2  -9   24.39    5.97
  -4   2 -10   16.21    5.53
   4  -2  10   24.50    3.18
  -4  -2 -10   25.56    6.22
   4  -2  10   21.77    2.69
  -4  -2 -10   16.93    3.07
   4   2  10   20.03    2.66
  -4   2 -11   17.24    3.14
   4  -2  11   15.71    2.45
  -4  -2 -11   13.32    5.08
  -4   2 -11   11.63    5.07
   4   2  11   15.07    2.44
  -4  -2 -11   11.93    2.93
   4  -2  12  159.98    9.10
  -4  -2 -12  151.47    9.70
  -4   2 -12  156.68    9.69
   4   2  12  156.95    9.07
  -4   2 -12  162.67   14.85
  -4  -2 -12  166.50   14.86
  -4   2 -13   -0.22    2.07
   4   2  13    0.16    1.77
   4  -2  13    0.16    1.68
  -4   2 -14   31.48    3.46
   4  -2  14   32.27    3.14
   4   2  14   31.48    3.20
  -4  -2 -15    6.56    1.61
  -4   2 -15    6.86    1.92
   4  -2  16   28.56    2.23
  -4   2 -16   27.47    2.42
   4   2  16   30.65    2.31
  -4  -2 -16   24.35    2.08
   4  -3 -16    8.32    1.40
  -4   3  16    5.88    1.09
  -4  -3  15   -0.30    1.27
  -4   3  15    2.31    1.32
   4  -3 -15   -0.23    1.44
   4  -3 -14   41.13    3.67
  -4  -3  13    9.98    2.15
   4  -3 -13   10.80    2.45
  -4   3  13    9.43    2.22
  -4  -3  12    2.49    1.89
  -4   3  12    4.10    1.99
   4  -3 -12    4.52    4.03
   4   3 -12    5.19    3.74
   4   3 -11    0.72    3.35
  -4  -3  11    3.11    2.46
   4  -3 -11    3.66    3.62
  -4  -3  11    2.34    1.86
  -4   3  11    2.21    1.84
  -4   3  10  247.62   12.39
  -4  -3  10  230.52   12.27
   4  -3 -10  222.67   17.19
  -4  -3  10  231.46   12.95
   4   3 -10  211.56   16.58
   4   3  -9   33.83    5.56
  -4   3   9   35.25    3.15
  -4  -3   9   42.24    4.04
  -4  -3   9   33.39    3.07
  -4  -3   8  131.87    7.31
  -4   3   8  128.91    7.29
  -4  -3   8  134.42    7.94
   4  -3  -8  117.12   10.34
   4   3  -8  135.39   11.00
   4   3  -7   15.10    3.60
  -4  -3   7   14.56    2.41
   4  -3  -7   19.25    4.02
   4  -3  -6  397.14   22.44
   4   3  -6  415.46   22.44
  -4  -3   5  123.41    6.46
  -4   3   5  124.73    6.49
  -4  -3   4  186.55    9.13
  -4   3   4  193.68   11.53
  -4  -3   4  188.06   11.38
  -4   3   4  182.36    9.11
  -4  -3   3  244.53   13.54
  -4   3   3  237.03   13.54
  -4  -3   2  543.18   27.73
  -4   3   2  589.44   27.95
  -4  -3   1   37.07    3.66
  -4   3   1   37.34    3.71
  -4  -3   0  311.24   15.43
  -4   3   0  276.29   15.21
  -4  -3  -1    1.20    1.77
  -4   3  -1   -0.20    1.75
  -4   3  -2 1155.77   55.03
  -4  -3  -2 1183.49   55.11
  -4   3  -3   56.28    5.44
  -4  -3  -3   64.40    5.67
  -4   3  -4  660.56   33.27
  -4  -3  -4  650.00   33.23
  -4  -3  -5   23.66    4.15
  -4   3  -5   25.50    4.28
   4  -3   6  537.67   29.41
  -4  -3  -6  622.06   31.72
  -4   3  -6  641.55   31.92
  -4   3  -7   28.23    5.04
   4  -3   7   28.52    2.76
  -4  -3  -7   25.79    4.82
   4  -3   7   24.34    3.41
  -4  -3  -7   28.37    3.19
  -4   3  -8   11.52    4.02
   4  -3   8   16.19    2.41
   4  -3   8   13.25    2.03
  -4  -3  -8   22.63    4.98
   4   3   8   15.03    2.09
  -4  -3  -8   18.99    2.78
  -4   3  -9   12.87    4.45
  -4  -3  -9   11.60    4.44
   4   3   9   10.93    1.95
   4  -3   9    9.34    2.28
   4  -3   9   11.31    2.00
  -4  -3  -9   13.41    2.73
   4  -3  10  543.86   25.57
   4  -3  10  517.69   25.89
   4   3  10  534.31   25.61
  -4  -3 -10  500.73   31.39
  -4   3 -10  504.10   31.43
   4   3  11    9.86    2.20
  -4  -3 -11    5.38    4.19
  -4   3 -11   11.46    4.44
   4  -3  11    8.61    2.11
  -4   3 -12   33.71    3.98
   4  -3  12   35.30    3.39
   4   3  12   36.69    3.44
   4  -3  13   10.31    2.03
   4   3  13   10.64    2.00
  -4   3 -13    8.14    2.50
  -4  -3 -13    9.14    2.21
  -4  -3 -14   73.76    5.09
  -4   3 -14   84.21    5.61
   4  -3  15    3.86    1.25
   4   3  15    5.08    1.32
  -4   3 -15    4.06    1.66
  -4  -3 -15    2.85    1.30
   4   3  16    6.27    1.02
  -4   3 -16   10.08    1.34
   4  -4 -16   17.19    1.53
   4  -4 -16   11.10    1.78
   4  -4 -15   12.24    1.88
   4  -4 -15   10.78    2.38
   4  -4 -14    3.44    1.83
   4  -4 -13   33.79    3.42
  -4  -4  13   29.76    2.75
  -4   4  13   30.30    2.78
  -4  -4  12   33.59    3.95
   4  -4 -12   32.99    3.70
  -4  -4  11    9.05    1.85
  -4  -4  11   15.81    3.31
   4  -4 -11   13.65    2.79
   4  -4 -10   30.81    5.49
  -4   4  10   20.80    2.55
  -4  -4  10   17.95    3.43
  -4  -4  10   27.49    2.69
   4  -4 -10   27.98    3.36
  -4  -4   9   -0.78    2.40
   4  -4  -9    1.15    2.67
   4  -4  -9    0.71    1.93
  -4  -4   9    1.77    1.48
  -4  -4   8   18.29    2.19
   4   4  -8   19.71    4.15
   4  -4  -8   25.53    2.96
  -4  -4   8   22.33    3.06
   4  -4  -8   25.14    4.67
   4   4  -7    0.88    2.12
   4  -4  -7    1.65    1.59
   4  -4  -7    1.77    2.57
   4  -4  -6   31.46    2.96
   4   4  -6   30.03    4.09
   4  -4  -6   33.18    4.42
   4   4  -5   36.12    4.29
   4  -4  -5   32.74    4.22
   4  -4  -5   42.11    3.21
   4  -4  -3    4.43    1.32
  -4   4   2    1.17    1.42
   4  -4  -2    0.66    1.10
  -4  -4   2    0.19    1.41
   4  -4  -1  422.69   19.25
  -4  -4   1  390.70   19.97
  -4   4   1  380.85   19.93
  -4   4   0 1694.51   82.11
  -4  -4   0 1783.65   82.23
   4  -4   0 1850.95   81.43
  -4   4  -1   -0.18    1.44
  -4  -4  -1    0.71    1.28
  -4  -4  -2   17.71    2.55
  -4   4  -2   20.70    2.69
  -4  -4  -3  315.36   16.47
  -4   4  -3  295.89   16.26
  -4  -4  -4 1473.11   67.56
  -4   4  -4 1386.76   67.28
  -4  -4  -5   14.33    3.30
  -4   4  -5   17.87    3.41
   4  -4   5   14.97    3.45
  -4  -4  -6   38.29    5.05
  -4   4  -6   34.05    4.89
   4  -4   6   37.09    4.77
   4  -4   6   34.03    2.97
  -4  -4  -6   28.89    3.01
  -4  -4  -7   15.49    3.83
  -4   4  -7   12.17    3.73
   4  -4   7   11.43    2.88
  -4  -4  -7   11.25    2.20
   4  -4   8  330.54   16.12
  -4  -4  -8  364.31   21.20
  -4   4  -8  306.36   20.39
  -4  -4  -8  321.05   16.72
  -4  -4  -9   70.45    4.67
  -4  -4  -9   54.58    7.68
   4  -4   9   70.55    5.12
   4  -4   9   67.83    4.57
  -4  -4  -9   67.37    5.15
  -4  -4 -10   15.00    2.09
   4  -4  10   14.57    2.20
   4   4  10   13.85    2.16
  -4  -4 -10   15.14    4.60
   4  -4  10   14.55    2.83
  -4  -4 -10   16.18    2.69
   4   4  11   24.47    2.77
   4  -4  11   29.03    2.84
   4  -4  11   28.87    3.47
  -4  -4 -11   34.58    3.49
   4   4  12   99.80    6.24
   4  -4  12  101.68    6.19
  -4  -4 -12  116.48    6.94
  -4   4 -13    9.66    2.49
  -4  -4 -13    9.18    2.12
  -4   4 -14   10.42    2.32
  -4  -4 -14   15.02    2.04
  -4   4 -15    8.19    1.55
  -4  -4 -15    5.10    1.17
   4  -5 -15   13.16    1.58
   4  -5 -15    9.20    1.87
   4  -5 -14   44.50    3.36
   4  -5 -14   38.80    3.97
   4  -5 -13    1.40    1.74
  -4  -5  12   19.62    3.04
   4  -5 -12   15.13    2.67
  -4  -5  11   37.34    4.22
   4  -5 -11   39.12    3.86
  -4  -5  10   38.39    4.36
   4  -5 -10   43.50    4.08
  -4  -5   9    0.40    2.29
   4  -5  -9    0.74    2.08
  -4  -5   8    7.41    2.81
   4  -5  -8    5.00    2.23
   4  -5  -7   50.74    4.15
  -4  -5   6  326.50   16.25
   4  -5  -6  305.92   15.95
  -4  -5   5    1.51    1.40
  -4  -5   5   -0.79    1.91
   4  -5  -5    0.23    2.44
  -4  -5   4    2.05    1.85
   4  -5  -4    3.42    2.31
   4  -5  -3  259.28   13.94
   4  -5  -2  204.84   10.68
   4  -5  -1   87.16    5.37
   4  -5   0   10.42    1.98
   4  -5   1  172.46    9.31
   4  -5   2  373.52   17.92
  -4  -5  -2  350.33   17.72
   4  -5   3  264.82   13.82
   4  -5   3  274.47   13.66
  -4  -5  -3  268.21   13.70
   4  -5   3  309.88   17.76
   4  -5   3  267.80   13.73
  -4  -5  -3  277.57   13.91
   4  -5   4   92.81    5.74
   4  -5   4   98.45    6.03
   4  -5   4   95.86    5.89
   4  -5   4   86.54    5.60
   4  -5   4   75.45    8.14
  -4  -5  -4   93.99    5.66
   4  -5   5   38.42    3.67
   4  -5   5   43.76    3.57
   4  -5   5   48.21    3.71
   4  -5   5   46.36    5.76
   4  -5   5   33.96    3.57
  -4  -5  -5   47.01    3.57
  -4  -5  -5   43.88    3.71
   4  -5   6   82.67    5.49
   4  -5   6   81.49    5.36
   4  -5   6   78.40    7.79
  -4  -5  -6   84.87    5.31
  -4  -5  -6   76.84    5.61
   4  -5   7    1.32    1.84
   4  -5   7   -0.45    2.27
  -4  -5  -7    1.64    1.57
  -4  -5  -7    1.09    1.92
   4  -5   8    1.52    2.22
   4  -5   8    1.23    2.00
  -4  -5  -8    3.59    1.64
  -4  -5  -8    4.37    2.19
   4  -5   9   47.87    4.24
  -4  -5  -9   40.26    4.05
   4  -5   9   46.33    3.96
  -4  -5  -9   44.64    3.57
  -4  -5 -10  133.90    7.28
  -4  -5 -10  117.78    7.08
  -4  -5 -10  131.77    7.99
  -4  -5 -11   32.75    2.90
  -4  -5 -11   45.06    3.92
  -4  -5 -12    7.88    2.05
  -4   5 -13    3.64    2.09
   4  -5  13    4.46    1.54
  -4  -5 -13    3.70    1.59
  -4   5 -14   67.83    4.58
  -4   5 -15    8.89    1.27
   4  -6 -14    1.34    1.51
   4  -6 -13   33.21    3.52
  -4  -6  12   21.40    2.93
  -4  -6  11    2.96    2.51
  -4  -6  10    8.38    2.84
  -4  -6   9   17.29    3.23
   4  -6  -9   23.47    4.38
   4  -6  -8  103.70    8.06
  -4  -6   7    0.98    2.39
   4  -6  -7    0.86    3.34
  -4  -6   6   -0.38    2.46
   4  -6  -6    2.48    3.06
   4  -6  -5  178.24   10.20
   4  -6  -5  118.84   10.61
  -4  -6   5  158.73    9.01
  -4  -6   5  142.49    8.44
   4  -6  -4  265.62   17.15
  -4  -6   4  258.76   13.88
   4  -6  -4  265.21   13.82
  -4  -6   4  255.42   13.51
   4  -6  -4  287.26   14.91
  -4  -6   3   15.21    2.54
  -4  -6   3   13.47    2.19
   4  -6  -3   12.19    2.29
   4  -6  -3   15.14    2.23
  -4  -6   3   16.73    2.74
   4  -6  -3   15.74    3.33
   4  -6  -2   21.68    2.49
  -4  -6   2   18.64    2.65
   4  -6  -2   22.31    2.69
  -4  -6   2   22.28    2.55
   4  -6  -2   18.47    3.27
  -4  -6   2   29.92    3.22
  -4  -6   1   24.60    2.92
   4  -6  -1   22.71    2.52
   4  -6  -1   19.99    2.66
  -4  -6   1   18.56    2.58
  -4  -6   1   22.19    2.37
   4  -6  -1   21.47    3.46
   4  -6   0  146.16    9.26
  -4  -6   0  156.06    8.71
   4  -6   0  152.81    8.70
   4  -6   0  168.42   12.47
  -4  -6   0  156.01    8.45
   4  -6   0  147.39    8.38
  -4  -6  -1   53.99    4.49
   4  -6   1   58.43    4.84
  -4  -6  -1   65.69    4.42
   4  -6   1   66.36    4.39
   4  -6   1   58.85    4.55
   4  -6   1   68.45    4.82
   4  -6   1   62.97    7.57
  -4  -6  -2    6.76    1.94
   4  -6   2    2.74    1.51
   4  -6   2    6.59    1.89
   4  -6   2    8.04    2.21
   4  -6   2    4.54    2.30
   4  -6   3   -0.36    2.03
   4  -6   3    3.56    1.94
   4  -6   3    2.00    1.51
   4  -6   3    0.36    1.87
   4  -6   3    0.57    3.50
  -4  -6  -3    2.56    1.63
   4  -6   3    4.11    1.88
   4  -6   4  114.55    7.28
   4  -6   4  119.85    7.20
   4  -6   4  113.32    7.36
   4  -6   4  112.95    6.90
   4  -6   4  114.67   10.34
   4  -6   4  118.51    7.11
  -4  -6  -4  117.04    6.98
   4  -6   5   35.18    3.50
   4  -6   5   35.94    3.86
   4  -6   5   31.71    5.72
   4  -6   5   30.40    3.41
  -4  -6  -5   36.34    3.32
  -4  -6  -5   40.29    3.84
   4  -6   5   36.53    3.37
   4  -6   5   30.40    3.51
  -4  -6  -6    7.07    2.37
   4  -6   6    6.62    2.02
   4  -6   6    7.60    3.43
  -4  -6  -6    8.30    2.18
   4  -6   6    7.04    2.28
   4  -6   7   64.93    4.85
  -4  -6  -7   56.29    4.54
   4  -6   7   64.69    5.06
  -4  -6  -7   60.74    5.04
   4  -6   8  127.10    8.05
  -4  -6  -8  137.46    7.85
   4  -6   8  132.83    8.10
  -4  -6  -8  135.53    8.26
  -4  -6  -9  120.54    7.54
   4  -6   9  125.52    7.57
   4  -6   9  114.70    7.23
  -4  -6  -9  122.84    7.09
   4  -6  10    3.53    2.05
   4  -6  10    3.07    2.01
   4  -6  10    0.53    1.68
  -4  -6 -10    3.74    1.41
  -4  -6 -10    4.56    2.05
  -4  -6 -11    4.15    1.93
   4  -6  11    4.85    1.88
   4  -6  12   66.25    4.49
  -4   6 -13   73.90    4.85
  -4   6 -14    2.53    1.17
   4  -7 -13    9.46    1.35
   4  -7 -13    8.50    1.77
   4  -7 -12    4.00    1.45
  -4  -7  12   -0.77    1.69
   4  -7 -12    1.72    2.16
  -4  -7  11   19.51    2.88
   4  -7 -11   26.04    2.75
  -4  -7  10   22.19    3.11
   4  -7 -10   27.48    2.95
   4  -7  -9   28.28    3.28
   4  -7  -9   30.61    4.51
   4  -7  -8    0.37    1.45
   4  -7  -8    1.05    2.16
   4  -7  -8    2.14    3.22
   4  -7  -7   33.61    3.22
  -4  -7   7   36.16    4.07
   4  -7  -7   41.63    3.99
   4  -7  -7   44.33    5.04
   4  -7  -6   49.67    4.53
   4  -7  -6   52.37    4.08
  -4  -7   6   64.28    4.99
   4  -7  -6   54.79    5.95
   4  -7  -5   31.63    4.44
   4  -7  -5   27.69    2.86
  -4  -7   5   26.93    3.40
  -4  -7   5   30.80    3.16
   4  -7  -5   25.29    3.16
   4  -7  -4    3.96    1.76
   4  -7  -4    2.07    3.09
  -4  -7   4    3.62    2.33
  -4  -7   4    3.87    2.00
   4  -7  -4    1.77    2.04
   4  -7  -4    3.55    3.31
   4  -7  -3   84.48    6.69
   4  -7  -3   78.21    5.06
  -4  -7   3   68.63    5.16
   4  -7  -3   69.74    8.14
  -4  -7   3   73.20    5.49
   4  -7  -3   74.74    5.41
  -4  -7   2  289.97   16.00
   4  -7  -2  316.97   15.46
   4  -7  -2  277.63   19.35
  -4  -7   2  312.25   15.77
  -4  -7   2  303.30   15.61
   4  -7  -2  322.31   17.03
   4  -7  -1  155.62    8.58
  -4  -7   1  149.54    8.73
  -4  -7   1  154.08    8.73
   4  -7  -1  163.78   10.02
   4  -7  -1  139.13   12.26
  -4  -7   1  151.17    9.11
  -4  -7   0    4.82    2.12
   4  -7   0    4.35    2.67
   4  -7   0    4.57    1.84
   4  -7   0    1.87    3.39
   4  -7   0    2.25    2.16
   4  -7   0    4.33    1.98
  -4  -7  -1  145.52    8.52
   4  -7   1  142.65    8.87
   4  -7   1  136.12    8.47
   4  -7   1  138.64    8.08
   4  -7   1  146.64    8.73
   4  -7   1  149.85   12.54
  -4  -7  -2   61.14    5.17
   4  -7   2   73.02    5.73
   4  -7   2   77.13    5.43
   4  -7   2   75.44    5.58
   4  -7   2   76.82    8.68
   4  -7   2   82.29    5.18
   4  -7   3  247.65   14.49
  -4  -7  -3  293.30   14.41
   4  -7   3  281.71   14.38
   4  -7   3  270.43   13.99
   4  -7   3  274.78   14.58
   4  -7   3  281.99   14.42
  -4  -7  -3  256.68   14.15
   4  -7   4  142.89    8.59
  -4  -7  -4  120.96    7.87
   4  -7   4  130.16    8.05
   4  -7   4  127.02    8.25
  -4  -7  -4  134.68    7.98
   4  -7   4  125.80   11.66
   4  -7   4  146.44    8.24
   4  -7   4  140.88    7.88
   4  -7   5  133.77    8.16
   4  -7   5  134.73    7.85
   4  -7   5  129.75    8.40
   4  -7   5  126.60   11.53
   4  -7   5  125.77    8.32
  -4  -7  -5  142.14    8.07
   4  -7   6  289.64   14.70
  -4  -7  -6  283.65   14.72
   4  -7   6  275.64   14.79
   4  -7   7   83.89    5.49
   4  -7   7   71.43    5.66
   4  -7   7   79.29    5.88
  -4  -7  -7   75.36    5.33
   4  -7   8    2.08    1.87
   4  -7   8    0.96    2.11
   4  -7   8    1.89    2.16
   4  -7   9   26.14    2.91
   4  -7   9   28.77    3.25
   4  -7   9   25.72    2.98
   4  -7  10   80.09    5.22
   4  -7  10   73.31    4.82
   4  -7  11   71.84    4.66
  -4   7 -12    0.71    1.42
  -4   7 -13    1.67    0.96
  -4  -8  11   -0.65    1.43
   4  -8 -10    4.94    1.57
   4  -8  -9   42.65    3.45
  -4  -8   8   94.98    6.33
   4  -8  -8  108.24    6.14
   4  -8  -7    4.84    3.07
   4  -8  -7    6.09    2.07
  -4  -8   7    4.49    2.32
   4  -8  -6    5.97    2.25
  -4  -8   6    7.78    2.51
   4  -8  -6    8.98    3.56
  -4  -8   5   34.29    3.80
   4  -8  -5   40.97    4.86
  -4  -8   4   55.63    4.37
   4  -8  -4   40.34    3.29
  -4  -8   4   45.42    3.82
   4  -8  -4   50.33    5.47
   4  -8  -3   27.00    2.59
  -4  -8   3   28.50    3.21
   4  -8  -3   16.07    4.26
  -4  -8   3   20.46    2.75
   4  -8  -3   29.28    4.43
   4  -8  -2   -0.35    2.05
   4  -8  -2    0.13    1.43
   4  -8  -2   -0.58    2.55
  -4  -8   2   -1.55    2.03
  -4  -8   2    0.47    1.71
   4  -8  -1  201.17   10.84
   4  -8  -1  179.88    9.96
   4  -8  -1  174.29    9.29
  -4  -8   1  160.92    9.37
   4  -8  -1  145.45   13.12
  -4  -8   1  162.40    9.53
  -4  -8   1  175.09   10.02
   4  -8   0   34.13    4.11
   4  -8   0   31.76    3.43
   4  -8   0   28.06    2.90
   4  -8   0   29.22    5.69
  -4  -8   0   34.62    3.32
  -4  -8   0   34.83    3.70
  -4  -8  -1  106.20    7.25
   4  -8   1  130.36    8.12
   4  -8   1  115.33    6.83
   4  -8   1  123.12    7.68
   4  -8   1  106.19   10.80
   4  -8   1  115.57    7.36
   4  -8   2   15.13    3.18
   4  -8   2   14.85    2.58
  -4  -8  -2   11.45    2.61
   4  -8   2   18.95    2.33
   4  -8   2   16.10    2.81
   4  -8   2   18.20    4.73
   4  -8   2   16.31    2.84
   4  -8   3   50.32    4.93
  -4  -8  -3   47.97    4.34
   4  -8   3   61.88    4.71
   4  -8   3   60.88    4.22
   4  -8   3   53.26    4.76
   4  -8   3   60.10    4.70
   4  -8   4   20.09    3.25
  -4  -8  -4   12.66    2.39
   4  -8   4   22.76    2.52
   4  -8   4   21.77    3.25
   4  -8   4   22.46    2.90
   4  -8   5   83.53    5.48
   4  -8   5   88.11    5.88
   4  -8   6    7.24    1.82
   4  -8   6    7.59    2.85
   4  -8   7   16.27    2.89
   4  -8   7   24.17    2.50
   4  -8   7   19.25    2.80
   4  -8   8   39.03    3.32
   4  -8   8   45.55    3.85
   4  -8   9   93.13    5.77
   4  -8   9   95.47    5.65
   4  -8  10   22.21    2.15
   4  -8  10   16.61    1.89
   4  -9 -10   -0.31    0.96
   4  -9  -9   10.72    1.41
  -4  -9   9   17.02    1.91
   4  -9  -8   28.71    2.59
  -4  -9   8   38.00    3.01
   4  -9  -7   28.96    2.68
  -4  -9   7   36.68    3.06
   4  -9  -6    7.38    2.54
   4  -9  -6    4.99    1.70
  -4  -9   6    6.82    2.02
   4  -9  -5   27.14    3.60
   4  -9  -5   32.00    3.03
  -4  -9   5   31.35    3.09
   4  -9  -4    3.07    2.49
   4  -9  -4    0.96    1.66
  -4  -9   4    0.26    1.74
   4  -9  -3  111.10    7.14
   4  -9  -3  102.86    6.41
  -4  -9   3   98.30    6.05
  -4  -9   3  102.88    6.19
   4  -9  -2   42.83    3.61
   4  -9  -2   39.80    4.39
  -4  -9   2   40.57    3.39
   4  -9  -1   44.34    4.37
   4  -9  -1   52.76    3.93
  -4  -9   1   39.86    3.48
  -4  -9   0    5.92    1.80
   4  -9   0    6.07    2.67
   4  -9   0    6.54    2.05
   4  -9   0    9.71    2.36
   4  -9   1   38.14    3.46
   4  -9   1   39.31    3.71
  -4  -9  -1   32.20    3.16
   4  -9   1   34.74    4.00
  -4  -9  -1   38.87    3.45
   4  -9   2   48.24    4.39
   4  -9   2   47.79    3.79
   4  -9   2   51.71    4.12
  -4  -9  -2   38.64    3.53
   4  -9   3    4.89    2.55
   4  -9   3    5.24    1.99
   4  -9   4    9.61    2.06
   4  -9   4    7.71    2.59
   4  -9   5   19.69    2.89
   4  -9   6   20.05    2.73
   4  -9   7   44.27    3.54
   4  -9   8    0.71    1.32
   4  -9   9    0.40    0.91
   4 -10  -6    0.09    1.43
   4 -10  -5    5.35    1.83
   4 -10  -4    1.46    1.74
   4 -10  -4   -0.78    1.36
   4 -10  -3    0.39    1.84
   4 -10  -3    0.57    1.19
   4 -10  -3    0.32    1.44
   4 -10  -2    2.59    1.86
   4 -10  -2   -0.69    1.24
   4 -10  -2   -0.33    1.43
   4 -10  -1   52.21    3.83
   4 -10  -1   58.90    4.30
   4 -10  -1   50.46    3.47
   4 -10   0   21.15    2.73
   4 -10   0   18.52    2.34
   4 -10   1   55.80    3.79
   4 -10   1   58.80    4.14
   4 -10   2    2.01    1.51
   4 -10   3   13.82    1.89
   4 -10   4   12.70    2.15
   4 -10   5   20.34    2.25
   4 -10   6    5.32    1.36
   4 -10   7    4.33    1.01
  -5   0  17    8.69    1.14
  -5   0  16   -0.50    1.29
   5   0 -15    5.60    1.43
  -5   0  14    1.08    1.91
  -5   0  13    1.55    2.10
   5   0 -12    2.52    3.89
  -5   0  12   -1.07    2.17
  -5   0  11  336.41   17.20
   5   0 -11  330.95   23.28
   5   0 -10   -0.72    3.75
  -5   0  10   -0.16    1.86
  -5   0   9  143.07    8.03
   5   0  -9  115.85   11.29
  -5   0   8    0.26    1.41
   5   0  -8   -1.67    3.22
  -5   0   7  979.94   45.32
  -5   0   6    2.59    3.14
  -5   0   6    0.70    1.28
  -5   0   5  231.81   11.54
  -5   0   5  243.28   14.54
  -5   0   4   -1.31    2.49
  -5   0   3  544.79   27.82
  -5   0   2   -1.33    2.31
  -5   0   1   18.69    3.32
  -5   0   0    0.99    2.22
  -5   0  -1 1036.22   49.46
  -5   0  -3   34.62    4.78
  -5   0  -4    1.16    2.92
  -5   0  -5 1356.44   65.97
  -5   0  -6    1.51    3.37
  -5   0  -7   60.74    7.47
  -5   0  -8   -4.63    3.89
   5   0   8   -0.40    1.44
  -5   0  -9  666.80   31.76
   5   0   9  648.87   31.12
  -5   0  -9  647.86   37.62
  -5   0 -10   -3.30    5.06
  -5   0 -10    0.65    2.23
   5   0  10    0.32    1.73
  -5   0 -11   -0.88    4.70
  -5   0 -11   -0.68    2.54
   5   0  11    0.52    2.09
  -5   0 -12    0.90    3.95
  -5   0 -12   -0.46    2.28
   5   0  12    0.53    1.83
  -5   0 -13   17.22    3.10
   5   0  13   19.66    2.75
  -5   0 -14   -0.56    2.07
   5   0  14   -1.62    2.02
  -5   0 -15    1.46    1.75
   5   0  15    1.19    1.50
   5   0  16   -1.14    1.16
  -5   1  17    5.83    0.95
  -5  -1  17    5.48    0.96
  -5  -1  16    1.14    1.29
  -5   1  16    2.57    1.30
   5  -1 -16   -0.32    0.91
   5  -1 -15    8.65    1.70
  -5   1  14    0.61    1.87
  -5  -1  13   16.53    2.88
  -5   1  13   18.31    2.81
  -5   1  12  147.33    8.74
  -5  -1  12  151.44    8.82
   5  -1 -12  128.85   13.33
   5   1 -12  148.82   13.92
   5   1 -11  137.98   13.43
  -5  -1  11  145.68    8.52
  -5   1  11  146.86    8.51
   5  -1 -11  113.11   12.41
  -5   1  10    1.62    1.90
  -5  -1  10    3.55    2.05
   5   1 -10    4.98    3.87
   5  -1 -10   -2.14    4.14
  -5  -1   9   74.33    5.12
  -5   1   9   75.19    5.09
   5   1  -9   87.62    9.06
  -5   1   8   13.22    2.04
  -5  -1   8   12.27    2.07
  -5  -1   8   13.26    2.57
   5   1  -8   17.78    4.56
  -5  -1   7   74.11    4.74
  -5   1   7   73.47    4.71
  -5  -1   6   25.76    2.41
  -5  -1   6   31.90    5.24
  -5   1   6   30.68    2.53
  -5   1   6   26.47    4.58
  -5  -1   5  625.38   30.10
  -5   1   5  658.65   30.14
  -5  -1   5  664.75   33.38
  -5   1   5  689.38   33.70
  -5  -1   4  177.67   11.50
  -5   1   4  178.64   11.57
  -5  -1   3   32.49    4.47
  -5   1   3   33.34    4.41
  -5  -1   2  131.74    8.84
  -5   1   2  134.40    9.00
  -5  -1   1 1298.54   62.50
  -5   1   1 1358.53   62.60
  -5  -1   0   16.33    3.19
  -5   1   0   24.93    3.54
  -5  -1  -1   99.39    7.10
  -5   1  -1   89.97    6.83
  -5  -1  -2    1.94    2.71
  -5   1  -2    5.29    2.74
  -5   1  -3  515.78   26.87
  -5  -1  -3  508.65   26.90
  -5  -1  -4  331.42   19.18
  -5   1  -4  329.01   19.07
  -5   1  -5   30.52    4.93
  -5   1  -6    1.52    3.07
  -5   1  -7  883.27   46.19
  -5  -1  -8   55.60    8.05
   5  -1   8   53.65    3.97
   5   1   8   53.65    4.10
   5  -1   8   59.86    4.08
  -5   1  -9    5.95    4.57
   5  -1   9    4.88    1.84
  -5   1  -9    4.69    2.14
  -5  -1  -9    1.49    4.12
  -5  -1  -9    4.61    2.19
   5   1   9    4.45    1.77
   5  -1   9    6.46    1.88
  -5  -1 -10    2.46    4.13
  -5   1 -10    3.27    4.52
   5   1  10    3.58    1.96
  -5  -1 -10    3.48    2.33
  -5   1 -10    4.63    2.44
   5  -1  10    5.95    2.09
   5   1  11  281.00   13.56
  -5  -1 -11  238.83   19.51
  -5  -1 -11  245.12   13.92
  -5   1 -11  245.95   14.00
   5  -1  11  245.83   13.30
  -5   1 -11  220.23   18.82
  -5  -1 -12   75.87    9.97
  -5  -1 -12   73.08    5.99
   5  -1  12   72.06    5.44
   5   1  12   85.73    5.72
  -5   1 -12   82.04    6.30
  -5   1 -12   86.35   10.68
   5  -1  13    3.08    1.92
  -5  -1 -13    1.70    2.12
  -5   1 -13   -1.29    2.13
   5   1  13   -0.49    2.03
  -5  -1 -14   18.56    3.02
   5   1  14   24.07    2.72
  -5   1 -14   20.79    2.96
   5  -1  14   22.11    2.76
  -5   1 -15   63.55    4.58
   5  -1  16   -0.60    1.03
   5   1  16    0.54    1.12
  -5  -1 -16    0.22    0.99
  -5  -2  16   -0.08    1.08
   5  -2 -16   -0.07    0.96
  -5   2  16   -0.39    1.08
  -5  -2  15    6.86    1.68
  -5   2  15    5.97    1.65
   5  -2 -15    3.54    1.51
   5  -2 -14    3.14    1.69
  -5  -2  13   51.54    4.27
  -5   2  13   51.11    4.31
  -5  -2  12    0.67    1.97
  -5   2  12    0.34    1.98
   5   2 -12    6.31    4.06
   5  -2 -12    1.59    3.59
  -5   2  11   -0.34    1.93
  -5  -2  11    0.17    1.91
   5  -2 -11    1.55    3.75
  -5  -2  10   81.73    5.52
  -5   2  10   83.89    5.63
  -5  -2  10   81.86    6.13
   5  -2 -10   60.07    8.99
   5   2 -10   69.53    8.93
  -5  -2   9    0.19    2.38
  -5   2   9    0.30    1.82
   5  -2  -9    2.54    3.32
  -5  -2   9   -0.15    1.67
   5   2  -9    2.52    3.65
   5  -2  -8    3.90    3.42
  -5  -2   8    0.26    1.47
  -5   2   8    0.67    1.46
  -5  -2   8    2.78    2.14
   5   2  -8    1.66    3.06
  -5  -2   7  376.02   19.27
  -5  -2   7  403.75   18.86
  -5   2   7  385.70   18.82
  -5  -2   6    6.32    1.39
  -5   2   6    2.13    1.32
  -5  -2   5    6.43    2.84
  -5  -2   5    6.29    1.41
  -5   2   5    7.27    3.17
  -5   2   5    6.63    1.43
  -5  -2   4    0.33    2.59
  -5   2   4    0.32    1.08
  -5   2   4    1.34    2.39
  -5  -2   4    0.88    1.12
  -5  -2   3  563.80   29.46
  -5   2   3  600.61   29.65
  -5  -2   2   60.98    5.57
  -5   2   2   64.55    5.67
  -5  -2   1  525.75   26.36
  -5   2   1  516.98   26.37
  -5  -2   0   27.63    3.74
  -5   2   0   28.27    3.68
  -5  -2  -1  803.02   38.91
  -5   2  -1  798.84   38.96
  -5  -2  -2  210.89   12.33
  -5   2  -2  196.44   12.14
  -5  -2  -3   66.38    6.75
  -5   2  -3   83.21    7.03
  -5  -2  -4    7.96    3.34
  -5   2  -4   11.12    3.47
  -5  -2  -5 1004.11   47.20
  -5   2  -5  868.22   46.54
  -5  -2  -6    1.03    2.93
  -5   2  -6    3.59    3.06
   5  -2   7    4.07    1.37
  -5  -2  -7    6.43    3.69
  -5   2  -7    2.91    3.85
   5  -2   7    4.79    1.64
   5   2   7    5.01    1.50
  -5  -2  -8    0.66    3.71
  -5   2  -8    1.31    3.25
   5  -2   8    0.44    1.68
  -5  -2  -8    1.34    1.89
   5  -2   8    0.93    1.36
   5   2   8    2.70    1.54
   5   2   9  540.43   24.92
  -5   2  -9  580.94   31.59
  -5  -2  -9  516.25   31.00
   5  -2   9  505.85   25.00
  -5  -2  -9  494.63   25.54
   5  -2   9  498.67   24.73
  -5  -2 -10   23.14    5.72
  -5   2 -10   14.30    5.23
   5  -2  10   12.41    2.46
  -5  -2 -10   15.42    3.00
   5   2  10   15.57    2.38
  -5   2 -10    9.71    2.79
   5  -2  10   15.39    2.47
  -5  -2 -11   21.70    6.02
  -5  -2 -11   34.84    4.13
   5  -2  11   31.39    3.34
  -5   2 -11   35.79    4.11
   5   2  11   32.33    3.45
  -5  -2 -12   41.62    8.07
  -5   2 -12   59.35    5.33
  -5  -2 -12   67.66    5.45
   5  -2  12   61.16    4.58
   5   2  12   65.81    4.73
  -5   2 -12   42.34    8.05
  -5   2 -13  107.78    7.13
   5  -2  13  100.54    6.45
   5   2  13  102.65    6.43
  -5   2 -14   11.59    2.51
   5  -2  14   11.63    2.04
   5   2  14   13.74    2.19
  -5   2 -15    2.83    1.66
  -5  -2 -15    0.63    1.34
   5  -2  16    0.18    0.85
   5   2  16    0.31    0.93
  -5   2 -16    2.74    1.14
  -5  -2 -16    0.43    0.87
   5  -3 -16    1.95    0.92
  -5   3  15    3.89    1.38
  -5  -3  15    3.76    1.30
   5  -3 -15    4.69    1.49
  -5  -3  14    1.72    1.49
  -5   3  14    0.37    1.47
   5  -3 -14    3.14    1.67
  -5  -3  13   13.76    2.33
   5  -3 -13   15.57    2.49
   5  -3 -12   11.79    2.48
   5  -3 -11   78.29    5.77
  -5   3  11   81.49    5.53
  -5  -3  11   74.28    6.17
   5   3 -11   74.03    9.19
   5  -3 -11   75.76    9.21
  -5  -3  11   81.95    5.47
  -5   3  10   30.18    3.11
  -5  -3  10   30.34    4.02
  -5  -3  10   32.18    3.15
   5  -3 -10   23.93    3.21
   5  -3 -10   31.14    5.82
   5   3 -10   26.00    5.59
  -5   3   9  156.19    8.66
  -5  -3   9  152.40    9.46
   5  -3  -9  162.84   13.19
   5   3  -9  155.45   12.95
   5  -3  -9  151.32    8.82
  -5  -3   9  154.36    8.62
  -5  -3   8   16.89    2.31
  -5   3   8   16.13    2.28
  -5  -3   8   19.34    2.95
   5  -3  -8   19.34    2.49
   5  -3  -8   15.48    4.02
   5   3  -8   20.26    4.75
  -5  -3   7   10.00    1.81
  -5   3   7   10.00    1.81
   5  -3  -7    4.84    3.42
   5   3  -7   10.07    3.55
   5  -3  -7   14.37    2.14
  -5  -3   6  166.94    9.35
  -5  -3   6  166.24    8.73
   5  -3  -6  175.22    9.09
  -5   3   6  167.89    8.76
  -5  -3   5  266.06   15.24
  -5   3   5  246.63   15.11
  -5  -3   5  242.26   11.92
  -5   3   5  237.74   11.92
  -5  -3   4    7.97    2.73
  -5   3   4   13.50    2.98
  -5   3   4   12.74    1.49
  -5  -3   4   12.04    1.45
  -5   3   3   58.92    5.65
  -5  -3   3   75.01    6.08
  -5  -3   2   58.12    5.23
  -5   3   2   54.36    5.09
  -5  -3   1  270.93   15.24
  -5   3   1  284.02   15.47
  -5  -3   0   63.29    5.42
  -5   3   0   63.85    5.40
  -5  -3  -1  112.18    7.84
  -5   3  -1  116.04    7.87
  -5  -3  -2  710.33   35.47
  -5   3  -2  728.52   35.53
  -5  -3  -3  742.47   36.49
  -5   3  -3  720.31   36.35
  -5   3  -4   81.80    7.51
  -5  -3  -4   83.63    7.47
  -5  -3  -5   27.45    4.44
  -5   3  -5   18.69    4.00
  -5  -3  -6   53.50    6.55
   5  -3   6   49.99    3.69
   5  -3   6   41.73    4.85
  -5   3  -6   52.12    6.30
   5  -3   7  320.15   15.25
   5  -3   7  244.18   16.24
  -5  -3  -7  361.64   20.31
   5   3   7  310.12   14.93
  -5   3  -7  317.31   19.70
   5  -3   7  286.77   14.82
   5   3   8  219.51   10.90
   5  -3   8  182.67   10.97
  -5  -3  -8  225.65   11.80
   5  -3   8  201.19   10.72
  -5  -3  -8  211.57   15.56
  -5   3  -8  203.16   15.58
   5  -3   9  234.39   12.32
  -5  -3  -9  205.41   16.65
   5   3   9  231.60   11.93
  -5   3  -9  208.52   16.58
   5  -3   9  225.66   11.90
  -5  -3 -10   11.31    4.32
  -5   3 -10    3.01    4.17
   5  -3  10    9.10    2.31
   5  -3  10   10.30    2.03
   5   3  10    9.39    2.14
   5  -3  11  179.99   10.62
  -5   3 -11  202.42   11.33
   5  -3  11  191.44   10.24
   5   3  11  188.12   10.33
  -5  -3 -11  174.31   15.29
  -5   3 -11  155.02   14.75
  -5   3 -12    6.87    2.69
   5  -3  12   13.31    2.24
   5   3  12   14.76    2.37
  -5   3 -13    3.63    2.26
   5  -3  13    1.15    1.50
   5   3  13    1.21    1.57
  -5  -3 -13    2.38    1.90
  -5   3 -14    4.10    2.02
  -5  -3 -14    1.02    1.53
   5  -3  15   31.54    2.40
   5   3  15   33.20    2.46
  -5   3 -15   38.09    3.06
  -5  -3 -15   36.63    2.72
  -5   3 -16    2.77    0.96
   5  -4 -15    3.71    1.33
   5  -4 -14    1.65    1.54
   5  -4 -13   11.76    2.22
  -5   4  13    8.73    1.73
  -5  -4  12    2.91    1.61
  -5   4  12    4.24    1.60
   5  -4 -12   -0.84    2.12
  -5  -4  11   84.87    5.56
  -5  -4  11   85.44    5.68
  -5   4  11   87.55    5.73
  -5  -4  11  100.33    6.90
   5  -4 -11  100.30    6.34
  -5  -4  10   11.10    2.01
  -5   4  10   13.13    2.22
  -5  -4  10   10.33    2.93
  -5  -4  10   13.57    2.11
   5  -4 -10   10.75    2.61
   5  -4 -10   10.70    4.24
  -5  -4   9   99.91    6.45
  -5  -4   9  103.67    6.48
   5  -4  -9  124.93    7.16
   5  -4  -9  100.60    9.84
  -5  -4   9  114.71    7.43
  -5  -4   8  235.01   12.03
   5  -4  -8  244.12   12.40
  -5  -4   8  215.17   11.82
   5  -4  -8  234.46   15.89
  -5  -4   7  215.66   11.05
  -5  -4   7  199.85   10.83
   5  -4  -7  235.60   11.55
   5  -4  -7  216.12   14.37
   5   4  -7  179.54   13.70
  -5  -4   6    2.28    1.41
  -5  -4   6    1.91    1.87
   5   4  -6   -1.62    2.04
   5  -4  -6   -0.14    1.62
   5  -4  -6   -0.82    2.27
  -5  -4   5  134.58    7.58
  -5  -4   5  140.71    8.00
   5  -4  -5  139.44    7.74
  -5  -4   4   14.65    1.55
   5  -4  -4   18.76    2.26
  -5  -4   3  545.69   27.86
  -5   4   3  521.95   27.77
   5  -4  -3  560.08   25.79
  -5  -4   2   -0.51    1.65
  -5   4   2   -0.26    1.59
   5  -4  -2    0.98    1.08
   5  -4  -1   35.26    2.82
  -5  -4   1   41.22    3.93
  -5   4   1   34.03    3.80
  -5   4   0    1.92    1.70
  -5  -4   0    0.24    1.58
   5  -4   0    1.81    1.38
  -5  -4  -1  695.28   32.81
  -5   4  -1  638.76   32.62
  -5  -4  -2    4.02    1.88
  -5   4  -2    3.74    1.99
  -5  -4  -3  332.15   17.21
  -5   4  -3  279.55   16.70
   5  -4   4  379.78   18.61
  -5  -4  -4  395.02   20.94
  -5   4  -4  383.13   20.81
  -5  -4  -4  371.87   18.56
   5  -4   5  550.44   26.80
  -5  -4  -5  602.78   29.82
  -5   4  -5  603.25   29.73
   5  -4   5  547.80   26.63
   5  -4   5  563.63   29.77
  -5  -4  -5  549.72   26.79
   5  -4   6   52.97    4.06
  -5  -4  -6   60.53    6.72
   5  -4   6   53.69    5.96
  -5   4  -7   56.63    6.80
  -5  -4  -7   46.25    6.26
   5  -4   7   45.71    3.89
   5  -4   7   44.20    5.30
  -5  -4  -7   48.38    4.05
  -5  -4  -8    3.65    3.31
   5  -4   8    5.01    2.13
   5  -4   8    7.64    1.66
  -5  -4  -8    6.82    2.27
  -5  -4  -9   29.70    5.68
   5  -4   9   34.06    3.44
   5   4   9   29.18    2.82
   5  -4   9   27.76    2.75
  -5  -4  -9   30.88    3.51
  -5  -4 -10    9.90    4.30
   5  -4  10   13.36    2.04
   5  -4  10   14.53    2.79
  -5  -4 -10   12.08    2.05
   5   4  10   13.97    2.17
  -5  -4 -10   19.12    2.92
   5  -4  11   26.30    3.27
   5  -4  11   22.14    2.53
   5   4  11   27.73    2.75
  -5  -4 -11   30.12    3.44
  -5   4 -12   49.96    4.51
   5  -4  12   36.55    3.11
   5   4  12   40.21    3.28
  -5  -4 -12   42.78    3.85
  -5   4 -13   21.82    3.07
  -5  -4 -13   26.07    2.83
  -5   4 -14   24.80    2.80
  -5  -4 -14   22.89    2.36
  -5   4 -15    2.04    1.23
  -5  -4 -15    0.98    0.88
   5  -5 -15    2.74    0.92
   5  -5 -14    5.14    1.52
   5  -5 -13   19.70    3.54
   5  -5 -13   21.28    2.57
   5  -5 -12   44.38    3.82
   5  -5 -12   39.44    4.92
  -5  -5  11   21.46    3.60
   5  -5 -11   32.86    3.52
  -5  -5  10   79.82    6.19
   5  -5 -10   86.76    5.92
  -5  -5   9  157.36    9.37
   5  -5  -9  171.15    9.20
  -5  -5   8   18.23    2.43
   5  -5  -8   32.76    3.44
  -5  -5   7  113.69    7.24
   5  -5  -7  122.76    7.11
  -5  -5   7  100.94    6.39
  -5  -5   6   48.83    4.27
   5  -5  -6   51.46    4.06
  -5  -5   6   45.43    3.59
  -5  -5   5   10.62    1.83
  -5  -5   5    7.77    2.23
   5  -5  -5    7.57    2.87
   5  -5  -5   10.19    2.10
  -5  -5   4   84.80    5.66
   5  -5  -4   91.81    6.62
  -5  -5   4   88.66    5.30
   5  -5  -4   80.47    5.54
   5  -5  -3  133.44    8.86
  -5  -5   3  146.05    8.26
  -5  -5   3  147.29    7.84
   5  -5  -3  141.81    8.20
  -5  -5   3  161.82    8.19
  -5  -5   2   19.24    2.17
   5  -5  -2   18.50    2.29
   5  -5  -2   18.63    2.46
  -5  -5   2   15.35    1.93
   5  -5  -2   19.77    3.02
   5  -5  -1  173.61    9.84
   5  -5  -1  198.63   10.06
  -5  -5   1  189.47    9.96
   5  -5  -1  181.87    9.98
  -5  -5   1  188.59    9.77
   5  -5  -1  202.74   10.71
  -5  -5   0   12.55    1.88
  -5  -5   0    8.71    1.65
   5  -5   0   13.44    1.93
   5  -5   0   12.36    2.08
   5  -5   1   54.19    3.96
   5  -5   1   50.45    3.86
   5  -5   1   48.06    3.73
  -5  -5  -1   51.04    3.66
   5  -5   2  109.10    7.16
   5  -5   2  124.89    7.18
   5  -5   2  131.69    7.36
   5  -5   2  121.19    7.00
  -5  -5  -2  123.82    7.13
   5  -5   3  218.23   11.86
   5  -5   3  238.29   11.97
   5  -5   3  220.56   11.62
   5  -5   3  242.18   11.82
  -5  -5  -3  214.65   11.67
  -5  -5  -3  221.62   11.86
   5  -5   4    6.02    1.86
   5  -5   4    5.84    1.96
   5  -5   4    3.04    1.63
   5  -5   4    2.87    1.60
   5  -5   4    3.07    3.19
  -5  -5  -4    5.65    1.64
  -5  -5  -4    6.41    1.96
   5  -5   5   86.77    5.72
   5  -5   5   97.01    6.00
   5  -5   5   91.75    8.78
  -5  -5  -5   95.02    5.82
   5  -5   5   87.66    5.88
  -5  -5  -6   30.13    3.03
   5  -5   6   30.94    5.03
   5  -5   6   28.39    3.10
   5  -5   7  578.73   32.37
  -5  -5  -7  620.42   29.28
  -5  -5  -7  612.99   29.62
   5  -5   8    4.15    2.13
  -5  -5  -8    3.45    1.67
  -5  -5  -8    5.86    2.34
  -5  -5  -9   65.30    4.67
  -5  -5  -9   66.73    5.30
  -5  -5 -10    1.07    1.37
  -5  -5 -10   -0.75    1.93
  -5  -5 -11   83.40    5.78
  -5   5 -12   13.56    2.88
  -5  -5 -12   13.61    2.34
  -5   5 -13    2.14    1.89
  -5  -5 -13    0.47    1.43
  -5   5 -14    5.29    1.60
   5  -6 -14    1.30    0.92
   5  -6 -13    6.88    1.62
   5  -6 -12   26.21    3.67
   5  -6 -12   23.43    2.65
  -5  -6  11   36.61    3.86
   5  -6 -11   36.40    3.44
   5  -6 -11   28.72    4.27
  -5  -6  10   14.48    3.10
   5  -6 -10   15.89    2.71
   5  -6 -10   18.68    3.96
   5  -6  -9   80.98    7.24
   5  -6  -9   92.20    6.20
   5  -6  -8   63.62    6.12
  -5  -6   8   54.96    4.97
   5  -6  -8   60.63    4.91
  -5  -6   7   58.32    4.98
   5  -6  -7   57.42    4.75
   5  -6  -7   55.68    5.93
  -5  -6   6    6.18    2.56
   5  -6  -6    7.07    2.26
   5  -6  -6    6.29    3.44
   5  -6  -5   55.00    5.89
  -5  -6   5   68.68    5.12
   5  -6  -5   68.88    5.09
  -5  -6   4  155.11    8.87
  -5  -6   4  161.01    9.29
  -5  -6   4  158.83    8.86
  -5  -6   3   60.70    4.28
   5  -6  -3   59.80    4.54
  -5  -6   3   66.68    4.68
   5  -6  -3   64.97    5.61
  -5  -6   3   62.91    4.37
  -5  -6   2   -0.42    1.52
   5  -6  -2    1.91    1.68
  -5  -6   2   -0.98    1.61
   5  -6  -2    1.14    2.66
  -5  -6   1    4.01    1.92
   5  -6  -1    1.58    1.71
  -5  -6   1    4.32    1.78
   5  -6  -1    4.35    1.98
  -5  -6   1    6.01    1.74
   5  -6  -1    8.20    2.89
   5  -6   0   32.03    3.07
  -5  -6   0   26.86    2.81
   5  -6   0   29.10    3.29
   5  -6   0   22.48    3.73
   5  -6   1  129.95    8.12
   5  -6   1  121.92    7.60
  -5  -6  -1  144.51    7.81
   5  -6   1  139.21    8.10
   5  -6   2   26.20    3.23
   5  -6   2   29.97    2.96
   5  -6   2   27.76    3.20
   5  -6   3   19.62    2.94
   5  -6   3   24.04    3.21
   5  -6   3   19.38    2.57
   5  -6   3   25.78    5.17
   5  -6   3   19.86    2.80
  -5  -6  -3   17.27    2.52
   5  -6   4   91.78    6.28
   5  -6   4   97.28    6.59
   5  -6   4   99.21    6.20
   5  -6   4   90.24    6.16
   5  -6   4   95.53    9.62
  -5  -6  -4   99.54    6.26
   5  -6   5  108.66    7.33
   5  -6   5   98.61    6.65
   5  -6   5  126.71    7.01
   5  -6   5  105.19    9.97
  -5  -6  -5  109.85    6.88
   5  -6   5  104.75    7.01
   5  -6   6  387.96   18.15
   5  -6   6  344.47   17.95
  -5  -6  -6  360.38   18.02
  -5  -6  -7   36.76    3.53
   5  -6   7   39.69    3.77
   5  -6   7   36.87    3.83
  -5  -6  -7   31.85    3.72
   5  -6   8   90.45    6.07
   5  -6   8   78.26    5.76
  -5  -6  -8   89.87    5.79
  -5  -6  -8   94.36    6.31
   5  -6   9  123.22    7.25
  -5  -6  -9  109.39    6.65
   5  -6   9   97.96    6.57
  -5  -6  -9  122.59    7.32
   5  -6  10   86.93    5.63
   5  -6  10   75.47    5.53
  -5  -6 -10   72.38    4.85
  -5  -6 -10   85.30    5.70
   5  -6  11    0.75    1.63
  -5  -6 -11    4.81    1.86
   5  -6  12   -0.59    1.33
  -5   6 -12   -0.31    1.88
  -5   6 -13   40.48    3.19
  -5   6 -14   42.47    2.72
  -5  -7  11    6.71    2.10
   5  -7 -11    5.99    2.60
   5  -7 -10   21.32    3.60
   5  -7  -9   18.64    2.38
   5  -7  -9   30.59    3.98
   5  -7  -8   18.86    2.44
  -5  -7   8   20.49    3.24
   5  -7  -8   18.61    3.72
   5  -7  -7    6.22    1.89
  -5  -7   7    6.09    2.71
   5  -7  -7   10.39    3.52
   5  -7  -6  118.65    7.39
  -5  -7   6  128.97    7.99
   5  -7  -5  240.06   12.79
  -5  -7   5  247.96   13.35
   5  -7  -5  257.20   14.43
   5  -7  -4   18.73    2.63
   5  -7  -4   16.24    4.18
  -5  -7   4   20.22    2.99
  -5  -7   4   20.06    2.57
   5  -7  -4   21.96    4.00
   5  -7  -3   19.91    2.55
  -5  -7   3   17.78    2.37
   5  -7  -3   18.01    4.61
  -5  -7   3   15.79    2.70
   5  -7  -3   18.40    3.88
   5  -7  -2  134.07    7.29
   5  -7  -2  113.65   10.65
  -5  -7   2  114.14    7.11
  -5  -7   2  103.17    6.80
   5  -7  -2  128.57    8.45
   5  -7  -1  120.83    7.22
   5  -7  -1  106.32   10.47
  -5  -7   1  105.73    6.50
   5  -7  -1  122.89    6.91
  -5  -7   1  100.52    6.49
  -5  -7   1   99.75    6.80
  -5  -7   0   -0.32    1.83
   5  -7   0    4.04    2.53
   5  -7   0    1.63    2.00
   5  -7   0    0.61    1.70
   5  -7   0    0.65    3.52
   5  -7   0    1.70    2.24
  -5  -7   0    0.96    1.52
   5  -7   1    0.83    2.34
   5  -7   1    0.47    1.86
   5  -7   1   -0.66    3.10
   5  -7   1    0.39    2.12
  -5  -7  -1    2.65    1.80
   5  -7   1   -0.55    2.08
   5  -7   2  163.17    9.42
   5  -7   2  159.58    9.05
   5  -7   2  163.93    9.64
   5  -7   2  160.54    9.64
   5  -7   2  152.51    9.15
   5  -7   3  191.27   10.86
   5  -7   3  197.76   10.81
   5  -7   3  186.41   10.36
   5  -7   3  195.48   10.96
   5  -7   3  180.31   10.47
   5  -7   3  191.61   14.84
  -5  -7  -3  182.72   10.42
   5  -7   4    0.77    2.28
  -5  -7  -4    0.70    1.81
   5  -7   4    2.41    2.22
   5  -7   4   -0.16    1.72
   5  -7   4    2.89    2.32
   5  -7   4   -1.27    3.28
   5  -7   4    0.52    1.77
   5  -7   5   50.29    4.16
   5  -7   5   56.54    4.82
   5  -7   5   45.79    6.88
  -5  -7  -5   45.67    4.07
   5  -7   5   48.65    4.21
   5  -7   6   56.61    5.08
   5  -7   6   67.74    4.68
  -5  -7  -6   53.65    4.48
  -5  -7  -7    4.44    1.81
   5  -7   7    4.58    2.03
   5  -7   7    5.92    2.42
   5  -7   8   17.62    2.52
   5  -7   8   15.79    2.58
  -5  -7  -8   13.06    2.24
   5  -7   9    1.00    1.60
   5  -7   9    0.50    1.81
   5  -7   9    0.24    1.66
   5  -7  10   17.28    2.34
   5  -7  11   50.55    3.57
  -5   7 -12    9.71    1.75
   5  -8 -11    4.33    1.72
   5  -8 -10    0.86    1.98
  -5  -8   9    4.31    1.89
   5  -8  -9    0.53    2.37
  -5  -8   8   68.99    4.98
   5  -8  -8   70.98    4.82
   5  -8  -8   68.66    5.76
  -5  -8   7   48.69    4.14
   5  -8  -7   53.35    5.14
  -5  -8   6   -1.42    2.01
   5  -8  -6    4.08    3.11
   5  -8  -5   15.33    2.00
  -5  -8   5   14.54    2.57
   5  -8  -5   19.29    3.84
  -5  -8   4   82.28    5.52
   5  -8  -4   75.98    4.99
   5  -8  -4   79.12    6.60
   5  -8  -3   23.50    3.12
   5  -8  -3   22.39    2.54
  -5  -8   3   19.81    2.45
  -5  -8   3   25.08    2.83
   5  -8  -2    1.10    2.61
   5  -8  -2    3.38    2.14
   5  -8  -2    4.99    1.69
  -5  -8   2    7.15    1.85
  -5  -8   2    2.47    1.63
   5  -8  -1   20.13    3.53
   5  -8  -1   18.39    2.90
   5  -8  -1   18.01    2.38
   5  -8  -1   16.76    4.82
  -5  -8   1   12.64    2.18
   5  -8   0   54.70    5.08
   5  -8   0   60.10    4.79
   5  -8   0   56.46    4.20
   5  -8   0   53.20    7.54
  -5  -8   0   54.10    4.10
   5  -8   1   62.43    5.07
   5  -8   1   57.52    4.68
   5  -8   1   56.15    4.18
   5  -8   1   59.29    4.86
   5  -8   1   59.04    7.63
  -5  -8  -1   48.23    3.95
   5  -8   1   58.18    4.53
  -5  -8  -1   48.69    4.10
   5  -8   2    3.56    2.16
   5  -8   2    4.95    2.18
   5  -8   2    4.04    1.81
   5  -8   2    5.58    2.20
   5  -8   2    1.18    2.04
   5  -8   3   16.68    3.04
   5  -8   3   19.63    2.80
   5  -8   3   16.06    2.38
   5  -8   3   13.01    2.81
   5  -8   3   21.18    2.77
   5  -8   4   91.17    5.79
   5  -8   4   91.82    6.38
   5  -8   4   85.37    5.90
   5  -8   4   90.63    6.22
   5  -8   5   30.14    3.08
   5  -8   5   35.95    3.73
   5  -8   5   31.32    3.20
   5  -8   6   40.43    3.37
   5  -8   6   41.63    3.88
   5  -8   6   35.63    3.82
   5  -8   7   -1.03    1.90
   5  -8   7    0.38    1.47
   5  -8   8    5.17    1.62
   5  -8   8    5.47    1.85
   5  -8   8    2.94    1.67
   5  -8   9   82.14    4.86
   5  -8   9   67.82    4.37
   5  -9  -9   11.84    1.78
   5  -9  -9   15.46    1.49
   5  -9  -8   -0.11    1.58
   5  -9  -8    4.11    1.24
  -5  -9   8    1.63    1.40
   5  -9  -7    3.30    1.88
  -5  -9   7    2.58    1.53
   5  -9  -7    0.59    1.36
   5  -9  -6   96.49    6.40
   5  -9  -6   99.62    5.86
  -5  -9   6   99.79    5.81
   5  -9  -5   18.66    3.04
   5  -9  -5   20.22    2.46
  -5  -9   5   20.06    2.37
   5  -9  -4    4.33    2.36
   5  -9  -4    2.94    1.81
   5  -9  -3    0.18    2.19
   5  -9  -3    0.28    1.69
   5  -9  -2   97.02    6.64
   5  -9  -2   96.72    6.10
   5  -9  -1   28.34    3.58
   5  -9  -1   27.54    2.95
   5  -9  -1   24.30    3.01
   5  -9   0    3.70    2.36
   5  -9   0    0.88    1.79
   5  -9   0    1.44    1.89
   5  -9   1    2.72    2.26
   5  -9   1    7.36    2.08
   5  -9   1    2.28    1.78
   5  -9   2  110.14    6.78
   5  -9   2  118.62    6.89
   5  -9   2  111.80    7.13
   5  -9   3   42.63    3.57
   5  -9   3   38.88    3.72
   5  -9   4   61.89    4.41
   5  -9   4   67.36    5.09
   5  -9   5   -0.43    2.01
   5  -9   6   29.85    3.05
   5  -9   7   42.32    3.18
   5  -9   8   86.62    4.78
   5 -10  -6    1.78    1.19
   5 -10  -6    1.71    0.82
   5 -10  -5    0.72    1.40
   5 -10  -5    0.94    0.84
   5 -10  -5   -0.79    0.99
   5 -10  -4   22.27    2.45
   5 -10  -4   23.42    2.03
   5 -10  -4   23.08    2.12
   5 -10  -3   18.98    2.35
   5 -10  -3   18.70    1.90
   5 -10  -3   17.97    1.99
   5 -10  -2    0.18    1.35
   5 -10  -2    1.27    1.63
   5 -10  -2    1.76    1.26
   5 -10  -1   13.27    2.15
   5 -10  -1   13.42    1.82
   5 -10  -1   11.03    1.63
   5 -10   0   46.29    3.26
   5 -10   0   46.44    3.57
   5 -10   1   17.87    2.29
   5 -10   1   18.17    2.06
   5 -10   2    3.41    1.33
   5 -10   3    1.29    1.64
   5 -10   4   27.41    2.55
   5 -10   5   36.66    2.75
   5 -10   6   19.81    1.74
  -6   0  16    3.94    1.32
  -6   0  15    0.12    1.58
  -6   0  14   31.28    3.18
  -6   0  12   18.58    2.92
   6   0 -12   17.28    5.63
  -6   0  11   -0.53    2.18
   6   0 -11    0.80    3.52
  -6   0  10  308.12   15.78
   6   0 -10  294.94   20.96
  -6   0   9   -2.06    1.78
   6   0  -9   -3.36    3.78
  -6   0   8   46.21    3.71
  -6   0   8   37.94    3.47
  -6   0   7    1.27    1.37
  -6   0   7    0.13    1.39
  -6   0   6   32.68    5.14
  -6   0   6   33.82    2.82
  -6   0   5    1.29    2.65
  -6   0   5    1.24    1.25
  -6   0   4  426.10   23.35
  -6   0   3    1.79    2.68
  -6   0   2 1046.81   50.79
  -6   0   1    0.94    2.77
  -6   0   0    9.03    3.14
  -6   0  -1   -0.32    2.44
  -6   0  -2  160.63   10.78
  -6   0  -4   43.20    5.80
  -6   0  -5   -0.51    3.35
  -6   0  -6  356.89   22.02
  -6   0  -7   -2.55    3.46
  -6   0  -7    0.68    1.66
  -6   0  -8   -2.85    4.19
   6   0   8    0.13    1.29
   6   0   8    1.02    1.58
  -6   0  -8    1.14    2.02
   6   0   9    0.16    1.60
  -6   0  -9   -1.57    3.81
   6   0  10  211.94   11.18
  -6   0 -10  167.51   16.19
  -6   0 -11   -2.66    4.10
   6   0  11   -1.75    2.01
  -6   0 -11   -0.92    2.37
  -6   0 -12   40.49    7.53
  -6   0 -12   36.43    4.00
   6   0  12   32.09    3.50
  -6   0 -13   -0.83    2.33
   6   0  13   -1.42    1.91
  -6   0 -14  175.62   10.07
   6   0  14  176.77    9.53
   6   0  15   -1.05    1.44
   6   0  16    4.10    1.11
  -6   0 -16    3.72    1.07
  -6  -1  16    0.11    0.77
  -6  -1  16    3.44    1.20
  -6   1  16    2.17    1.14
  -6  -1  15    0.47    1.60
  -6   1  15    1.07    1.49
   6  -1 -15    0.45    1.04
  -6   1  14   49.20    3.81
   6  -1 -14   33.66    3.04
   6  -1 -13    3.19    1.61
   6  -1 -12   56.16    8.61
   6   1 -12   54.19    7.96
  -6   1  11   -0.71    1.96
   6   1 -11   -2.38    4.01
  -6  -1  11    0.35    2.01
   6  -1 -11    4.80    3.95
  -6  -1  10   10.85    2.40
  -6   1  10    9.68    2.49
   6  -1 -10    5.17    4.49
   6   1 -10    5.88    4.53
  -6  -1   9    3.64    1.99
  -6   1   9    2.06    1.79
   6  -1  -9    5.39    4.24
   6   1  -9    7.37    4.11
  -6  -1   8  149.83    8.83
  -6   1   8  158.70    8.96
  -6  -1   8  159.43    8.82
  -6   1   8  174.24    8.98
  -6  -1   7    5.31    1.58
  -6   1   7    8.79    1.81
  -6  -1   7    9.47    1.86
  -6   1   7    6.72    1.75
  -6  -1   6   85.90    8.22
  -6   1   6   80.82    7.97
  -6  -1   6   79.90    4.95
  -6   1   6   76.93    4.89
  -6   1   5   90.95    7.94
  -6  -1   5   78.90    4.78
  -6  -1   5   85.50    7.63
  -6   1   5   78.99    4.84
  -6  -1   4  503.71   28.08
  -6   1   4  569.13   28.62
  -6   1   3  685.01   33.48
  -6  -1   3  618.15   33.04
  -6  -1   2   54.19    5.62
  -6   1   2   52.73    5.59
  -6  -1   1    0.31    2.66
  -6   1   1   -0.32    2.66
  -6  -1   0  777.86   38.97
  -6   1   0  799.13   38.99
  -6  -1  -1    6.71    3.21
  -6   1  -1    4.18    2.66
  -6  -1  -2  179.47   11.35
  -6   1  -2  160.80   11.09
  -6  -1  -3    1.11    2.81
  -6   1  -3    1.11    2.67
  -6   1  -4  781.49   40.25
  -6   1  -5  149.64   11.72
  -6   1  -6    6.29    3.70
  -6  -1  -7   23.06    5.27
  -6   1  -7   21.10    4.94
   6  -1   7   21.11    2.22
  -6  -1  -7   22.03    2.81
  -6   1  -7   19.00    2.63
   6   1   7   16.43    2.24
   6  -1   7   13.76    2.16
   6  -1   8  328.96   17.43
  -6  -1  -8  380.66   18.25
  -6   1  -8  359.36   18.18
   6  -1   8  342.88   17.49
  -6   1  -8  328.46   23.22
  -6  -1  -8  347.58   23.01
   6   1   8  373.15   17.66
  -6  -1  -9    2.36    3.96
  -6   1  -9   -5.49    4.40
   6   1   9    2.05    1.63
   6  -1   9    1.39    1.64
   6  -1   9    0.62    1.61
   6   1  10    7.87    2.14
  -6  -1 -10   12.65    4.67
  -6   1 -10    0.84    4.74
   6  -1  10    8.59    2.28
  -6  -1 -10    8.57    2.68
   6  -1  10    8.93    2.16
  -6  -1 -11   24.52    6.89
  -6   1 -11   37.60    7.37
  -6  -1 -11   40.08    4.21
  -6   1 -11   39.51    4.28
   6   1  11   37.44    3.65
   6  -1  11   41.26    3.73
   6  -1  12  316.68   16.07
  -6  -1 -12  300.83   16.65
  -6   1 -12  313.88   16.78
   6   1  12  318.59   16.09
   6  -1  13   20.15    2.74
  -6  -1 -13   18.82    3.04
  -6   1 -13   18.81    3.20
   6   1  13   19.07    2.68
  -6   1 -14   28.94    3.34
   6  -1  14   36.78    3.11
   6   1  14   33.64    3.10
  -6   1 -15    0.79    1.56
   6  -1  15    0.39    1.27
   6   1  15   -0.20    1.30
   6  -1  16   32.51    2.18
   6   1  16   35.66    2.29
  -6  -2  16    1.42    0.96
  -6   2  16    3.11    0.98
  -6  -2  15    1.43    1.32
  -6   2  15    0.21    1.27
   6  -2 -15    1.12    1.05
  -6  -2  14   19.85    2.49
  -6   2  14   20.73    2.55
   6  -2 -14   17.82    2.23
  -6  -2  13    2.74    1.95
  -6   2  13    2.58    1.89
   6  -2 -13    2.09    1.61
   6  -2 -12    0.16    1.73
   6  -2 -11   12.40    4.84
   6  -2 -11    9.20    2.09
   6   2 -11   17.65    5.04
   6  -2 -10   24.06    2.88
   6  -2 -10   31.10    6.20
   6   2 -10   18.02    5.49
  -6  -2   9   56.42    4.28
  -6   2   9   54.80    4.29
   6  -2  -9   63.38    8.17
   6  -2  -9   49.39    4.04
   6   2  -9   46.32    7.02
  -6  -2   8   98.05    6.97
   6  -2  -8  104.03    9.81
   6   2  -8   91.31    9.81
   6  -2  -8  110.20    6.36
  -6  -2   7   -0.63    1.28
  -6   2   7   -0.51    1.34
   6  -2  -7   -1.24    1.37
  -6  -2   6  150.82   11.15
  -6   2   6  140.79   11.23
  -6  -2   6  133.57    8.14
  -6  -2   6  144.28    7.73
  -6   2   6  145.17    7.75
  -6  -2   5    1.30    2.66
  -6   2   5   -1.32    2.74
  -6  -2   5   -0.51    1.26
  -6   2   5    0.62    1.14
  -6   2   4   41.31    5.29
  -6  -2   4   51.27    5.83
  -6  -2   3   37.07    4.70
  -6   2   3   45.99    5.13
  -6   2   2  709.25   35.51
  -6  -2   2  696.37   35.39
  -6  -2   1   88.31    7.32
  -6   2   1  102.99    7.66
  -6   2   0   18.35    3.67
  -6  -2   0   13.67    3.34
  -6  -2  -1  205.07   12.83
  -6   2  -1  214.58   13.00
  -6  -2  -2 2083.63   96.41
  -6   2  -2 2034.40   96.36
  -6  -2  -3   76.38    6.99
  -6   2  -3   80.51    7.14
  -6  -2  -4   84.08    8.10
  -6  -2  -5   -1.56    3.05
  -6   2  -5    2.07    2.96
   6  -2   6  376.33   19.23
  -6  -2  -6  410.10   19.87
  -6  -2  -6  432.36   24.32
  -6   2  -6  434.04   24.29
   6   2   7   23.30    2.52
  -6  -2  -7   17.39    4.91
  -6   2  -7   20.53    4.94
   6  -2   7   18.85    2.49
  -6  -2  -7   21.41    2.94
   6  -2   7   24.35    2.55
  -6  -2  -8    3.56    3.94
  -6   2  -8    2.84    3.73
   6  -2   8    6.72    1.96
   6   2   8    5.56    1.76
   6  -2   8    4.30    1.79
  -6  -2  -9    0.77    4.06
  -6   2  -9    1.54    3.39
   6  -2   9    0.84    1.94
   6   2   9    0.63    1.73
   6  -2   9    1.23    1.54
  -6  -2 -10  166.30   14.46
   6  -2  10  144.96    8.90
  -6  -2 -10  159.64    9.68
   6   2  10  160.09    8.93
   6  -2  10  152.40    8.78
  -6   2 -10  153.55   14.16
  -6  -2 -11   13.31    5.12
  -6   2 -11   19.08    5.75
   6  -2  11   21.39    2.78
  -6  -2 -11   22.01    3.45
  -6   2 -11   19.80    3.57
   6   2  11   20.41    2.78
  -6   2 -12   26.31    3.87
   6  -2  12   33.32    3.37
   6   2  12   38.26    3.50
  -6   2 -13    3.02    2.21
   6   2  13    0.72    1.67
   6  -2  13    3.34    1.72
  -6   2 -14   85.93    5.97
   6  -2  14   83.63    5.28
   6   2  14   93.55    5.44
  -6   2 -15    1.93    1.48
  -6  -2 -15    3.62    1.38
   6   2  16    2.62    0.79
  -6  -2 -16    1.65    0.75
   6  -3 -16    3.02    1.24
  -6  -3  15   -0.07    0.99
  -6   3  15    0.51    0.97
   6  -3 -15    0.60    1.01
  -6  -3  14    2.62    1.45
  -6   3  14    0.77    1.43
   6  -3 -14    2.09    1.43
  -6  -3  13   25.95    2.64
  -6  -3  13   24.20    2.88
  -6   3  13   28.66    2.88
   6  -3 -13   28.10    2.89
  -6  -3  12   18.81    2.69
  -6   3  12   21.16    2.80
   6  -3 -12   24.29    2.87
  -6  -3  11   22.10    2.85
  -6   3  11   19.39    2.74
   6  -3 -11   17.30    5.22
   6  -3 -11   20.67    2.76
   6   3 -11   12.05    4.88
  -6  -3  10    3.52    1.90
  -6   3  10    5.85    2.05
  -6  -3  10    1.09    2.78
   6  -3 -10    0.17    1.83
   6  -3 -10    1.41    3.62
   6   3 -10   -3.47    3.70
  -6  -3   9   62.46    4.53
  -6   3   9   60.92    4.50
  -6  -3   9   61.38    5.35
   6   3  -9   59.99    7.61
   6  -3  -9   52.63    4.44
   6  -3  -9   53.62    7.44
  -6  -3   8   -0.15    1.55
  -6   3   8    2.11    1.55
   6  -3  -8    2.00    1.71
   6  -3  -8   -0.59    3.62
   6   3  -8    0.58    2.63
  -6  -3   7   18.83    2.36
  -6   3   7   17.18    2.30
  -6  -3   7   15.54    2.78
   6  -3  -7   20.02    2.42
  -6  -3   6   67.34    4.43
  -6   3   6   65.02    4.40
  -6  -3   6   63.53    4.84
  -6   3   6   64.60    4.25
   6  -3  -6   64.94    4.48
  -6  -3   6   65.40    4.24
  -6  -3   5  121.70    9.43
  -6  -3   5  114.93    6.24
  -6  -3   5  109.09    6.74
  -6   3   5  121.31    9.46
   6  -3  -5  108.07    6.38
  -6   3   5  110.87    6.22
  -6  -3   4  152.87    8.15
  -6   3   4  165.16    8.23
  -6  -3   4  151.80   11.01
  -6   3   4  154.14   11.10
  -6   3   3    0.73    2.27
  -6  -3   3    0.72    2.05
  -6  -3   2    2.38    2.25
  -6   3   2    3.80    2.41
   6  -3  -1  546.34   25.77
  -6  -3   1  572.48   28.65
  -6   3   1  566.01   28.69
  -6  -3   0   97.44    7.55
  -6   3   0   96.95    7.62
  -6  -3  -1    0.33    2.19
  -6   3  -1    0.67    2.08
  -6  -3  -2  599.45   31.55
  -6   3  -2  636.95   31.77
  -6  -3  -3    7.96    2.92
  -6   3  -3    3.43    2.73
  -6  -3  -4  391.07   21.82
  -6   3  -4  378.64   21.64
  -6  -3  -5   51.57    6.02
  -6   3  -5   53.79    6.08
   6  -3   5   47.53    3.62
  -6  -3  -6    3.48    3.36
  -6   3  -6    2.31    3.24
   6  -3   6    4.71    1.74
   6   3   6    0.98    1.33
   6  -3   6    1.56    1.35
  -6  -3  -7    7.02    3.81
  -6   3  -7    1.90    3.45
   6  -3   7    0.30    1.59
   6  -3   7    0.97    1.91
   6   3   7    3.06    1.65
   6  -3   7    1.68    1.51
   6  -3   8  237.99   12.75
   6   3   8  245.14   12.52
   6  -3   8  237.94   12.46
  -6  -3  -8  249.99   17.81
  -6   3  -8  245.52   17.73
  -6  -3  -9   -1.47    3.56
  -6   3  -9    0.73    3.99
   6   3   9   -0.30    1.61
   6  -3   9    0.18    2.07
   6  -3   9    0.44    1.68
  -6  -3 -10    3.80    3.94
  -6   3 -10   12.87    4.42
   6  -3  10   10.97    2.22
   6  -3  10   15.44    2.67
   6   3  10   13.86    2.41
   6  -3  11    7.46    2.27
   6  -3  11   12.31    2.15
   6   3  11    7.69    2.12
   6  -3  12   33.08    3.05
  -6   3 -12   24.93    3.62
   6   3  12   32.35    3.05
  -6   3 -13    1.32    2.14
   6  -3  13    1.27    1.37
   6   3  13    0.12    1.37
  -6  -3 -13   -0.45    1.57
  -6   3 -14   -0.15    1.84
  -6  -3 -14    1.99    1.49
   6   3  15    2.81    0.94
  -6   3 -15    2.27    1.38
  -6  -3 -15    3.94    1.23
   6  -4 -15    7.06    1.22
   6  -4 -15    8.18    1.86
   6  -4 -14   19.16    2.16
   6  -4 -14   20.66    3.13
   6  -4 -13    1.42    1.79
  -6  -4  12   -0.23    1.15
  -6  -4  12    0.12    1.40
  -6   4  12    1.72    1.47
   6  -4 -12    1.53    1.84
  -6  -4  11   33.31    3.11
  -6  -4  11   31.03    3.09
  -6   4  11   37.20    3.27
   6  -4 -11   37.14    3.53
  -6  -4  10   30.07    3.11
  -6  -4  10   36.07    3.14
  -6   4  10   28.27    2.97
  -6  -4  10   29.43    4.00
   6  -4 -10   34.30    3.51
  -6  -4   9   32.25    3.12
  -6  -4   9   28.89    3.03
  -6   4   9   30.45    3.00
   6  -4  -9   32.72    5.71
   6  -4  -9   35.79    3.48
   6  -4  -8    0.55    2.68
  -6  -4   8    1.85    1.78
  -6  -4   8    2.09    1.59
   6  -4  -8    7.64    2.17
  -6  -4   7    2.54    1.71
  -6  -4   7    2.86    1.51
  -6  -4   7    6.11    2.47
   6  -4  -7    3.71    1.98
   6  -4  -7    3.54    2.89
  -6  -4   6  123.71    7.10
  -6  -4   6  101.95    6.65
  -6  -4   6  131.22    7.51
   6  -4  -6  138.58   10.25
   6   4  -6  127.78    9.91
   6  -4  -6  129.49    7.30
  -6  -4   5    0.29    1.05
  -6  -4   5    0.54    1.41
  -6  -4   5   -0.92    1.88
   6  -4  -5    1.58    1.64
  -6  -4   4    7.30    1.72
  -6  -4   4    2.61    1.73
  -6   4   4    6.11    2.68
  -6  -4   4    4.92    2.45
   6  -4  -4    7.74    1.82
  -6  -4   4    4.57    1.18
  -6  -4   3  249.48   12.71
   6  -4  -3  277.69   13.40
  -6  -4   3  259.27   15.49
  -6   4   3  269.98   15.66
  -6  -4   3  270.28   13.28
   6  -4  -2  432.60   20.54
   6  -4  -2  445.09   20.88
  -6  -4   2  404.07   22.75
  -6   4   2  419.90   22.92
   6  -4  -1    5.04    1.43
  -6  -4   1    5.94    2.12
  -6   4   1    2.51    2.11
   6  -4   0  127.17    6.97
  -6  -4   0  127.96    8.73
  -6   4   0  115.27    8.60
  -6  -4  -1   67.07    5.97
  -6   4  -1   70.27    6.09
   6  -4   2  223.38   11.04
   6  -4   2  199.70   10.80
  -6  -4  -2  219.21   13.10
  -6   4  -2  215.20   13.05
  -6  -4  -2  200.11   10.94
   6  -4   3    4.46    1.68
   6  -4   3    1.42    1.46
  -6  -4  -3    2.94    2.31
  -6   4  -3    5.50    2.43
  -6  -4  -3    1.75    1.44
   6  -4   4   21.25    2.61
   6  -4   4   19.68    2.42
  -6  -4  -4   24.06    4.10
  -6   4  -4   19.64    3.75
  -6  -4  -4   25.89    2.71
   6  -4   5   91.17    6.02
  -6  -4  -5  100.54    8.43
  -6   4  -5   85.74    8.05
   6  -4   5  102.47    6.07
  -6  -4  -5   95.03    6.15
  -6  -4  -6  152.34   11.59
  -6   4  -6  149.74   11.31
   6  -4   6  155.65    8.53
   6  -4   6  135.03   10.60
  -6  -4  -6  143.90    8.56
  -6  -4  -7   33.47    5.39
   6  -4   7   28.64    3.16
   6  -4   7   23.31    4.01
   6  -4   7   26.47    2.59
  -6  -4  -8    3.95    3.32
   6  -4   8   -0.36    1.93
   6   4   8    1.45    1.38
   6  -4   8    2.42    1.43
  -6  -4  -9   65.81    8.11
   6  -4   9   81.47    5.66
   6   4   9   84.13    5.24
   6  -4   9   74.74    5.07
  -6  -4  -9   84.73    5.95
   6  -4  10  140.99    8.28
   6  -4  10  122.84    7.48
   6   4  10  140.76    7.70
  -6  -4 -10  134.76    7.64
  -6  -4 -10  135.50    8.30
   6  -4  11   78.38    5.49
   6  -4  11   69.94    4.70
   6   4  11   77.69    4.90
  -6  -4 -11   71.17    4.70
  -6  -4 -11   77.06    5.53
  -6   4 -12    0.81    2.29
   6   4  12    3.35    1.44
  -6  -4 -12    5.56    2.15
  -6   4 -13    1.84    1.95
  -6  -4 -13    5.21    1.85
  -6   4 -14   41.00    3.34
  -6  -4 -14   40.10    2.99
  -6   4 -15   14.71    1.62
  -6  -4 -15   11.52    1.28
   6  -5 -14    3.13    1.25
   6  -5 -14    3.43    1.87
   6  -5 -13    4.28    1.61
   6  -5 -13    8.75    2.50
   6  -5 -12    7.30    2.01
   6  -5 -12    6.56    2.93
  -6  -5  11    3.35    2.65
   6  -5 -11    2.87    1.95
   6  -5 -11   -0.50    2.90
  -6  -5  10    1.78    1.34
  -6  -5  10   -0.20    2.82
   6  -5 -10    6.59    2.17
  -6  -5   9    2.83    1.49
   6  -5  -9    0.54    2.12
   6  -5  -8   29.51    3.56
  -6  -5   8   30.58    3.78
  -6  -5   8   29.76    2.95
  -6  -5   7  108.09    7.08
   6  -5  -7  107.86    6.74
  -6  -5   7   98.95    6.33
   6  -5  -6   33.78    4.49
  -6  -5   6   38.54    3.91
   6  -5  -6   38.26    3.76
  -6  -5   6   36.34    3.29
  -6  -5   5   39.42    3.92
   6  -5  -5   47.56    4.78
   6  -5  -5   42.71    3.86
  -6  -5   5   45.52    3.60
  -6  -5   4   84.90    5.64
   6  -5  -4   80.02    5.57
   6  -5  -4   98.78    6.65
  -6  -5   4   83.98    5.44
   6  -5  -3   34.92    3.17
  -6  -5   3   29.51    3.11
  -6  -5   3   29.75    2.55
   6  -5  -3   26.54    3.63
  -6  -5   3   30.92    2.90
   6  -5  -2   35.03    3.03
  -6  -5   2   33.29    3.07
  -6  -5   2   37.45    2.94
   6  -5  -2   39.28    3.33
   6  -5  -2   26.23    3.66
  -6  -5   2   30.02    2.97
   6  -5  -1  209.07   10.40
   6  -5  -1  187.88   10.18
  -6  -5   1  190.74   10.03
  -6  -5   1  196.85   10.31
   6  -5  -1  173.11   10.68
   6  -5   0  435.50   20.53
   6  -5   0  443.31   20.60
  -6  -5   0  430.00   20.59
  -6  -5   0  414.06   20.31
   6  -5   0  372.53   20.75
   6  -5   1   67.37    4.76
   6  -5   1   67.34    4.68
   6  -5   1   69.67    4.69
  -6  -5  -1   60.42    4.37
   6  -5   2    8.19    2.05
  -6  -5  -2    8.33    1.85
   6  -5   2    8.88    2.12
   6  -5   2    4.22    1.76
  -6  -5  -2    6.93    1.83
   6  -5   3   27.89    3.10
   6  -5   3   27.18    2.80
  -6  -5  -3   29.36    3.04
   6  -5   4   96.66    6.15
   6  -5   4   83.13    5.57
  -6  -5  -4   89.88    5.89
   6  -5   5    1.59    1.98
   6  -5   5    1.06    2.87
   6  -5   5    0.42    1.58
  -6  -5  -5    2.51    1.86
  -6  -5  -6  173.30    9.87
   6  -5   6  167.89   12.75
   6  -5   7  123.38   11.01
  -6  -5  -7  181.99    9.34
   6  -5   8  191.23   10.75
  -6  -5  -8  189.70   10.45
   6  -5   9  103.85    6.73
  -6  -5  -9   97.75    6.77
  -6  -5  -9  106.31    6.45
   6  -5  10    0.88    2.10
  -6  -5 -10   -0.40    1.39
  -6  -5 -10    2.53    1.92
   6  -5  11   19.01    2.70
  -6  -5 -11   16.18    1.96
  -6  -5 -11   20.88    2.80
  -6   5 -12  106.62    6.86
  -6  -5 -12  105.88    6.43
   6  -5  13   26.91    2.60
  -6   5 -13   31.72    3.05
  -6   5 -14    0.54    1.20
   6  -6 -13    1.57    1.76
   6  -6 -13    4.47    1.29
   6  -6 -12    7.07    1.75
   6  -6 -12    3.17    2.40
   6  -6 -11   18.29    2.58
   6  -6 -11   14.08    3.35
   6  -6 -10   36.43    3.55
   6  -6 -10   26.68    4.17
  -6  -6   9    6.21    2.79
   6  -6  -9    7.02    2.33
   6  -6  -9    5.71    3.26
  -6  -6   8   22.91    3.58
   6  -6  -8   36.33    3.58
   6  -6  -8   29.76    4.55
  -6  -6   7  157.49    9.14
   6  -6  -7  162.83   10.23
   6  -6  -7  163.50    9.07
  -6  -6   7  134.22    8.13
  -6  -6   6   79.32    5.88
   6  -6  -6   87.52    5.89
  -6  -6   6   75.12    5.11
   6  -6  -6   87.89    6.92
   6  -6  -5   49.00    4.25
  -6  -6   5   52.61    4.43
   6  -6  -5   47.82    5.16
  -6  -6   5   51.44    3.89
  -6  -6   4    1.48    1.49
  -6  -6   4    2.94    2.18
   6  -6  -4    3.53    2.22
   6  -6  -4    2.46    2.89
  -6  -6   3    6.69    1.83
   6  -6  -3    5.52    2.08
  -6  -6   3    3.75    2.01
   6  -6  -3    5.38    2.29
   6  -6  -3    4.25    2.69
   6  -6  -2  119.88    7.42
  -6  -6   2  121.88    7.24
  -6  -6   2  126.74    7.14
   6  -6  -2  130.07    8.38
  -6  -6   2  125.53    7.38
   6  -6  -1   11.65    2.31
   6  -6  -1   12.98    2.22
  -6  -6   1   13.57    2.08
   6  -6  -1    7.96    2.64
   6  -6   0    5.76    2.12
  -6  -6   0    1.33    1.57
   6  -6   0    0.31    1.63
   6  -6   0    0.51    1.91
   6  -6   1   32.53    3.61
   6  -6   1   36.44    3.78
   6  -6   1   33.97    3.45
   6  -6   1   36.18    3.64
  -6  -6  -1   42.34    3.51
   6  -6   2  113.91    7.15
   6  -6   2  104.72    7.10
   6  -6   2  124.10    7.03
   6  -6   2  111.72    7.13
   6  -6   2  101.24    6.71
  -6  -6  -2  118.62    6.95
   6  -6   3  168.66   10.30
   6  -6   3  195.16   10.58
   6  -6   3  188.58   10.59
   6  -6   3  192.27   10.30
   6  -6   3  181.68   10.10
   6  -6   3  198.55   14.72
   6  -6   4   21.49    2.88
   6  -6   4   19.56    3.06
   6  -6   4   22.72    2.89
   6  -6   4   23.19    3.29
   6  -6   4   22.56    5.04
   6  -6   4   20.09    2.64
  -6  -6  -4   16.89    2.68
   6  -6   5   35.86    3.37
   6  -6   5   28.02    3.64
   6  -6   5   21.74    5.08
   6  -6   5   27.25    3.09
  -6  -6  -5   26.85    3.47
  -6  -6  -5   26.82    3.18
   6  -6   6  158.44    9.31
   6  -6   6  168.72    9.17
  -6  -6  -6  151.73    8.86
  -6  -6  -7   15.90    2.50
   6  -6   7   18.79    2.88
   6  -6   7    8.27    3.28
   6  -6   7   13.79    2.65
  -6  -6  -8    1.41    1.62
   6  -6   8    0.44    1.80
  -6  -6  -8    0.95    1.96
  -6  -6  -9    9.27    1.87
  -6  -6  -9    9.37    2.33
  -6  -6 -10  105.45    6.19
  -6  -6 -10  112.69    6.86
   6  -6  11   58.15    4.39
  -6  -6 -11   66.91    4.52
   6  -6  12    5.94    1.51
  -6   6 -13    0.09    1.15
   6  -7 -12   14.94    1.70
   6  -7 -12   19.77    2.36
   6  -7 -11    1.41    1.39
   6  -7 -11    3.28    2.12
   6  -7 -10   -0.88    1.24
  -6  -7  10    0.69    2.07
   6  -7 -10   -1.84    2.52
   6  -7 -10    1.74    1.66
   6  -7  -9   10.31    1.86
  -6  -7   9   14.35    2.67
   6  -7  -9   18.32    2.56
   6  -7  -9   16.60    3.30
   6  -7  -8   19.12    2.74
   6  -7  -8   22.71    3.53
   6  -7  -8   12.85    2.18
  -6  -7   8   14.41    2.78
   6  -7  -7    8.13    2.05
  -6  -7   7   11.41    2.61
   6  -7  -7   10.54    2.43
   6  -7  -7    9.42    3.37
   6  -7  -6   26.08    2.99
  -6  -7   6   30.76    3.51
   6  -7  -6   33.73    3.59
   6  -7  -6   32.91    4.36
   6  -7  -5   25.44    3.06
  -6  -7   5   34.03    3.45
   6  -7  -5   24.52    3.28
   6  -7  -5   22.43    3.90
   6  -7  -4   98.21    6.17
  -6  -7   4   93.65    6.18
   6  -7  -4  107.49    7.37
   6  -7  -3    7.26    2.23
   6  -7  -3   14.43    4.30
  -6  -7   3    5.22    2.05
   6  -7  -3    6.31    3.17
   6  -7  -2    0.32    1.78
   6  -7  -2    3.79    3.25
  -6  -7   2    0.68    1.51
   6  -7  -2   -0.74    2.75
   6  -7  -1  121.25    7.12
   6  -7  -1   89.30   10.03
   6  -7   0   23.47    3.27
   6  -7   0   17.74    2.71
   6  -7   0   17.97    5.11
   6  -7   0   24.50    3.13
   6  -7   1   47.63    4.44
   6  -7   1   47.77    4.14
   6  -7   1   52.60    4.14
   6  -7   1   44.38    4.23
   6  -7   1   52.28    7.18
  -6  -7  -1   44.77    4.02
   6  -7   2   -0.38    2.24
   6  -7   2    4.44    1.96
   6  -7   2    4.73    2.29
  -6  -7  -2    1.03    1.86
   6  -7   2    1.62    1.96
   6  -7   3   11.61    2.69
   6  -7   3   14.41    2.53
   6  -7   3   10.48    4.27
   6  -7   3   13.49    2.71
   6  -7   3   10.77    2.32
  -6  -7  -4   91.29    6.14
   6  -7   4  100.58    6.30
   6  -7   4   97.75    6.59
   6  -7   4   87.65    5.96
   6  -7   4   82.67    9.10
   6  -7   4   90.94    6.17
  -6  -7  -5   57.07    4.54
   6  -7   5   55.64    4.52
   6  -7   5   60.06    4.97
   6  -7   5   59.93    4.44
   6  -7   6   64.15    4.78
   6  -7   6   64.84    5.18
  -6  -7  -6   59.88    4.66
   6  -7   7   29.00    3.12
   6  -7   7   30.19    3.47
   6  -7   7   31.36    3.30
  -6  -7  -7   31.63    3.16
   6  -7   8   31.50    3.06
   6  -7   8   26.88    3.16
   6  -7   8   24.23    2.82
  -6  -7  -8   27.81    2.82
   6  -7   9   48.91    3.83
   6  -7  10    7.61    1.84
   6  -8 -10    1.66    1.74
  -6  -8   9    0.43    1.59
   6  -8  -9   -0.76    2.08
  -6  -8   8    9.92    1.99
   6  -8  -8    5.19    2.49
  -6  -8   7    7.79    2.09
   6  -8  -7    7.03    2.83
   6  -8  -6    2.63    1.42
  -6  -8   6    7.64    2.08
   6  -8  -6    2.60    2.70
   6  -8  -5    4.21    1.58
  -6  -8   5    2.08    1.92
   6  -8  -5    0.68    2.87
   6  -8  -4    6.19    1.71
  -6  -8   4   10.73    2.08
   6  -8  -3   48.11    3.70
  -6  -8   3   45.75    3.65
   6  -8  -2   16.28    3.20
   6  -8  -2   22.49    2.96
   6  -8  -2   19.04    2.43
   6  -8  -1   28.77    3.56
   6  -8  -1   25.38    3.28
   6  -8  -1   26.34    2.83
   6  -8   0    5.92    2.42
   6  -8   0    6.71    2.31
   6  -8   0    5.04    1.81
   6  -8   0    4.65    1.97
   6  -8   1   37.01    3.91
   6  -8   1   39.39    3.82
   6  -8   1   40.75    3.51
   6  -8   1   39.79    3.63
   6  -8   2   15.09    2.61
   6  -8   2   15.46    2.77
   6  -8   2   13.72    2.66
   6  -8   2   17.62    2.51
   6  -8   2   15.05    2.32
   6  -8   3   43.27    3.97
   6  -8   3   41.15    3.52
   6  -8   3   44.90    4.06
   6  -8   3   42.07    3.64
   6  -8   3   40.59    3.87
   6  -8   4    0.55    1.71
   6  -8   4    2.84    1.70
   6  -8   4    4.21    2.20
   6  -8   5   22.48    2.48
   6  -8   5   13.58    2.65
   6  -8   6   27.73    2.73
   6  -8   6   22.91    2.93
   6  -8   6   25.05    3.01
   6  -8   7   13.46    2.05
   6  -8   7   12.83    2.30
   6  -8   7   16.33    2.32
   6  -8   8    3.40    1.39
   6  -8   8   -0.82    1.30
   6  -8   9   -0.53    1.26
  -6   8 -10   13.27    1.77
   6  -9  -8   11.02    1.87
   6  -9  -8   24.30    1.86
   6  -9  -7    4.21    1.74
   6  -9  -7    2.20    1.34
   6  -9  -6    1.13    1.88
   6  -9  -6    3.40    1.48
   6  -9  -5   22.64    2.98
   6  -9  -5   31.64    2.79
   6  -9  -4   25.00    3.01
   6  -9  -4   22.18    2.64
   6  -9  -3    5.21    2.21
   6  -9  -3   10.78    2.07
   6  -9  -2    5.10    2.17
   6  -9  -2    2.04    1.77
   6  -9  -2    2.03    1.64
   6  -9  -1   90.23    5.95
   6  -9  -1   95.00    5.76
   6  -9  -1   83.87    5.45
   6  -9   0   57.79    4.54
   6  -9   0   64.93    4.50
   6  -9   0   57.93    4.19
   6  -9   1   56.47    4.18
   6  -9   1   52.38    3.88
   6  -9   1   54.94    4.24
   6  -9   2   14.91    2.34
   6  -9   2   14.96    2.07
   6  -9   3   34.95    2.92
   6  -9   4   11.01    2.43
   6  -9   5   26.75    2.86
   6  -9   6    1.36    1.47
   6  -9   7    2.22    1.15
   6 -10  -5    0.26    0.95
   6 -10  -5   -0.39    0.73
   6 -10  -4   -0.53    1.13
   6 -10  -4    0.61    0.97
   6 -10  -3   21.92    2.21
   6 -10  -3   27.24    2.03
   6 -10  -3   20.94    1.81
   6 -10  -2   16.32    1.77
   6 -10  -2   13.04    1.58
   6 -10  -2   19.38    1.99
   6 -10  -1   27.74    2.21
   6 -10  -1   30.69    2.53
   6 -10   0    4.98    1.43
   6 -10   0    4.09    1.19
   6 -10   1   23.71    1.99
   6 -10   2    1.75    1.55
   6 -10   3   19.56    2.13
   6 -10   4    0.86    1.18
   6 -10   5   16.18    1.54
  -7   0  16    0.67    0.78
  -7   0  16    0.20    0.88
  -7   0  15    4.69    1.59
  -7   0  14    0.84    1.74
  -7   0  13   44.44    3.98
  -7   0  12    0.37    2.01
  -7   0  11  191.48   10.83
   7   0 -11  178.52   15.46
   7   0 -10   -3.04    4.92
   7   0  -9  100.14   10.41
  -7   0   8   -1.84    1.69
  -7   0   7    7.74    2.10
  -7   0   7    7.02    2.17
  -7   0   7    6.09    3.90
  -7   0   6    1.10    2.95
  -7   0   6    1.30    1.49
  -7   0   6   -0.13    1.40
  -7   0   5  674.00   31.74
  -7   0   5  685.26   36.12
  -7   0   4    0.46    2.77
  -7   0   3   10.36    3.75
  -7   0   2   -0.40    2.60
  -7   0   1  214.80   13.63
  -7   0   0    0.77    2.91
  -7   0  -1  285.07   17.04
  -7   0  -2   -1.63    3.26
  -7   0  -3  756.81   38.88
  -7   0  -4    1.89    2.74
  -7   0  -5  176.65   13.58
  -7   0  -6    3.84    3.36
  -7   0  -6    0.66    1.65
  -7   0  -7 1267.96   64.97
  -7   0  -7 1268.98   59.11
  -7   0  -8    0.77    3.87
   7   0   8   -0.63    1.68
  -7   0  -8    0.60    1.94
  -7   0  -9   12.41    5.10
  -7   0  -9   10.86    2.60
   7   0   9   14.00    2.41
  -7   0 -10    2.60    3.91
   7   0  10    2.57    1.91
   7   0  11  491.92   23.98
  -7   0 -11  459.89   30.47
  -7   0 -12    1.52    2.23
   7   0  12    1.31    1.78
  -7   0 -13    1.92    2.11
   7   0  13    3.92    1.79
  -7   0 -14    0.16    1.79
   7   0  14   -0.71    1.45
   7   0  15   56.07    3.63
   7   0  16    0.71    0.69
  -7   0 -16   -0.05    0.69
  -7  -1  16    0.06    0.84
  -7   1  16    2.11    0.88
  -7  -1  15    4.06    1.54
  -7   1  15    2.54    1.38
  -7   1  14    4.19    1.77
  -7   1  13   13.79    2.49
   7  -1 -13    8.57    1.70
  -7   1  12    7.20    2.39
   7  -1 -12    2.36    1.48
  -7  -1  11    1.13    2.12
  -7   1  11   -1.13    2.16
   7  -1 -11   -1.47    1.61
   7  -1 -11    0.79    3.96
   7   1 -11   -1.56    4.31
  -7  -1  10   76.17    5.35
   7   1 -10   78.19    9.16
   7  -1 -10   62.36    4.58
   7  -1 -10   60.47    8.31
   7  -1  -9   74.99    9.41
   7   1  -9   64.77    8.85
  -7  -1   8   43.72    4.02
  -7   1   8   51.25    4.18
  -7  -1   8   43.29    3.88
  -7   1   8   54.24    4.10
  -7  -1   7  259.34   17.79
  -7   1   7  276.72   18.18
  -7  -1   7  247.33   13.26
  -7   1   7  258.51   13.34
  -7  -1   7  256.64   13.15
  -7   1   7  254.85   13.14
  -7  -1   6   -0.58    1.61
  -7   1   6    2.31    1.55
  -7  -1   6    3.87    3.74
  -7   1   6   -1.11    3.13
  -7  -1   6    0.64    1.46
  -7   1   6    0.90    1.53
  -7  -1   5    6.49    3.88
  -7   1   5   13.59    4.20
  -7  -1   5    7.86    1.78
  -7   1   5    7.56    1.84
  -7  -1   4   10.06    3.65
  -7   1   4    6.92    3.07
  -7  -1   3  120.25    9.55
  -7   1   3  125.33    9.76
  -7  -1   2    6.06    3.20
  -7   1   2   11.42    3.54
  -7  -1   1  156.47   11.15
  -7   1   1  168.72   11.39
  -7  -1   0   53.77    6.13
  -7   1   0   61.94    6.23
  -7  -1  -1  372.35   21.78
  -7   1  -1  408.34   22.03
  -7  -1  -2   12.71    3.94
  -7   1  -2   11.94    3.34
  -7  -1  -3   14.06    3.99
  -7   1  -3   13.66    3.69
  -7  -1  -4   28.57    4.93
  -7   1  -4   25.78    4.70
  -7  -1  -5  579.20   32.23
  -7   1  -5  573.31   32.27
   7  -1   6   43.87    3.61
  -7  -1  -6   66.02    4.57
  -7   1  -6   57.52    4.37
  -7  -1  -6   72.69    8.55
  -7   1  -6   62.98    7.75
  -7  -1  -6   53.07    3.79
  -7  -1  -7    0.71    3.83
  -7   1  -7    3.52    3.83
   7  -1   7    2.48    1.45
  -7  -1  -7   -0.19    1.91
  -7   1  -7    2.61    2.00
  -7  -1  -8    6.91    4.39
  -7   1  -8   16.85    5.13
   7  -1   8    5.44    1.73
  -7  -1  -8    4.94    2.37
  -7   1  -8    8.79    2.42
   7   1   8    9.35    2.07
   7  -1   8    7.84    1.95
   7  -1   9  245.76   13.31
  -7  -1  -9  263.29   14.17
  -7   1  -9  259.12   14.11
   7   1   9  263.24   13.61
   7  -1   9  263.70   13.61
  -7  -1  -9  225.29   18.96
  -7   1  -9  279.14   20.07
  -7  -1 -10   60.87    9.27
  -7   1 -10   78.17    6.04
   7   1  10   80.14    5.45
   7  -1  10   76.98    5.41
  -7   1 -10   80.48   10.22
  -7  -1 -11   35.28    7.21
  -7   1 -11   26.64    6.61
   7   1  11   40.44    3.84
   7  -1  11   42.45    3.83
  -7  -1 -12    0.86    2.30
   7  -1  12   -0.48    1.84
   7   1  12    0.65    1.91
   7   1  13   75.53    4.99
  -7  -1 -13   68.48    5.45
   7  -1  13   74.90    4.96
  -7   1 -13   67.61    5.39
   7  -1  14   14.31    2.05
  -7   1 -14   17.50    2.57
   7   1  14   13.08    2.06
  -7   1 -15    3.70    1.51
   7   1  15    1.75    1.21
  -7  -1 -15    0.27    1.14
   7  -2 -16    1.33    1.05
  -7  -2  15   13.15    1.55
  -7   2  15   17.33    1.89
  -7  -2  14    0.11    1.27
  -7  -2  14   -0.72    1.54
  -7   2  14    0.36    1.55
   7  -2 -14    0.68    1.12
  -7  -2  13   11.18    2.20
  -7   2  13   10.44    2.17
   7  -2 -13    6.19    1.67
  -7  -2  12    4.41    2.02
  -7   2  12    2.88    2.01
   7  -2 -12    3.37    1.73
  -7  -2  11   31.92    3.52
  -7   2  11   38.68    3.69
   7  -2 -11   33.55    3.18
   7  -2 -11   22.94    5.70
   7   2 -11   28.72    6.04
  -7  -2  10   56.37    4.42
  -7   2  10   48.81    4.28
   7  -2 -10   44.85    3.81
   7  -2 -10   43.39    7.01
   7   2 -10   38.62    6.95
  -7  -2   9  144.34    8.24
  -7   2   9  146.20    8.30
   7  -2  -9  123.41   12.14
   7   2  -9  117.66   11.68
   7  -2  -9  128.82    7.77
  -7  -2   8    4.84    1.97
  -7   2   8    3.17    1.92
   7  -2  -8    4.53    1.58
  -7  -2   7   48.57    3.98
  -7   2   7   47.78    3.99
  -7   2   7   52.37    3.94
  -7  -2   7   52.74    3.96
   7  -2  -7   51.59    3.81
  -7  -2   6   26.50    5.17
  -7  -2   6   32.53    2.99
  -7   2   6   27.24    2.83
  -7   2   6   30.24    5.45
  -7  -2   6   29.73    3.30
  -7  -2   6   31.70    2.83
  -7   2   6   30.24    2.71
   7  -2  -6   24.35    2.50
  -7  -2   5  482.76   23.60
  -7   2   5  489.88   23.63
  -7  -2   5  500.47   23.89
  -7  -2   5  478.66   23.43
  -7   2   5  502.20   23.48
  -7  -2   5  515.36   27.82
  -7   2   5  492.84   27.57
  -7  -2   4    0.92    3.01
  -7   2   4    1.40    2.63
  -7   2   3   77.20    7.44
  -7  -2   3   82.98    7.53
  -7  -2   2   46.70    5.48
  -7   2   2   39.00    5.24
  -7  -2   1  694.87   36.80
  -7   2   1  747.76   37.12
  -7  -2   0   45.54    5.27
  -7   2   0   38.54    5.10
  -7  -2  -1  413.03   23.25
  -7   2  -1  429.59   23.45
  -7  -2  -2   31.38    4.61
  -7   2  -2   38.39    4.98
  -7  -2  -3  498.92   26.57
  -7   2  -3  459.71   26.18
  -7  -2  -4   29.47    4.99
  -7   2  -4   27.60    4.83
  -7  -2  -5    1.05    3.05
  -7   2  -5   -2.11    3.23
   7  -2   5    1.22    1.30
  -7  -2  -5    1.81    1.67
  -7  -2  -5    0.51    1.24
  -7  -2  -6    7.77    3.94
   7  -2   6    9.00    1.83
  -7  -2  -6    9.81    2.26
   7  -2   7  326.47   17.68
  -7  -2  -7  371.32   18.60
   7   2   7  382.15   17.95
   7  -2   7  367.53   17.91
  -7  -2  -7  366.58   23.64
  -7   2  -7  358.55   23.39
  -7  -2  -8   11.40    4.68
  -7   2  -8   21.97    5.31
   7  -2   8   21.75    2.69
  -7  -2  -8   16.72    3.09
  -7   2  -8   19.49    3.11
   7   2   8   16.75    2.59
   7  -2   8   22.86    2.65
  -7  -2  -9   16.88    5.22
  -7   2  -9    9.62    4.75
   7  -2   9   10.74    2.35
  -7  -2  -9   13.80    2.89
  -7   2  -9   11.12    2.87
   7   2   9   13.99    2.34
   7  -2   9   15.44    2.44
   7   2  10   98.47    6.15
   7  -2  10   88.63    5.99
  -7   2 -10   79.77    9.93
  -7   2 -10   91.14    6.67
   7  -2  10   84.68    5.78
  -7  -2 -10   90.70   10.63
   7   2  11   89.08    6.06
   7  -2  11   94.36    6.07
   7   2  12   -0.30    1.73
   7  -2  12   -1.02    1.68
  -7   2 -13    9.17    2.43
   7  -2  13    8.25    1.83
   7   2  13    7.35    1.82
   7   2  14   12.94    1.81
  -7   2 -14   12.37    2.25
  -7  -2 -14   10.81    1.92
   7  -2  14   13.23    1.77
  -7   2 -15   11.12    1.79
  -7  -2 -15   14.57    1.69
   7  -3 -15    7.02    1.83
  -7  -3  14    0.74    1.26
  -7   3  14    2.31    1.25
   7  -3 -14   -1.01    1.15
  -7  -3  13   10.44    1.81
  -7  -3  13    7.58    1.85
  -7   3  13   10.54    1.99
   7  -3 -13    8.04    1.86
  -7  -3  12    3.44    1.75
  -7  -3  12    1.63    1.74
  -7   3  12    1.92    1.65
   7  -3 -12    1.66    1.60
  -7  -3  11   83.58    5.57
  -7   3  11   86.40    5.62
   7  -3 -11   72.50    5.36
  -7  -3  10    2.70    1.93
  -7   3  10    3.03    1.98
   7  -3 -10    4.16    2.05
   7  -3 -10    4.19    2.99
   7   3 -10    6.23    3.82
  -7  -3   9  118.60    7.36
  -7   3   9  119.35    7.37
   7  -3  -9  106.71   10.80
   7   3  -9  104.63   10.77
   7  -3  -9  133.33    7.46
  -7  -3   8   72.07    5.10
  -7   3   8   70.22    5.13
  -7  -3   8   79.83    5.93
   7  -3  -8   64.48    8.35
   7   3  -8   68.04    8.26
   7  -3  -8   76.00    5.13
  -7  -3   7  158.96    8.61
  -7  -3   7  142.58    8.66
  -7   3   7  159.85    8.83
  -7  -3   7  154.21    9.30
   7  -3  -7  155.41    8.74
  -7   3   7  167.06    8.69
  -7  -3   6   32.66    3.00
  -7   3   6   31.41    2.94
  -7  -3   6   29.03    3.47
   7  -3  -6   28.04    2.85
  -7  -3   6   29.57    2.75
  -7   3   6   27.96    2.72
  -7  -3   5   77.27    5.07
  -7  -3   5   70.62    7.58
  -7   3   5   64.64    7.52
  -7   3   5   74.33    4.91
  -7  -3   5   75.20    4.92
  -7  -3   5   78.96    5.34
  -7   3   5   75.41    4.76
   7  -3  -5   77.92    4.90
  -7  -3   5   75.58    4.74
  -7  -3   4    1.35    1.34
  -7  -3   4    1.39    1.74
  -7  -3   4    2.76    2.71
  -7   3   4    1.87    2.63
   7  -3  -4    1.11    1.20
  -7  -3   4    0.98    1.23
  -7   3   4    1.11    1.26
  -7  -3   3  190.09   10.15
  -7  -3   3  196.85   13.11
  -7   3   3  193.29   13.14
  -7  -3   2    6.63    2.75
  -7   3   2    4.63    2.73
  -7  -3   1   41.40    5.24
  -7   3   1   43.64    5.45
  -7  -3   0  128.29    9.67
  -7   3   0  133.77    9.96
  -7  -3  -1  899.09   44.24
  -7   3  -1  864.67   44.19
  -7  -3  -2   87.11    7.76
  -7   3  -2   90.87    7.80
  -7  -3  -2   81.00    5.26
   7  -3   3   67.97    4.25
  -7  -3  -3   46.84    6.18
  -7   3  -3   64.52    6.70
   7  -3   3   50.12    3.92
  -7  -3  -3   60.94    4.10
   7  -3   4   44.12    3.70
  -7  -3  -4   59.52    6.51
  -7   3  -4   50.96    6.17
   7  -3   4   49.19    3.71
  -7  -3  -4   54.97    3.85
  -7  -3  -5  506.95   27.75
  -7   3  -5  482.24   27.45
   7  -3   5  482.92   23.46
  -7  -3  -6   43.89    6.45
  -7   3  -6   40.96    6.15
   7  -3   6   45.54    3.68
   7   3   6   48.01    3.66
  -7  -3  -7   15.30    4.56
  -7   3  -7   22.58    4.95
   7  -3   7   17.17    2.57
   7   3   7   16.77    2.30
   7  -3   7   18.46    2.34
  -7  -3  -8   40.20    6.52
  -7   3  -8   29.70    5.91
   7  -3   8   35.80    3.59
   7   3   8   38.30    3.40
   7  -3   8   37.25    3.40
  -7   3  -9  408.65   26.85
   7  -3   9  446.23   22.38
   7  -3   9  459.32   22.06
   7   3   9  461.95   22.17
  -7  -3 -10    6.68    3.52
  -7   3 -10    5.99    3.82
   7  -3  10    8.39    2.27
  -7   3 -10   10.34    2.90
   7   3  10    9.12    2.10
   7  -3  10    9.86    2.10
   7  -3  11   42.27    3.78
   7  -3  11   39.79    3.46
   7   3  11   41.89    3.55
   7  -3  12    0.87    1.39
   7   3  12    0.90    1.48
  -7  -3 -12    3.21    1.97
  -7   3 -13  133.66    7.87
   7  -3  13  130.44    6.95
   7   3  13  121.72    6.93
  -7  -3 -13  124.08    7.32
  -7   3 -14   24.17    2.67
  -7  -3 -14   26.35    2.43
  -7   3 -15    2.53    1.16
  -7  -3 -15    4.03    0.99
   7  -4 -15    0.69    1.14
   7  -4 -14    0.36    0.97
   7  -4 -14   -0.14    1.83
   7  -4 -13    0.74    1.30
  -7  -4  12   -1.10    1.32
  -7   4  12    1.32    1.40
   7  -4 -12    0.66    1.59
  -7  -4  11   15.21    2.29
  -7  -4  11   18.87    2.40
  -7   4  11   18.74    2.37
  -7  -4  10   80.52    5.36
  -7  -4  10   70.95    5.11
  -7   4  10   76.10    5.12
   7  -4 -10   84.21    5.53
  -7  -4   9   27.46    3.00
  -7  -4   9   23.88    2.76
  -7   4   9   23.76    2.73
   7  -4  -9   25.64    3.18
   7  -4  -9   25.00    4.93
  -7  -4   8   55.93    4.43
  -7  -4   8   50.74    4.13
  -7  -4   8   50.23    4.95
   7  -4  -8   69.49    4.75
   7  -4  -8   62.25    7.24
  -7  -4   7    9.94    2.27
  -7  -4   7    9.42    2.00
  -7  -4   7    8.35    2.79
   7  -4  -7    6.91    2.08
   7  -4  -7    8.67    3.39
  -7  -4   6    7.27    2.04
  -7  -4   6    7.63    1.60
  -7  -4   6    9.62    1.84
  -7  -4   6    9.16    2.50
   7  -4  -6    7.60    2.00
  -7  -4   5  155.64    8.58
  -7  -4   5  138.98    8.10
  -7  -4   5  152.65    8.76
  -7  -4   5  144.30    7.97
  -7   4   5  151.48    8.03
   7  -4  -5  160.04    8.63
  -7  -4   4   11.92    2.09
  -7   4   4    9.41    3.17
  -7  -4   4   13.71    2.36
   7  -4  -4   14.28    2.27
   7  -4  -4   11.61    2.64
  -7  -4   4    9.31    3.17
  -7  -4   4   10.01    1.60
  -7  -4   3  117.38    6.70
  -7  -4   3  114.19    6.20
   7  -4  -3  118.93    6.75
  -7  -4   3  111.30    6.32
   7  -4  -3   97.22    6.90
  -7  -4   3  102.94    8.73
  -7   4   3  115.00    9.15
  -7  -4   3  115.99    6.79
  -7  -4   2    8.27    2.98
  -7  -4   2   10.90    2.08
  -7   4   2   11.54    3.39
   7  -4  -2   12.19    2.16
  -7  -4   2   10.75    1.70
   7  -4  -1  323.84   15.50
   7  -4  -1  308.33   15.10
  -7  -4   1  297.52   15.22
  -7  -4   1  323.48   18.13
  -7   4   1  310.64   18.05
  -7  -4   1  294.82   15.38
  -7  -4   0   54.43    3.86
   7  -4   0   50.38    3.72
   7  -4   0   55.31    4.01
  -7  -4   0   48.85    5.46
  -7   4   0   54.48    5.72
  -7  -4   0   54.55    4.02
  -7  -4  -1  108.51    6.62
   7  -4   1  122.13    6.86
   7  -4   1  116.46    6.78
  -7  -4  -1  103.01    8.66
  -7   4  -1  111.94    8.82
   7  -4   2   57.08    4.35
   7  -4   2   66.01    4.44
  -7  -4  -2   55.68    6.13
  -7   4  -2   57.11    6.13
  -7  -4  -2   62.34    4.25
   7  -4   3  507.03   24.83
   7  -4   3  506.27   24.70
  -7  -4  -3  529.66   28.01
  -7   4  -3  472.85   27.53
  -7  -4  -3  535.85   24.80
   7  -4   4  126.34    7.77
   7  -4   4  140.52    7.72
  -7  -4  -4  135.42   10.45
  -7   4  -4  128.77   10.23
  -7  -4  -4  127.82    7.65
   7  -4   5    2.98    1.71
  -7  -4  -5    2.99    2.66
  -7   4  -5    0.50    3.02
   7  -4   5   -0.12    1.31
  -7  -4  -5   -0.67    1.75
  -7  -4  -6   53.21    6.73
   7  -4   6   63.47    4.65
   7  -4   6   47.44    6.09
   7  -4   6   67.83    4.32
  -7  -4  -6   65.32    4.93
  -7  -4  -7  116.88   10.56
   7  -4   7  123.68    7.63
   7  -4   7  129.63    7.19
  -7  -4  -7  128.41    7.87
  -7  -4  -8   91.55    8.89
   7  -4   8   89.53    5.94
   7  -4   8   78.70    5.23
   7   4   8   83.95    5.31
  -7  -4  -8   83.14    6.02
   7  -4   9    9.09    2.48
   7  -4   9    9.72    1.80
   7   4   9   10.39    1.93
   7  -4  10   18.71    2.77
  -7   4 -10   21.41    3.60
   7  -4  10   18.51    2.25
   7   4  10   17.99    2.32
   7  -4  11  127.12    7.39
  -7   4 -11  132.52    7.96
   7  -4  11  113.41    6.62
   7   4  11  118.58    6.76
  -7  -4 -11  112.43    6.68
  -7  -4 -11  127.15    7.46
   7   4  12   26.70    2.41
  -7  -4 -12   32.03    3.10
  -7  -4 -13    6.84    1.64
  -7   4 -14   -0.72    1.32
  -7  -4 -14    0.32    1.05
   7  -5 -14    0.20    0.74
   7  -5 -14    0.63    1.36
   7  -5 -13    9.46    1.59
   7  -5 -13    8.28    2.30
   7  -5 -12    7.59    1.84
   7  -5 -12    8.66    2.73
   7  -5 -11   72.50    5.03
   7  -5 -11   71.30    5.89
  -7  -5  10   16.66    2.11
   7  -5 -10   22.08    2.85
   7  -5 -10   14.45    3.68
  -7  -5   9   31.29    4.01
   7  -5  -9   36.79    3.50
   7  -5  -9   29.46    4.56
  -7  -5   9   28.13    2.90
  -7  -5   8   60.44    5.11
   7  -5  -8   60.49    4.77
   7  -5  -8   51.44    5.59
  -7  -5   8   61.60    4.40
  -7  -5   7  322.64   16.84
   7  -5  -7  334.54   16.57
   7  -5  -7  314.68   17.61
  -7  -5   7  312.38   16.19
  -7  -5   6    0.16    1.58
  -7  -5   6    3.31    2.16
   7  -5  -6    0.87    2.02
   7  -5  -6    0.50    2.56
  -7  -5   5   29.40    3.56
   7  -5  -5   36.96    3.60
   7  -5  -5   37.96    4.26
  -7  -5   5   30.65    3.25
  -7  -5   4  176.33   10.23
   7  -5  -4  202.80   10.51
   7  -5  -4  177.05   10.90
  -7  -5   4  190.99   10.25
  -7  -5   3  345.01   17.81
  -7  -5   3  337.61   17.33
   7  -5  -3  375.96   18.09
   7  -5  -3  376.46   18.69
  -7  -5   3  378.57   18.03
  -7  -5   2    5.88    1.88
  -7  -5   2    7.56    1.65
   7  -5  -2    8.55    1.78
   7  -5  -2    8.96    2.25
   7  -5  -2    8.98    2.56
  -7  -5   1    2.58    1.62
   7  -5  -1    6.02    1.70
  -7  -5   1    2.06    1.28
   7  -5  -1    6.34    2.27
   7  -5   0  161.55    9.03
   7  -5   0  152.69    8.70
  -7  -5   0  150.03    8.57
  -7  -5   0  163.42    8.90
   7  -5   1  220.75   11.91
   7  -5   1  219.95   11.79
  -7  -5  -1  223.36   11.66
   7  -5   2    0.51    1.86
   7  -5   2    3.48    1.86
  -7  -5  -2    0.30    1.47
   7  -5   3   12.56    2.49
   7  -5   3   11.08    2.23
  -7  -5  -3   10.37    2.25
   7  -5   4  426.03   21.58
   7  -5   4  440.78   21.48
  -7  -5  -4  435.62   21.57
   7  -5   5  863.57   40.40
   7  -5   5  812.34   44.26
  -7  -5  -5  859.40   40.50
   7  -5   6   17.37    2.77
   7  -5   6    9.68    3.54
  -7  -5  -6   13.88    2.79
   7  -5   7   29.64    3.36
  -7  -5  -7   28.40    3.17
  -7  -5  -7   25.30    3.32
   7  -5   8    8.82    2.52
  -7  -5  -8   11.90    2.19
   7  -5   9  123.27    7.27
  -7  -5  -9  106.51    6.71
   7  -5  10   24.17    2.90
  -7  -5 -10   23.96    2.51
  -7  -5 -10   23.65    3.10
   7  -5  11   -2.01    1.85
  -7   5 -11   -2.20    2.22
  -7  -5 -11    1.85    1.22
  -7  -5 -11    2.77    1.84
  -7  -5 -12    6.88    1.73
  -7  -5 -13  112.62    6.14
  -7   5 -14   15.81    1.56
   7  -6 -13   15.31    1.49
   7  -6 -13   15.05    1.97
   7  -6 -12   20.32    2.00
   7  -6 -12   19.27    2.60
   7  -6 -11    6.76    1.76
   7  -6 -11    5.61    2.57
   7  -6 -10   12.79    2.23
   7  -6 -10   11.19    3.11
  -7  -6   9  143.17    8.57
   7  -6  -9  143.07    8.19
   7  -6  -9  132.44    9.02
  -7  -6   8    4.06    1.33
  -7  -6   8    4.93    2.47
   7  -6  -8    4.89    2.21
   7  -6  -8    6.63    3.07
  -7  -6   7   26.29    3.35
   7  -6  -7   29.18    3.34
   7  -6  -7   32.94    4.22
  -7  -6   7   25.81    2.69
  -7  -6   6   90.14    6.03
   7  -6  -6   84.05    5.94
   7  -6  -6   91.40    6.92
  -7  -6   6   78.44    5.39
  -7  -6   5  136.74    8.17
   7  -6  -5  141.19    8.32
   7  -6  -5  127.23    8.87
  -7  -6   5  133.36    7.80
   7  -6  -4   78.01    5.44
  -7  -6   4   70.27    5.21
   7  -6  -4   69.69    5.27
   7  -6  -4   66.72    5.87
  -7  -6   4   75.76    5.07
  -7  -6   3    0.82    1.53
   7  -6  -3   -1.70    2.08
  -7  -6   3    0.87    1.81
   7  -6  -3    3.68    2.76
  -7  -6   2   15.24    2.39
   7  -6  -2   14.82    2.56
   7  -6  -2   12.20    3.09
  -7  -6   2   16.31    2.18
   7  -6  -1  144.43    7.93
   7  -6  -1  123.94    7.54
   7  -6  -1  117.64    7.38
  -7  -6   1  130.82    7.29
   7  -6  -1  102.17    7.80
   7  -6   0   -0.36    2.09
   7  -6   0    1.28    2.07
   7  -6   0    1.82    1.89
   7  -6   0   -1.18    2.01
  -7  -6   0    0.92    1.45
   7  -6   1    8.20    2.51
   7  -6   1   13.11    2.64
   7  -6   1   11.85    2.50
   7  -6   1   12.05    2.57
  -7  -6  -1   15.07    2.31
   7  -6   2   49.53    4.47
  -7  -6  -2   56.11    4.32
   7  -6   2   49.32    4.32
   7  -6   2   49.89    4.42
   7  -6   3  305.68   16.03
   7  -6   3  314.28   15.81
   7  -6   3  313.41   16.05
   7  -6   4    1.33    2.38
   7  -6   4    2.20    2.37
   7  -6   4   -0.62    3.23
   7  -6   4    0.28    1.66
  -7  -6  -4    0.17    1.85
   7  -6   5  121.90    7.63
   7  -6   5  111.92   10.31
  -7  -6  -5  109.15    7.14
   7  -6   6   72.45    5.47
  -7  -6  -6   65.88    5.02
   7  -6   6   52.96    7.17
  -7  -6  -6   68.61    5.25
   7  -6   7  225.23   12.14
   7  -6   7  199.79   11.44
  -7  -6  -7  229.67   11.76
  -7  -6  -7  215.87   11.94
   7  -6   8   83.70    5.84
  -7  -6  -8   78.76    5.37
   7  -6   9    7.37    2.13
  -7  -6  -9    5.06    1.65
   7  -6  10   28.74    3.00
  -7  -6 -10   26.36    2.47
  -7  -6 -10   30.72    3.10
  -7   6 -11   81.46    5.40
  -7   6 -12   22.00    2.27
   7  -7 -12    3.57    1.22
   7  -7 -11    5.18    1.84
   7  -7 -10    6.64    1.40
   7  -7 -10    8.08    1.77
   7  -7  -9   13.03    1.87
   7  -7  -9   12.73    2.22
   7  -7  -9    9.11    2.73
   7  -7  -8   38.80    3.37
  -7  -7   8   42.00    3.82
   7  -7  -8   49.68    3.79
   7  -7  -8   48.13    4.47
   7  -7  -7   39.56    3.49
  -7  -7   7   42.10    3.82
   7  -7  -7   45.20    3.86
   7  -7  -7   33.54    4.28
   7  -7  -6    0.73    1.70
  -7  -7   6    1.26    1.99
   7  -7  -6    1.50    2.07
   7  -7  -6   -0.23    2.72
   7  -7  -5    1.69    1.86
  -7  -7   5   -1.08    1.98
   7  -7  -5    2.59    3.11
   7  -7  -4  126.86    7.58
  -7  -7   4  116.33    7.32
   7  -7  -4  134.91    8.46
   7  -7  -3   11.68    2.28
   7  -7  -3    2.44    3.15
  -7  -7   3    6.42    1.83
   7  -7  -3   13.51    3.27
   7  -7  -2   16.18    2.78
   7  -7  -2   19.59    2.71
   7  -7  -2   17.92    4.63
   7  -7  -1   23.01    3.39
   7  -7  -1   28.73    3.35
   7  -7  -1   26.97    3.13
   7  -7  -1   26.38    5.53
   7  -7   0   71.88    5.50
   7  -7   0   79.13    5.64
   7  -7   0   79.20    5.35
   7  -7   0   72.46    5.40
   7  -7   0   62.13    8.38
   7  -7   0   76.21    5.15
   7  -7   1  143.32    8.96
   7  -7   1  168.46    9.32
   7  -7   1  160.17    8.98
   7  -7   1  156.27    9.07
   7  -7   1  147.80   12.98
   7  -7   1  151.86    8.69
  -7  -7  -1  150.71    8.85
   7  -7   2    1.67    2.01
   7  -7   2    2.63    2.22
   7  -7   2    0.33    1.83
   7  -7   2    2.47    2.09
   7  -7   2   -0.14    1.67
  -7  -7  -2    0.68    1.70
   7  -7   3   46.06    4.32
   7  -7   3   52.39    4.09
   7  -7   3   43.44    4.19
   7  -7   3   47.83    6.76
   7  -7   3   46.07    3.79
   7  -7   3   43.80    3.89
   7  -7   4  123.70    7.43
   7  -7   4  114.78    7.63
   7  -7   4  116.20    7.01
  -7  -7  -4  126.85    7.44
   7  -7   5   12.94    2.47
   7  -7   5   15.00    2.76
  -7  -7  -5   14.81    2.32
   7  -7   6   93.20    6.01
   7  -7   6   94.04    6.20
  -7  -7  -6   85.30    5.87
   7  -7   7    7.42    2.05
   7  -7   7    6.61    2.07
   7  -7   7    3.02    1.86
  -7  -7  -7    6.25    1.77
   7  -7   8    2.58    1.80
   7  -7   8    4.69    1.96
  -7  -7  -8    2.59    1.54
   7  -7   9  125.35    6.83
   7  -7   9  109.95    6.81
  -7   7 -10   61.32    4.29
  -7   7 -11    1.66    1.17
   7  -8 -10   23.49    1.93
   7  -8  -9   31.71    2.64
   7  -8  -8   13.82    2.56
   7  -8  -7   12.45    1.69
  -7  -8   7   17.65    2.22
   7  -8  -7   17.03    2.90
   7  -8  -6   59.35    4.27
   7  -8  -6   49.78    3.62
  -7  -8   6   53.47    3.84
   7  -8  -6   52.76    4.72
   7  -8  -5   31.81    3.12
   7  -8  -5   24.56    2.53
   7  -8  -4   13.14    2.69
   7  -8  -4   15.96    2.54
   7  -8  -4   14.36    2.14
   7  -8  -3    1.92    2.10
   7  -8  -3   -1.30    1.55
   7  -8  -2  124.81    7.53
   7  -8  -2  113.93    7.04
   7  -8  -1   26.91    3.19
   7  -8  -1   30.15    2.94
   7  -8  -1   24.12    2.71
   7  -8   0    3.42    2.06
   7  -8   0    7.87    2.01
   7  -8   0    6.73    1.82
   7  -8   1    0.16    1.94
   7  -8   1    1.97    1.68
   7  -8   1    1.27    1.56
   7  -8   2   83.30    5.35
   7  -8   2   84.70    5.68
   7  -8   2   75.61    5.11
   7  -8   2   79.13    5.39
   7  -8   3   55.33    4.02
   7  -8   3   50.39    4.21
   7  -8   3   45.17    3.59
   7  -8   4   43.01    3.59
   7  -8   4   48.17    4.01
   7  -8   5    2.81    1.66
   7  -8   5    6.13    2.02
   7  -8   6   80.52    4.81
   7  -8   6   73.06    5.00
   7  -8   6   64.02    4.81
   7  -8   7   72.31    4.27
   7  -8   7   66.89    4.43
   7  -8   8  125.99    6.73
   7  -8   8  123.80    6.93
  -7   8  -9    7.01    1.40
   7  -9  -7   -0.45    1.12
   7  -9  -6    0.09    1.35
   7  -9  -5    0.11    1.51
   7  -9  -5   -0.56    1.01
   7  -9  -4   35.21    3.12
   7  -9  -4   30.78    2.45
   7  -9  -3   21.82    2.58
   7  -9  -3   20.68    2.07
   7  -9  -2    5.25    1.86
   7  -9  -2    4.42    1.80
   7  -9  -2    3.48    1.37
   7  -9  -1    0.96    1.65
   7  -9  -1    5.01    1.76
   7  -9  -1    3.48    1.27
   7  -9   0   24.75    2.20
   7  -9   0   20.51    2.17
   7  -9   0   22.80    2.55
   7  -9   1    2.92    1.57
   7  -9   1    3.21    1.75
   7  -9   1    2.27    1.27
   7  -9   1    2.68    1.23
   7  -9   2   26.92    2.31
   7  -9   3    1.99    1.21
   7  -9   4   57.32    3.44
   7  -9   4   45.48    3.81
   7  -9   5   12.55    1.54
   7  -9   5    9.90    1.82
   7  -9   6   39.22    2.76
   7 -10  -3    0.88    0.83
   7 -10   1   -0.08    1.26
   7 -10   2   22.52    2.09
   7 -10   3    4.33    1.12
  -8   0  15    0.87    1.15
  -8   0  14   32.26    2.99
  -8   0  13    0.91    1.87
  -8   0  12   24.28    3.15
  -8   0  11    5.24    2.24
  -8   0  10   18.24    3.05
   8   0 -10   19.21    5.15
  -8   0   9    0.19    2.06
   8   0  -9    1.48    3.26
  -8   0   8    1.15    1.78
  -8   0   8    0.91    1.99
  -8   0   7   -1.24    1.86
  -8   0   7    0.35    1.72
  -8   0   7   -0.67    3.90
  -8   0   6   49.23    4.06
  -8   0   6   44.56    3.84
  -8   0   6   48.52    7.29
  -8   0   5   -0.61    1.45
  -8   0   5   -0.58    3.02
  -8   0   5   -0.27    1.53
  -8   0   4  211.71   11.20
  -8   0   4  212.97   14.81
  -8   0   3   -1.54    2.89
  -8   0   2   17.01    4.37
  -8   0   1    0.47    2.74
  -8   0   0  353.24   20.84
  -8   0  -1    0.48    2.76
  -8   0  -2   13.75    4.25
  -8   0  -3   -2.05    3.35
  -8   0  -4 1423.36   65.77
  -8   0  -4 1297.01   60.48
  -8   0  -5    1.18    2.98
  -8   0  -5    1.25    1.56
  -8   0  -5   -0.12    1.25
  -8   0  -6   47.06    6.67
  -8   0  -6   51.97    4.13
  -8   0  -6   41.75    3.35
  -8   0  -7   -0.68    3.71
  -8   0  -7    0.77    1.73
  -8   0  -8  276.83   14.86
   8   0   8  277.65   14.37
  -8   0  -8  260.76   20.06
  -8   0  -9    1.71    3.86
  -8   0  -9    0.22    2.20
   8   0   9   -0.17    1.97
  -8   0 -10    0.45    2.24
   8   0  10    0.86    1.93
  -8   0 -11    0.22    2.18
   8   0  11    0.33    1.91
   8   0  12  177.19    9.81
   8   0  13    0.13    1.57
   8   0  14   94.96    5.50
  -8  -1  15   12.45    1.49
  -8  -1  15   11.37    1.59
  -8   1  15   12.51    1.60
  -8  -1  14    8.77    1.82
  -8   1  14    7.95    1.74
  -8   1  13    2.93    1.76
  -8   1  12    5.76    2.32
  -8   1  11   19.49    2.88
  -8   1  10   92.49    6.32
   8  -1 -10   92.19   10.22
   8   1 -10   81.78    9.93
  -8  -1   9    9.04    2.43
  -8   1   9    9.22    2.44
   8  -1  -9    8.11    4.48
   8   1  -9   10.26    4.57
  -8  -1   8    4.23    2.19
  -8   1   8    1.31    2.01
  -8  -1   8    2.73    2.12
  -8   1   8    1.64    2.16
  -8  -1   7    4.15    1.91
  -8   1   7    5.27    1.87
  -8  -1   7    6.22    2.02
  -8   1   7    7.08    2.12
  -8  -1   7    2.67    3.70
  -8   1   7    6.73    4.02
  -8   1   6   53.22    7.18
  -8  -1   6   44.60    3.80
  -8   1   6   45.91    3.82
  -8  -1   6   44.69    6.87
  -8  -1   6   45.09    3.72
  -8   1   6   44.48    3.72
  -8   1   5    8.92    1.89
  -8  -1   5    7.84    1.96
  -8  -1   5    6.32    3.59
  -8   1   5   14.47    4.31
  -8  -1   5    7.65    1.83
  -8   1   5   10.19    1.91
  -8   1   4   85.63    5.43
  -8  -1   4   80.33    5.35
  -8  -1   4   80.85    8.28
  -8   1   4   82.66    8.55
  -8   1   3    0.42    1.49
  -8  -1   3    0.84    1.49
  -8  -1   3    1.03    3.01
  -8   1   3    0.52    2.95
  -8  -1   2  932.17   48.64
  -8   1   2  991.60   48.82
  -8  -1   1  102.29    8.95
  -8   1   1  104.50    9.18
  -8  -1   0    9.85    3.96
  -8   1   0   10.86    3.69
  -8  -1  -1   25.31    4.84
  -8   1  -1   26.42    4.76
  -8  -1  -2  337.64   20.97
  -8   1  -2  373.32   21.49
  -8  -1  -3  163.39   12.02
  -8   1  -3  133.90   11.48
  -8  -1  -3  152.72    8.19
  -8  -1  -4    7.71    4.02
  -8   1  -4    8.27    3.49
  -8  -1  -4    7.89    1.70
  -8  -1  -5    2.37    3.58
  -8   1  -5    0.59    3.32
   8  -1   5    2.17    1.28
  -8  -1  -5   -0.33    1.69
  -8   1  -5    1.41    1.57
  -8  -1  -5    0.91    1.25
  -8   1  -5    0.57    1.22
  -8  -1  -6  278.55   18.31
  -8   1  -6  255.51   17.74
   8  -1   6  247.20   12.75
  -8  -1  -6  259.95   13.50
  -8   1  -6  255.65   13.40
  -8  -1  -6  245.38   12.81
  -8  -1  -7    0.68    3.64
  -8   1  -7    0.68    3.70
   8  -1   7    0.54    1.39
  -8  -1  -7    0.99    1.88
  -8   1  -7   -0.58    1.98
  -8   1  -8    0.72    3.42
   8  -1   8   -0.57    1.57
  -8  -1  -8    0.64    2.17
  -8   1  -8    0.63    2.05
   8  -1   8    0.67    1.78
   8   1   8    0.67    1.90
   8  -1   9    1.36    1.83
   8  -1   9    5.05    1.87
  -8  -1  -9    3.32    2.65
  -8   1  -9    2.42    2.31
   8   1   9    3.09    2.07
  -8   1 -10  317.38   22.24
  -8  -1 -10  334.11   17.61
  -8   1 -10  312.65   17.34
   8   1  10  334.03   16.94
   8  -1  10  344.78   16.99
   8   1  11    8.04    2.15
  -8  -1 -11    7.12    2.48
  -8   1 -11   11.87    2.71
   8  -1  11    8.87    2.22
   8  -1  12    8.48    2.09
   8   1  12    5.64    1.98
   8  -1  13   40.37    3.25
   8   1  13   36.16    3.21
   8  -1  14  147.09    7.91
   8   1  14  155.98    7.99
  -8  -1 -15    2.14    1.03
  -8  -2  15   -0.67    0.68
  -8   2  15   -1.64    0.99
  -8  -2  15    1.08    0.91
  -8  -2  14    5.07    1.40
  -8  -2  14    6.41    1.58
  -8   2  14    5.58    1.54
  -8  -2  13    0.76    1.50
  -8  -2  13   -0.40    1.60
  -8   2  13   -0.53    1.57
  -8  -2  12   51.25    4.06
  -8   2  12   62.05    4.29
  -8  -2  11   -0.52    1.94
  -8   2  11    0.87    1.86
   8  -2 -11   -1.00    1.52
  -8  -2  10    7.64    2.31
  -8   2  10    5.08    2.29
   8  -2 -10    3.09    1.64
   8  -2 -10    0.73    3.05
   8   2 -10    3.63    3.59
  -8  -2   9    5.85    2.24
  -8   2   9    5.83    2.21
   8  -2  -9    2.87    1.61
   8  -2  -9    7.90    4.29
   8   2  -9    4.98    3.59
  -8  -2   8  131.87    7.92
  -8   2   8  135.41    7.98
   8  -2  -8  123.27    7.38
  -8  -2   8  127.93    7.66
  -8   2   8  134.68    7.80
  -8  -2   7   17.06    2.46
  -8   2   7   16.87    2.52
  -8  -2   7   22.30    2.85
  -8   2   7   21.10    2.82
   8  -2  -7   16.09    2.19
  -8  -2   6  185.17   14.02
  -8   2   6  162.83   13.71
  -8   2   6  176.86    9.67
  -8  -2   6  180.87    9.68
  -8  -2   6  158.62    9.36
  -8   2   6  174.19    9.45
  -8   2   5   86.49    5.75
  -8  -2   5  102.96    5.95
  -8  -2   5   89.61    5.62
  -8   2   5   92.13    5.64
  -8  -2   5   81.67    5.26
  -8  -2   5   99.77    9.26
  -8   2   5   86.15    8.80
  -8  -2   4   84.34    5.19
  -8   2   4   77.33    5.10
  -8  -2   4   74.22    5.04
  -8  -2   4   85.84    8.46
  -8   2   4   80.83    8.35
  -8  -2   4   70.87    4.71
  -8  -2   3   12.95    1.95
  -8   2   3   10.75    1.94
  -8  -2   3    9.35    1.91
  -8  -2   3    7.17    3.49
  -8   2   3    8.82    3.69
  -8  -2   3    9.13    1.69
  -8  -2   2  146.81    8.04
  -8  -2   2  143.47   11.20
  -8   2   2  142.32   11.29
  -8  -2   1  198.15   13.92
  -8   2   1  221.03   14.36
  -8  -2   1  202.70   10.66
  -8  -2   0  371.73   21.63
  -8   2   0  406.09   22.10
  -8  -2   0  358.37   17.92
  -8  -2  -1    2.08    1.39
  -8  -2  -1    3.87    3.24
  -8   2  -1    3.42    3.19
  -8  -2  -2   27.55    4.75
  -8   2  -2   28.77    4.82
  -8  -2  -2   28.59    2.64
  -8  -2  -2   24.19    2.64
  -8  -2  -3   -0.83    1.41
   8  -2   3    1.07    1.34
  -8  -2  -3    3.14    3.03
  -8   2  -3    1.05    3.00
  -8  -2  -3    1.33    1.34
  -8  -2  -4  122.22   10.30
  -8   2  -4  129.26   10.39
   8  -2   4  105.37    6.37
  -8  -2  -4  110.55    6.53
  -8  -2  -5    1.19    3.44
  -8   2  -5   -0.59    3.05
   8  -2   5   -0.26    1.44
  -8  -2  -5   -0.53    1.61
  -8  -2  -5   -0.43    1.33
  -8  -2  -6   66.74    8.05
  -8   2  -6   48.26    7.13
   8  -2   6   56.62    4.14
  -8  -2  -6   61.01    4.80
  -8   2  -6   54.45    4.59
  -8  -2  -7    2.70    3.48
  -8   2  -7    6.75    4.03
   8   2   7    4.48    2.03
   8  -2   7    5.14    1.75
  -8  -2  -7    3.75    2.15
  -8   2  -7    4.22    2.17
   8  -2   7    4.08    1.80
  -8  -2  -8  231.43   17.53
  -8   2  -8  221.32   17.37
   8  -2   8  230.56   12.61
  -8  -2  -8  245.55   13.50
  -8   2  -8  231.45   13.16
   8   2   8  265.49   12.85
   8  -2   8  237.78   12.73
  -8  -2  -9    2.90    3.80
  -8   2  -9   -1.45    4.00
   8  -2   9    2.13    1.81
  -8  -2  -9    3.39    2.38
  -8   2  -9    4.00    2.36
   8   2   9    3.63    2.09
   8  -2   9    2.59    1.81
  -8  -2 -10    2.15    3.32
  -8   2 -10    5.02    3.97
   8  -2  10    4.51    2.05
  -8   2 -10    6.66    2.63
   8   2  10    4.54    1.90
   8  -2  10    3.65    1.97
  -8   2 -11   46.80    4.34
   8   2  11   48.73    3.96
   8  -2  11   44.19    3.82
  -8   2 -12   37.21    3.88
   8  -2  12   37.03    3.32
   8   2  12   38.11    3.34
   8  -2  13   14.02    1.96
   8   2  13   14.94    2.00
  -8  -2 -13   12.26    2.17
   8  -2  14    2.25    1.14
   8   2  14    2.27    1.16
  -8  -2 -14    2.11    1.33
  -8  -2 -15   -0.35    0.79
  -8   3  14    1.82    1.04
  -8  -3  14    3.97    1.16
  -8  -3  13   -0.92    1.32
  -8   3  13   -0.53    1.37
  -8  -3  13    0.11    1.37
   8  -3 -13    0.67    1.15
  -8  -3  12   20.23    2.48
  -8   3  12   22.91    2.60
  -8  -3  12   16.89    2.37
   8  -3 -12   19.14    2.27
  -8  -3  11    1.10    1.76
  -8  -3  11   -0.92    1.79
  -8   3  11    0.61    1.59
   8  -3 -11   -0.13    1.51
  -8  -3  10   -0.34    1.78
  -8  -3  10    2.15    1.81
  -8   3  10    0.33    1.80
   8  -3 -10    2.75    1.61
  -8  -3   9    4.44    2.09
  -8  -3   9    3.75    1.94
  -8   3   9    1.87    1.87
   8  -3  -9    1.81    1.67
   8  -3  -9    1.35    2.97
   8   3  -9    2.66    3.00
  -8  -3   8  117.30    6.91
  -8  -3   8  101.89    6.70
  -8   3   8  107.72    6.76
   8  -3  -8   96.12   10.53
   8  -3  -8  108.31    6.55
  -8  -3   7   37.05    3.72
  -8   3   7   41.76    3.68
  -8  -3   7   38.53    3.59
  -8   3   7   44.99    3.58
   8  -3  -7   40.74    3.56
  -8  -3   7   39.71    3.43
  -8  -3   6   11.15    2.04
  -8   3   6   15.74    2.15
  -8  -3   6   12.83    2.39
  -8   3   6   15.57    2.32
  -8  -3   6   12.59    2.22
   8  -3  -6   10.54    2.04
  -8  -3   6    7.19    4.00
  -8  -3   5   12.78    2.24
  -8   3   5    9.61    2.01
  -8  -3   5    7.95    1.99
  -8  -3   5    8.50    3.36
  -8   3   5   10.40    3.84
   8  -3  -5    7.94    1.85
  -8  -3   5    7.46    1.71
  -8   3   5    8.67    1.82
  -8   3   4  141.95    7.81
  -8  -3   4  131.79    7.72
   8  -3  -4  130.57    7.60
  -8  -3   4  138.51    7.59
  -8   3   4  135.80    7.58
  -8  -3   4  140.05    7.46
  -8  -3   4  131.32   11.10
  -8   3   4  121.84   10.95
  -8   3   3   29.81    2.86
  -8  -3   3   34.36    3.01
   8  -3  -3   29.14    2.68
  -8  -3   3   30.11    2.75
  -8  -3   3   26.82    4.98
  -8   3   3   34.51    5.30
  -8  -3   2   28.17    4.81
  -8   3   2   27.59    4.85
   8  -3  -2   22.15    2.59
  -8  -3   2   28.88    2.66
  -8  -3   2   23.48    2.68
  -8  -3   1   15.02    2.23
  -8  -3   1   11.64    3.47
  -8   3   1    8.40    3.32
  -8  -3   1   13.75    2.00
  -8  -3   0   13.44    2.08
  -8  -3   0   10.57    3.51
  -8   3   0    7.30    3.16
   8  -3   0   13.31    2.03
   8  -3   0   15.79    2.21
  -8  -3   0   13.11    1.95
   8  -3   1   78.00    5.09
   8  -3   1   80.32    5.15
  -8  -3  -1   89.49    8.21
  -8   3  -1   95.06    8.40
  -8  -3  -1   80.37    5.14
  -8  -3  -1   77.85    5.28
   8  -3   2  362.03   18.28
   8  -3   2  385.31   18.30
  -8  -3  -2  376.96   22.16
  -8   3  -2  383.59   22.22
  -8  -3  -2  364.87   18.49
   8  -3   3   26.83    2.91
   8  -3   3   30.09    2.96
  -8  -3  -3   33.21    5.27
  -8   3  -3   32.37    5.25
  -8  -3  -3   29.54    3.01
  -8  -3  -3   31.18    2.81
   8  -3   4   22.46    2.57
   8  -3   4   16.52    2.34
  -8  -3  -4   12.19    4.21
  -8   3  -4   15.05    4.28
  -8  -3  -4   16.01    2.32
  -8  -3  -4   15.93    2.33
  -8  -3  -5    9.36    3.89
   8  -3   5    9.19    2.04
  -8   3  -5    7.61    3.61
  -8  -3  -6  285.41   18.87
  -8   3  -6  246.56   18.30
   8  -3   6  284.30   14.33
  -8  -3  -7   79.73    8.88
  -8   3  -7   66.60    8.32
   8  -3   7   78.66    5.40
   8   3   7   79.58    5.21
   8  -3   7   73.69    5.09
   8  -3   8    1.04    1.62
  -8  -3  -8    3.33    3.56
  -8   3  -8    0.66    2.99
   8  -3   8   -0.69    1.84
  -8   3  -8    2.65    2.37
   8   3   8    1.84    1.75
   8  -3   9   31.16    3.31
  -8  -3  -9   23.98    5.29
  -8   3  -9   29.20    5.76
  -8   3  -9   31.83    3.78
   8   3   9   30.02    3.02
   8  -3   9   30.31    3.03
   8  -3  10   80.46    5.41
  -8   3 -10   79.96    6.03
   8   3  10   83.70    5.35
   8  -3  10   70.96    5.06
  -8   3 -11   73.76    5.92
   8  -3  11   86.35    5.27
   8   3  11   82.38    5.30
  -8   3 -12    6.32    2.25
   8  -3  12    5.56    1.55
   8   3  12    5.93    1.54
  -8  -3 -12    3.88    1.21
   8  -3  13   19.11    1.90
   8   3  13   20.70    1.98
  -8  -3 -13   21.61    2.30
  -8  -3 -14   21.16    1.98
   8  -4 -14    1.31    1.44
   8  -4 -13    1.59    1.08
   8  -4 -13    2.32    1.95
  -8  -4  12    0.70    1.28
   8  -4 -12    1.17    1.37
   8  -4 -12   -0.56    2.41
  -8  -4  11   11.04    2.01
  -8   4  11   11.75    1.91
  -8  -4  11    8.86    1.79
   8  -4 -11   16.45    2.22
  -8  -4  10    5.90    1.96
  -8   4  10    6.56    1.80
  -8  -4  10    2.17    1.64
   8  -4 -10    4.69    1.89
  -8  -4   9    0.49    1.80
  -8   4   9    0.14    1.53
  -8  -4   9    0.58    1.53
   8  -4  -9    2.83    1.82
  -8  -4   8   55.89    4.27
  -8   4   8   45.22    3.86
  -8  -4   8   48.20    3.85
   8  -4  -8   49.95    4.06
   8  -4  -8   37.57    5.87
  -8  -4   7  104.85    6.54
  -8   4   7   95.29    6.10
  -8  -4   7   93.24    6.05
  -8  -4   7  104.92    6.96
   8  -4  -7   83.07    8.96
   8  -4  -7  101.70    6.37
  -8  -4   6   26.54    2.82
  -8  -4   6   27.24    3.53
   8  -4  -6   33.84    3.25
  -8  -4   6   20.62    2.49
  -8   4   6   28.83    2.67
  -8  -4   6   29.70    3.12
  -8  -4   5   80.42    5.39
  -8  -4   5   85.53    5.99
  -8  -4   5   81.03    5.18
  -8   4   5   91.28    5.33
   8  -4  -5   93.59    5.77
   8  -4  -5   82.86    6.21
  -8  -4   5   84.88    5.73
  -8  -4   4  342.84   20.31
  -8   4   4  274.07   19.36
  -8  -4   4  329.39   16.55
  -8  -4   4  335.53   16.03
  -8   4   4  330.72   16.03
   8  -4  -4  354.24   16.53
   8  -4  -4  259.46   16.55
  -8  -4   4  355.97   16.63
  -8  -4   3    0.80    1.69
  -8  -4   3    1.13    1.65
  -8  -4   3    0.96    2.38
  -8   4   3   -0.49    2.41
   8  -4  -3   -1.19    1.74
  -8  -4   3    0.88    1.26
  -8  -4   3    1.13    1.18
  -8   4   3   -0.69    1.19
  -8  -4   2  108.60    6.55
  -8  -4   2  124.72    6.88
  -8  -4   2  122.62    9.87
  -8   4   2  111.75    9.56
  -8  -4   2  123.46    7.12
   8  -4  -1    8.56    2.14
  -8  -4   1    3.23    2.69
  -8   4   1    1.40    2.50
  -8  -4   1    7.35    1.54
  -8  -4   1    5.73    1.74
   8  -4   0  367.43   17.71
   8  -4   0  336.40   17.28
  -8  -4   0  349.60   17.53
   8  -4   0  381.21   17.71
  -8  -4   0  342.99   20.79
  -8   4   0  322.76   20.57
   8  -4   1   40.96    3.63
  -8  -4  -1   37.99    5.34
  -8   4  -1   40.60    5.42
   8  -4   1   35.57    3.21
   8  -4   1   48.33    3.76
  -8  -4  -1   34.15    3.25
   8  -4   2    0.63    1.84
   8  -4   2    0.30    1.63
  -8  -4  -2    2.19    1.67
  -8  -4  -2    0.82    1.52
  -8  -4  -2    1.45    2.75
  -8   4  -2   -1.94    2.63
   8  -4   3   14.84    2.53
   8  -4   3   10.62    2.26
  -8  -4  -3   11.55    3.58
  -8   4  -3    8.04    3.44
  -8  -4  -3   11.48    2.11
   8  -4   4  118.33    7.36
   8  -4   4  123.01    7.25
  -8  -4  -4  122.66   10.24
  -8   4  -4  112.15   10.04
  -8  -4  -4  118.57    7.24
   8  -4   5  178.38   10.01
  -8  -4  -5  183.31   13.51
   8  -4   5  177.44    9.54
  -8  -4  -5  179.58   10.06
   8  -4   6   22.32    2.86
  -8  -4  -6   21.09    4.61
   8   4   6   17.09    2.23
   8  -4   6   20.65    2.38
  -8  -4  -6   26.38    2.95
   8  -4   7    1.41    1.97
  -8  -4  -7   -2.32    3.25
   8   4   7    1.99    1.50
   8  -4   7    1.29    1.40
  -8  -4  -7    4.46    2.08
   8  -4   8  124.71    7.58
   8   4   8  127.79    7.06
   8  -4   8  115.28    6.89
  -8  -4  -8  121.45    7.60
   8  -4   9   68.62    5.07
  -8   4  -9   61.68    5.31
   8   4   9   66.79    4.54
   8  -4   9   65.41    4.49
  -8  -4  -9   78.19    5.31
   8  -4  10    2.27    2.03
  -8   4 -10    6.56    2.38
   8  -4  10    3.40    1.32
   8   4  10    2.65    1.42
  -8  -4 -10    4.49    1.65
  -8  -4 -10    4.70    2.06
  -8   4 -11   18.74    2.88
   8   4  11   16.52    1.98
  -8  -4 -11   18.51    2.06
  -8   4 -12   82.85    5.10
  -8  -4 -12   60.45    3.78
  -8   4 -13   27.38    2.63
  -8  -4 -13   25.99    2.37
  -8  -4 -14    2.90    0.89
   8  -5 -13   -0.28    0.81
   8  -5 -13    0.20    1.43
   8  -5 -12   11.19    1.69
   8  -5 -12   11.13    2.46
   8  -5 -11   24.24    2.54
   8  -5 -11   24.45    3.43
  -8  -5  10    0.12    1.34
   8  -5 -10    0.82    1.69
   8  -5 -10   -0.64    2.53
  -8  -5   9   11.30    2.04
   8  -5  -9   13.63    2.41
   8  -5  -9   13.45    3.38
  -8  -5   8    4.13    1.75
   8  -5  -8    1.47    1.83
   8  -5  -8    6.75    3.05
  -8  -5   7  101.40    6.80
   8  -5  -7   97.43    6.43
   8  -5  -7   99.27    7.33
  -8  -5   7  102.95    6.38
  -8  -5   6    6.17    1.99
  -8  -5   6    2.93    2.48
   8  -5  -6    7.19    2.26
   8  -5  -6    5.39    2.81
  -8  -5   5    3.73    1.88
  -8  -5   5    4.82    2.27
   8  -5  -5    5.47    2.05
   8  -5  -5    4.03    2.73
  -8  -5   4    3.24    2.05
  -8  -5   4    2.07    2.09
   8  -5  -4    2.89    2.10
   8  -5  -4    3.59    2.46
  -8  -5   3   70.05    5.03
   8  -5  -3   74.02    5.65
  -8  -5   3   73.31    5.24
   8  -5  -2  180.68   10.34
  -8  -5   2  182.10    9.84
  -8  -5   2  200.47   10.46
  -8  -5   1    7.74    2.15
   8  -5  -1    6.21    2.27
   8  -5  -1    9.92    2.31
  -8  -5   1    6.34    1.63
  -8  -5   0    7.66    2.10
   8  -5   0   10.04    2.37
   8  -5   0    9.36    2.26
   8  -5   0    6.40    1.91
  -8  -5   0    7.51    1.91
   8  -5   1  228.35   12.31
   8  -5   1  220.59   11.99
   8  -5   1  242.10   12.25
  -8  -5  -1  217.35   11.93
   8  -5   2   36.49    3.67
   8  -5   2   38.99    3.50
   8  -5   2   33.52    3.47
  -8  -5  -2   36.43    3.35
   8  -5   3    7.27    2.35
   8  -5   3    9.89    2.32
   8  -5   3    8.25    2.22
  -8  -5  -3   10.24    2.12
   8  -5   4    1.85    2.14
   8  -5   4    2.25    1.95
  -8  -5  -4    4.01    1.95
   8  -5   5    5.96    2.21
   8  -5   5    5.53    3.35
  -8  -5  -5    3.27    2.00
   8  -5   6   63.40    4.87
   8  -5   6   55.00    6.63
  -8  -5  -6   59.48    4.81
   8  -5   7    7.95    2.48
  -8  -5  -7   10.89    2.16
  -8  -5  -7    9.05    2.33
   8  -5   8    1.89    2.07
  -8  -5  -8    3.73    1.89
  -8  -5  -8    7.85    2.31
   8  -5   9   18.98    2.78
  -8   5  -9   17.15    2.99
  -8  -5  -9   16.20    2.21
  -8  -5  -9   12.97    2.58
   8  -5  10   78.95    5.15
  -8   5 -10   77.88    5.44
  -8  -5 -10   68.68    4.63
  -8   5 -11   26.80    2.88
  -8  -5 -11   20.99    2.07
  -8   5 -12   -1.17    1.47
  -8  -5 -12    2.81    1.38
  -8   5 -13    1.48    1.05
   8  -6 -12    2.37    1.02
   8  -6 -12    8.53    1.67
   8  -6 -11    3.40    1.31
   8  -6 -11    0.64    1.20
   8  -6 -11    1.89    1.84
   8  -6 -10    4.40    1.70
   8  -6 -10    1.67    2.22
   8  -6  -9   16.28    2.39
   8  -6  -9   20.43    3.10
  -8  -6   8   -0.47    1.35
   8  -6  -8    0.30    1.84
   8  -6  -8    2.73    2.54
  -8  -6   7   50.96    4.43
   8  -6  -7   60.19    4.53
   8  -6  -7   46.74    4.70
  -8  -6   7   54.75    3.97
  -8  -6   6   12.74    2.22
   8  -6  -6   10.49    2.68
  -8  -6   6   12.41    2.68
   8  -6  -6   17.14    2.66
   8  -6  -6   16.81    3.31
   8  -6  -5   34.14    3.73
  -8  -6   5   34.50    3.45
   8  -6  -5   40.93    3.71
   8  -6  -5   30.36    3.99
  -8  -6   5   36.35    3.40
   8  -6  -4   30.95    3.48
  -8  -6   4   26.50    3.09
   8  -6  -4   25.90    3.73
  -8  -6   4   30.98    3.16
  -8  -6   3   21.09    2.78
   8  -6  -3   22.09    3.07
   8  -6  -3   17.68    3.13
   8  -6  -2   36.54    3.68
   8  -6  -2   31.04    3.41
  -8  -6   2   30.45    2.88
   8  -6  -2   29.94    3.82
  -8  -6   2   31.41    3.24
   8  -6  -1   80.28    5.51
  -8  -6   1   82.98    5.51
   8  -6   0   64.75    5.07
  -8  -6   0   68.19    4.65
   8  -6   0   54.62    4.50
   8  -6   1   16.70    2.82
   8  -6   1   17.54    2.60
  -8  -6  -1   20.27    2.61
   8  -6   2   24.93    3.29
   8  -6   2   23.05    3.03
  -8  -6  -2   24.57    2.97
   8  -6   3   16.85    3.03
   8  -6   3   16.77    2.80
   8  -6   3   10.83    4.38
  -8  -6  -3   20.48    2.72
   8  -6   4   26.89    3.36
   8  -6   4   18.58    3.08
   8  -6   4   20.50    5.00
   8  -6   5    8.55    2.49
  -8  -6  -5    7.88    2.23
   8  -6   6   10.63    2.41
   8  -6   6    9.71    2.55
  -8  -6  -6   11.54    2.38
   8  -6   7  159.11    8.91
   8  -6   7  149.67    9.00
  -8  -6  -7  150.41    8.70
   8  -6   8   68.77    4.84
   8  -6   8   62.46    4.82
  -8  -6  -8   64.11    4.51
  -8  -6  -9   22.31    2.39
   8  -6   9   25.53    2.74
   8  -6   9   21.70    2.80
  -8   6  -9   27.33    3.04
   8  -6  10    9.74    1.85
   8  -6  10    9.63    1.84
  -8   6 -10    6.58    1.88
  -8  -6 -10   10.27    1.53
   8  -6  11    0.50    1.21
  -8   6 -11   -0.64    1.36
  -8   6 -12   34.25    2.42
   8  -7 -11    9.42    1.25
   8  -7 -11   10.63    1.54
   8  -7 -10   12.45    1.50
   8  -7 -10   18.84    2.41
   8  -7  -9   10.82    1.70
   8  -7  -9   18.07    2.57
   8  -7  -8    1.20    1.36
   8  -7  -8    1.49    2.25
   8  -7  -7   46.16    3.71
   8  -7  -7   52.99    4.59
   8  -7  -6   95.18    5.86
  -8  -7   6   92.50    5.84
   8  -7  -6   88.13    6.43
   8  -7  -5    3.65    1.90
  -8  -7   5    2.77    1.69
   8  -7  -5    5.25    2.41
   8  -7  -4   36.11    3.66
   8  -7  -4   33.33    3.30
   8  -7  -4   37.05    4.13
   8  -7  -3   75.64    5.61
   8  -7  -3   78.83    5.42
   8  -7  -2   22.84    3.21
   8  -7  -2   32.29    3.56
   8  -7  -2   34.29    3.38
   8  -7  -1    6.39    2.09
   8  -7  -1    9.22    2.41
   8  -7  -1    7.12    2.24
   8  -7   0    7.75    2.21
   8  -7   0   13.83    2.61
   8  -7   0   13.70    2.50
   8  -7   1   98.27    6.49
   8  -7   1   91.87    6.14
   8  -7   1   86.65    6.00
  -8  -7  -1   91.10    5.93
   8  -7   2   51.32    4.46
   8  -7   2   50.55    4.20
   8  -7   2   46.94    4.13
  -8  -7  -2   47.62    4.10
   8  -7   3   22.93    3.18
   8  -7   3   23.78    2.95
   8  -7   3   22.42    3.02
  -8  -7  -3   27.78    3.04
   8  -7   4    1.26    1.86
   8  -7   4    2.11    1.91
   8  -7   5   28.57    3.13
   8  -7   5   26.69    3.18
  -8  -7  -5   26.33    3.04
   8  -7   6   48.46    3.92
  -8  -7  -6   44.28    3.53
   8  -7   7   10.54    2.17
  -8  -7  -7   13.02    2.04
   8  -7   8    4.64    1.64
  -8  -7  -8    3.31    1.41
   8  -7   9   39.10    3.14
  -8   7  -9   44.03    3.24
  -8   7 -10   62.06    3.81
   8  -8  -9    1.02    1.03
   8  -8  -8    1.18    1.33
   8  -8  -8    3.68    1.36
   8  -8  -7    0.31    1.59
   8  -8  -7    1.45    1.49
   8  -8  -7    0.96    1.00
   8  -8  -6    3.46    1.70
   8  -8  -6    5.19    1.80
   8  -8  -6    2.53    1.32
   8  -8  -5  120.21    6.54
   8  -8  -5  106.78    6.02
   8  -8  -4    1.89    1.84
   8  -8  -4    0.97    1.76
   8  -8  -4    1.25    1.39
   8  -8  -3    9.48    2.18
   8  -8  -3   11.40    2.34
   8  -8  -3   10.76    1.94
   8  -8  -2    6.12    1.94
   8  -8  -2    7.71    2.20
   8  -8  -2    4.68    1.72
   8  -8  -1   15.53    2.41
   8  -8  -1   23.37    2.93
   8  -8  -1   20.91    2.50
   8  -8   0    8.85    1.92
   8  -8   0    8.80    2.17
   8  -8   0   11.99    2.12
   8  -8   1   25.75    3.00
   8  -8   1   25.09    2.69
   8  -8   2   10.03    2.31
   8  -8   2   11.56    2.08
   8  -8   3   22.18    2.48
   8  -8   3   18.78    2.52
   8  -8   4   32.48    2.98
   8  -8   4   34.14    3.14
   8  -8   5   27.54    2.60
   8  -8   5   25.96    2.69
   8  -8   5   20.53    2.54
   8  -8   6    0.93    1.33
   8  -8   6    0.24    1.38
   8  -8   6    1.03    1.34
   8  -8   7    0.62    1.18
   8  -8   7    0.31    1.16
   8  -8   8   28.08    2.21
   8  -9  -7    2.59    0.82
   8  -9  -6   11.84    1.49
   8  -9  -5    3.31    1.16
   8  -9  -5    7.73    1.50
   8  -9  -4   -0.66    1.12
   8  -9  -3   19.81    2.00
   8  -9  -2   17.24    1.91
   8  -9  -1    0.08    1.18
   8  -9  -1    2.35    1.10
   8  -9   0    0.47    1.06
   8  -9   1   41.65    2.86
   8  -9   2   14.60    1.64
   8  -9   3   11.62    1.41
   8  -9   3    6.19    1.78
   8  -9   4    1.72    0.93
   8  -9   4    1.30    1.26
   8  -9   5    9.74    1.21
   8  -9   5    5.11    1.19
  -9   0  15   20.10    1.74
  -9   0  14    4.31    1.46
  -9   0  13   14.49    2.27
  -9   0  12    1.58    1.91
  -9   0  11   34.43    3.57
  -9   0  10    2.46    2.14
  -9   0   9  158.14    9.10
   9   0  -9  121.50   12.95
  -9   0   8    0.17    1.87
  -9   0   8   -0.97    1.98
  -9   0   7  176.52   14.17
  -9   0   7  158.82    9.37
  -9   0   7  157.07    9.15
  -9   0   6    1.39    3.49
  -9   0   6   -0.18    1.95
  -9   0   6   -0.16    1.75
  -9   0   5   16.51    2.66
  -9   0   5   20.26    5.36
  -9   0   5   15.19    2.52
  -9   0   4   -1.02    1.72
  -9   0   4    0.62    3.80
  -9   0   3  105.46    6.10
  -9   0   3   88.08    6.12
  -9   0   3  107.83   10.03
  -9   0   2   -0.26    1.41
  -9   0   2   -1.16    3.66
  -9   0   1   27.57    5.43
  -9   0   1   31.06    2.81
  -9   0   0   -0.56    3.19
  -9   0  -1 1052.39   53.47
  -9   0  -2   -1.16    3.30
  -9   0  -3  354.92   21.27
  -9   0  -3  322.44   16.24
  -9   0  -4    5.00    3.45
  -9   0  -4   -0.81    1.44
  -9   0  -5  582.71   31.85
  -9   0  -5  517.49   26.19
  -9   0  -5  558.67   26.00
  -9   0  -6   -3.48    3.91
  -9   0  -6    0.90    1.67
  -9   0  -6   -0.27    1.40
  -9   0  -7    1.46    3.60
  -9   0  -7    1.57    1.99
  -9   0  -7    0.90    1.30
  -9   0  -8    2.26    3.88
  -9   0  -8    1.45    2.02
   9   0   8    1.75    1.95
  -9   0  -9  141.45   12.97
  -9   0  -9  133.15    8.70
   9   0   9  150.44    8.54
  -9   0 -10   -1.67    1.97
   9   0  10   -0.17    1.80
  -9   0 -11   54.30    4.71
   9   0  11   53.95    4.33
  -9   0 -12    3.97    2.04
   9   0  12   -0.94    1.69
   9   0  13   23.47    2.40
   9   0  14    0.31    1.10
  -9  -1  15    3.13    0.80
  -9   1  15    3.57    0.88
  -9   1  15    4.17    0.95
  -9  -1  15    3.25    0.95
  -9  -1  14   15.31    1.82
  -9   1  14   15.37    1.90
  -9  -1  14   15.60    1.93
  -9  -1  13    5.31    1.67
  -9   1  13    7.11    1.80
  -9   1  12    0.31    1.82
  -9   1  11   37.49    3.78
  -9   1  10   25.88    3.27
  -9   1   9   82.41    5.82
   9  -1  -9   91.18    9.82
  -9  -1   8    1.70    2.06
  -9   1   8    3.09    2.09
  -9   1   8    0.96    2.08
  -9  -1   8    1.53    2.23
  -9  -1   7   18.86    2.88
  -9   1   7   18.88    2.73
  -9  -1   7   22.13    3.22
  -9   1   7   22.86    3.10
  -9   1   7   19.65    5.42
  -9  -1   7   20.20    5.38
  -9   1   6    0.73    1.95
  -9  -1   6    0.36    2.01
  -9  -1   6    1.38    3.25
  -9   1   6    0.70    3.90
  -9  -1   6    0.16    1.86
  -9   1   6   -0.32    1.63
  -9   1   5  258.45   13.15
  -9  -1   5  245.78   13.05
  -9  -1   5  232.59   12.76
  -9   1   5  246.82   12.85
  -9  -1   5  242.22   17.26
  -9   1   5  251.56   17.76
  -9  -1   4    0.30    1.64
  -9   1   4    1.35    1.95
  -9  -1   4    0.68    1.79
  -9  -1   4    0.62    2.78
  -9   1   4    2.49    3.32
  -9  -1   3   37.02    3.29
  -9   1   3   39.21    3.60
  -9  -1   3   41.31    3.69
  -9  -1   3   36.40    5.94
  -9   1   3   40.92    6.40
  -9  -1   2   42.30    3.42
  -9   1   2   40.98    3.16
  -9  -1   2   41.23    6.25
  -9   1   2   39.31    6.28
  -9  -1   1   96.48    9.01
  -9   1   1   82.39    8.46
  -9  -1   1   74.98    5.02
  -9  -1   0    5.19    1.57
  -9  -1   0    5.04    3.58
  -9   1   0    9.01    4.14
  -9  -1  -1  221.62   15.84
  -9   1  -1  230.88   15.94
  -9  -1  -1  232.38   11.82
  -9  -1  -1  225.03   11.79
  -9  -1  -2    1.22    1.36
  -9  -1  -2    1.74    3.51
  -9   1  -2   -1.17    3.48
  -9  -1  -2    3.15    1.50
  -9  -1  -3  470.53   26.63
  -9   1  -3  420.49   25.92
  -9  -1  -3  438.69   21.40
  -9  -1  -4   10.03    4.38
  -9   1  -4    8.16    4.05
  -9  -1  -4   13.04    2.12
  -9  -1  -4   13.53    2.08
  -9   1  -4   16.36    2.08
  -9  -1  -5   13.15    4.60
  -9   1  -5    7.89    4.10
  -9  -1  -5    8.50    2.08
  -9   1  -5    4.83    1.72
  -9  -1  -5    6.24    1.77
  -9   1  -5    3.99    1.40
  -9  -1  -6    1.39    4.08
  -9   1  -6    8.33    4.26
  -9  -1  -6    3.36    1.91
  -9   1  -6    2.86    1.81
  -9  -1  -6    3.06    1.48
  -9  -1  -7  621.72   35.52
  -9   1  -7  594.79   35.40
  -9  -1  -7  645.74   30.24
  -9   1  -7  600.00   29.96
  -9  -1  -8    2.24    3.28
  -9   1  -8   -1.49    3.76
  -9  -1  -8    0.42    2.00
  -9   1  -8    4.73    2.25
   9   1   8    1.57    1.88
   9  -1   8    1.72    2.10
  -9  -1  -9    1.50    4.14
  -9   1  -9    2.99    3.85
  -9  -1  -9    2.36    2.22
  -9   1  -9    0.42    2.07
   9   1   9   -1.03    2.15
   9  -1   9   -0.17    1.80
  -9  -1 -10   13.61    2.73
  -9   1 -10   10.35    2.56
   9   1  10   12.70    2.37
   9  -1  10   13.51    2.37
  -9  -1 -11  210.03   12.50
  -9   1 -11  225.22   12.55
   9   1  11  245.81   12.18
   9  -1  11  225.56   12.03
   9  -1  12   99.33    5.93
  -9   1 -12   96.51    6.39
   9   1  12   95.70    5.91
  -9   1 -13    4.81    1.76
   9  -1  13    3.87    1.51
   9   1  13    2.38    1.40
   9  -1  14   18.69    1.78
   9   1  14   21.22    1.88
  -9  -2  14    5.26    1.23
  -9   2  14    5.56    1.29
  -9  -2  14    4.05    1.28
  -9  -2  13    1.84    1.38
  -9   2  13    1.45    1.43
  -9  -2  13    0.22    1.49
  -9  -2  12    0.14    1.69
  -9   2  12    1.82    1.72
  -9  -2  12    3.09    1.77
  -9  -2  11    4.18    2.06
  -9   2  11   10.17    2.29
  -9  -2  11    6.97    2.12
  -9   2  10    1.23    1.91
  -9  -2  10    1.41    1.90
  -9   2   9   94.86    6.38
  -9  -2   9   98.49    6.45
   9  -2  -9   83.51    9.80
   9   2  -9   91.79   10.35
  -9   2   8   78.15    5.66
  -9  -2   8   80.01    5.65
  -9  -2   8   68.69    5.31
  -9   2   8   82.78    5.46
  -9   2   7  174.72    9.94
  -9  -2   7  175.13    9.96
  -9  -2   7  171.75    9.68
  -9   2   7  173.05    9.73
  -9   2   6    2.07    3.62
  -9  -2   6   -0.35    1.86
  -9   2   6    1.61    1.98
  -9  -2   6    2.32    2.04
  -9  -2   6    2.07    1.23
  -9  -2   6    4.08    3.69
  -9  -2   6    0.78    1.72
  -9   2   6    3.32    1.99
  -9  -2   5    9.04    2.22
  -9   2   5    9.49    2.49
  -9  -2   5   12.42    2.36
  -9  -2   5    4.51    3.76
  -9  -2   5    7.99    2.10
  -9   2   5   10.47    4.54
  -9   2   5   14.87    2.36
  -9  -2   5    7.75    1.77
  -9  -2   4    0.16    1.66
  -9  -2   4    0.62    3.16
  -9   2   4    1.25    3.27
  -9   2   4   -1.50    1.84
  -9  -2   4   -0.33    1.73
  -9  -2   4    0.40    1.34
  -9  -2   3  372.67   18.61
  -9   2   3  370.37   18.70
  -9  -2   3  363.95   18.64
  -9  -2   3  410.40   23.54
  -9   2   3  394.16   23.39
  -9  -2   3  380.04   18.46
  -9  -2   2   61.35    7.30
  -9   2   2   62.93    7.55
  -9  -2   2   49.17    3.81
  -9  -2   2   50.88    4.04
   9  -2  -1  254.58   12.97
  -9  -2   1  251.17   17.00
  -9   2   1  248.56   17.20
  -9  -2   1  264.99   13.04
  -9  -2   1  242.41   13.01
  -9  -2   0   14.03    2.14
  -9  -2   0    6.22    3.73
  -9   2   0    7.43    4.07
   9  -2   0   14.08    2.10
  -9  -2   0   10.61    2.01
   9  -2   1  240.56   12.20
  -9  -2  -1  239.03   16.51
  -9   2  -1  239.30   16.47
  -9  -2  -1  236.91   12.43
  -9  -2  -2   17.42    2.30
   9  -2   2   16.24    2.05
  -9  -2  -2    8.18    3.70
  -9   2  -2   15.30    4.33
  -9  -2  -2   14.80    2.18
   9  -2   3   93.96    5.70
  -9  -2  -3   93.22    9.35
  -9   2  -3   86.46    9.35
  -9  -2  -3   96.06    5.93
   9  -2   4    5.01    1.66
  -9  -2  -4    3.15    3.19
  -9   2  -4    7.59    4.19
  -9  -2  -4    5.82    1.83
  -9  -2  -5  383.18   23.26
   9  -2   5  343.60   17.62
  -9   2  -5  361.59   22.87
  -9   2  -5  364.25   17.98
  -9  -2  -5  357.56   17.86
   9  -2   6   22.77    2.64
  -9  -2  -6   24.57    5.50
  -9   2  -6   16.37    4.86
  -9   2  -6   19.28    2.87
   9  -2   7   21.42    2.64
  -9  -2  -7   19.11    5.15
  -9   2  -7   17.67    4.89
  -9   2  -7   26.25    3.28
   9  -2   7   23.57    2.88
   9   2   7   24.81    2.95
  -9  -2  -8    7.91    4.04
  -9   2  -8    0.72    3.55
   9  -2   8    2.01    1.80
  -9   2  -8    5.55    2.31
   9   2   8    2.17    1.92
   9  -2   8    4.09    1.94
  -9  -2  -9  208.25   16.47
  -9   2  -9  188.70   16.01
   9  -2   9  215.66   11.66
  -9   2  -9  226.28   12.34
   9   2   9  221.72   11.90
   9  -2   9  232.09   11.87
   9  -2  10   27.34    2.87
  -9   2 -10   29.63    3.60
   9   2  10   27.59    2.98
   9  -2  10   29.05    2.97
  -9   2 -11    3.71    2.24
   9   2  11    2.91    1.72
   9  -2  11    2.97    1.72
  -9   2 -12    1.60    1.77
   9  -2  12    1.80    1.42
   9   2  12   -0.12    1.37
  -9  -2 -12    1.70    1.58
  -9   2 -13  184.61    9.77
   9  -2  13  182.80    9.26
   9   2  13  182.88    9.31
  -9   2 -14   15.33    1.74
   9  -2  14   11.36    1.32
   9   2  14   12.32    1.37
   9  -3 -14    0.66    1.05
  -9  -3  13    5.29    1.31
  -9   3  13    1.70    1.13
  -9  -3  13    4.95    1.32
   9  -3 -13    1.13    1.79
  -9  -3  12   11.90    1.98
  -9   3  12   10.41    1.83
  -9  -3  12   10.07    1.91
  -9  -3  11   34.76    3.26
  -9   3  11   34.04    3.17
  -9  -3  11   33.93    3.25
   9  -3 -11   29.39    2.68
  -9  -3  10   11.02    2.29
  -9   3  10   11.36    2.24
  -9  -3  10   10.50    2.22
   9  -3 -10   13.35    2.00
  -9  -3   9    2.65    1.95
  -9   3   9    3.67    1.98
  -9  -3   9    2.68    1.93
   9  -3  -9    3.05    1.65
  -9  -3   8    1.82    1.91
  -9   3   8    6.01    2.09
  -9  -3   8    7.07    2.10
   9  -3  -8    3.75    1.70
   9  -3  -8    4.66    3.36
   9   3  -8    3.93    3.44
  -9  -3   7   27.51    3.44
  -9   3   7   29.12    3.23
  -9  -3   7   22.29    2.99
   9  -3  -7   30.81    2.93
  -9  -3   7   21.94    2.81
  -9   3   7   24.91    2.96
  -9  -3   6  143.73   12.78
  -9   3   6  152.62    8.72
  -9  -3   6  143.72    8.60
  -9  -3   6  154.38    8.47
  -9   3   6  147.89    8.46
   9  -3  -6  151.61    8.37
  -9  -3   5  371.39   23.46
  -9   3   5  356.28   23.68
  -9   3   5  376.67   18.84
  -9  -3   5  391.42   18.90
  -9  -3   5  395.86   18.70
  -9   3   5  379.20   18.66
   9  -3  -5  375.58   18.52
  -9  -3   5  356.75   18.31
  -9  -3   4   23.66    2.83
  -9  -3   4   25.92    2.70
  -9   3   4   23.96    2.66
  -9  -3   4   28.28    5.26
  -9   3   4   24.47    5.05
   9  -3  -4   20.84    2.47
  -9  -3   4   27.43    2.64
  -9  -3   3    2.91    3.72
  -9   3   3    7.10    3.96
  -9  -3   3    6.28    2.05
  -9  -3   3    2.89    1.57
  -9  -3   2  169.28   13.04
  -9   3   2  166.52   13.40
  -9  -3   2  167.06    9.24
  -9  -3   2  175.60    9.61
   9  -3  -1  426.27   20.63
   9  -3  -1  433.23   20.83
  -9  -3   1  422.86   25.12
  -9   3   1  442.69   25.34
  -9  -3   1  413.58   20.65
  -9  -3   1  415.72   20.90
  -9  -3   0   10.52    2.14
   9  -3   0   10.01    1.91
  -9  -3   0   15.79    4.20
  -9   3   0    7.42    3.53
   9  -3   0   10.20    2.06
  -9  -3   0   11.20    2.00
   9  -3   1   55.78    4.14
   9  -3   1   61.52    4.38
  -9  -3  -1   55.20    6.85
  -9   3  -1   54.08    7.04
  -9  -3  -1   52.81    4.21
  -9  -3  -1   57.74    4.37
   9  -3   2  132.08    7.95
   9  -3   2  145.66    8.07
  -9  -3  -2  163.47   12.22
  -9   3  -2  147.67   11.85
  -9  -3  -2  139.64    8.26
   9  -3   3  307.19   15.63
   9  -3   3  325.90   15.73
  -9  -3  -3  334.14   20.42
  -9   3  -3  315.33   20.27
  -9  -3  -3  303.55   15.84
  -9  -3  -3  298.68   15.41
   9  -3   4    3.69    1.78
  -9   3  -4    0.62    3.72
  -9  -3  -4    7.77    2.01
  -9  -3  -4    6.03    1.80
   9  -3   5    3.00    1.74
  -9  -3  -5    5.78    3.67
  -9   3  -5    7.72    3.78
  -9   3  -5    2.41    1.96
  -9  -3  -5    4.63    1.84
   9  -3   6  198.28   10.72
  -9  -3  -6  206.45   15.42
  -9   3  -6  189.06   14.86
  -9   3  -6  191.95   11.02
  -9  -3  -6  200.88   10.86
   9  -3   7  263.33   13.72
  -9  -3  -7  260.34   18.34
  -9   3  -7  233.22   17.98
  -9   3  -7  262.04   14.09
   9   3   7  273.39   13.68
   9  -3   7  255.38   13.53
  -9  -3  -7  267.00   13.91
   9  -3   8   10.27    2.33
  -9  -3  -8   13.84    4.33
  -9   3  -8    7.24    3.83
  -9   3  -8    7.55    2.26
   9   3   8    7.84    1.99
   9  -3   8    9.85    2.07
  -9  -3  -8    9.20    2.35
   9  -3   9    3.99    1.88
  -9   3  -9    7.46    2.36
   9   3   9    8.76    1.94
   9  -3   9    6.69    1.86
  -9  -3  -9    5.67    2.06
   9  -3  10   -0.73    1.78
   9  -3  10   -1.16    1.59
  -9   3 -10   -0.38    1.85
   9   3  10    1.60    1.51
  -9  -3 -10   -0.64    1.74
  -9   3 -11  135.38    8.15
   9  -3  11  143.51    7.53
   9   3  11  132.14    7.50
  -9  -3 -11  136.17    7.88
  -9   3 -12    3.13    1.84
   9  -3  12    1.72    1.14
   9   3  12    1.89    1.19
  -9  -3 -12    1.06    0.97
  -9  -3 -12    4.34    1.60
   9   3  13    0.60    0.88
  -9   3 -13    1.07    1.37
  -9   3 -14    1.47    0.90
   9  -4 -13   -0.46    1.33
  -9  -4  12   12.33    1.65
   9  -4 -12   12.43    1.50
   9  -4 -12    9.57    2.32
   9  -4 -11   52.19    3.72
   9  -4 -11   56.44    4.76
  -9  -4  11   63.12    4.06
  -9  -4  10    2.26    1.74
  -9   4  10   -0.12    1.49
  -9  -4  10    0.48    1.47
   9  -4 -10    0.84    1.47
   9  -4 -10    3.16    2.36
  -9  -4   9    1.11    1.85
  -9   4   9    2.00    1.62
  -9  -4   9    3.25    1.72
   9  -4  -9    2.18    1.58
   9  -4  -9    2.98    2.46
  -9  -4   8    1.36    1.80
  -9   4   8    1.57    1.65
  -9  -4   8    0.43    1.59
   9  -4  -8    0.44    1.58
   9  -4  -8    3.73    2.60
  -9   4   7  182.19    9.94
  -9  -4   7  192.66   10.02
   9  -4  -7  188.74   10.02
  -9  -4   7  193.61   10.32
  -9  -4   6   15.15    2.59
  -9  -4   6   10.94    1.87
  -9   4   6    9.86    1.89
   9  -4  -6   12.99    2.22
   9  -4  -6    7.31    2.62
  -9  -4   5   40.38    3.31
  -9   4   5   38.33    3.28
   9  -4  -5   41.97    3.64
  -9  -4   5   46.53    3.95
  -9  -4   4   11.74    3.74
  -9  -4   4   15.17    2.67
   9  -4  -4   14.64    2.29
  -9  -4   4    9.91    1.83
  -9  -4   4   10.83    1.89
  -9   4   4   13.88    2.01
  -9  -4   3  140.56    7.66
  -9   4   3  133.92    7.63
  -9  -4   3  132.09    7.71
  -9  -4   3  140.00   11.38
  -9  -4   3  143.88    8.34
  -9  -4   2   29.31    5.22
   9  -4  -2   38.86    3.60
  -9  -4   2   37.90    2.98
  -9  -4   2   36.41    3.24
   9  -4  -1    4.10    1.93
   9  -4  -1    3.11    1.89
  -9  -4   1    4.24    3.02
  -9  -4   1    2.52    1.36
  -9  -4   1    0.92    1.68
  -9  -4   0    0.90    1.87
   9  -4   0    0.16    1.92
  -9  -4   0    3.77    2.98
   9  -4   0    0.81    1.83
  -9  -4   0    1.27    1.67
   9  -4   1  181.90    9.79
   9  -4   1  177.90    9.78
  -9  -4  -1  151.58   12.53
  -9  -4  -1  163.19    9.58
  -9  -4  -1  181.58    9.93
  -9  -4  -2    6.01    3.12
   9  -4   2    4.44    1.99
   9  -4   2    5.72    2.05
  -9  -4  -2    3.47    1.43
   9  -4   3   54.73    4.51
   9  -4   3   57.42    4.55
  -9  -4  -3   60.41    7.03
  -9  -4  -3   60.92    4.35
   9  -4   4  141.39    8.34
  -9  -4  -4  140.78   11.71
  -9  -4  -4  140.53    8.20
   9  -4   5  295.18   14.62
  -9  -4  -5  261.94   18.27
   9   4   5  279.27   14.12
   9  -4   5  257.19   14.00
  -9  -4  -5  297.25   14.57
   9  -4   6    0.69    2.02
  -9  -4  -6    4.70    3.02
   9   4   6    0.27    1.42
   9  -4   6    0.91    1.47
  -9  -4  -6   -0.70    2.03
   9  -4   7   -0.34    1.90
  -9   4  -7    1.18    1.90
   9   4   7   -0.52    1.42
   9  -4   7    0.13    1.35
  -9  -4  -7    3.52    2.05
   9  -4   8   11.53    2.36
  -9   4  -8    9.20    2.32
   9   4   8    9.48    1.82
   9  -4   8    8.91    1.72
  -9  -4  -8   11.16    2.37
   9  -4   9  150.84    8.48
  -9   4  -9  152.16    8.89
   9   4   9  152.54    8.02
   9  -4   9  137.27    7.84
  -9  -4  -9  149.09    8.57
   9  -4  10   23.88    2.67
  -9   4 -10   21.48    2.87
   9   4  10   20.16    2.07
  -9  -4 -10   20.09    2.30
  -9  -4 -10   15.96    2.48
  -9   4 -11    2.34    1.77
  -9  -4 -11    2.51    1.26
  -9  -4 -11   -0.74    1.54
  -9   4 -12    1.61    1.48
  -9  -4 -12    0.50    0.74
  -9  -4 -12    0.68    1.33
  -9   4 -13   59.94    3.72
   9  -5 -12    0.38    1.31
   9  -5 -11    2.38    1.28
   9  -5 -11    1.86    1.84
  -9  -5  10    2.31    1.37
   9  -5 -10    3.93    1.55
   9  -5 -10    0.98    2.05
   9  -5  -9   73.62    4.80
   9  -5  -9   66.58    5.43
  -9  -5   9   73.18    4.82
  -9  -5   8    5.32    1.79
   9  -5  -8    6.16    1.90
   9  -5  -8    5.58    2.51
   9  -5  -7   51.14    3.99
   9  -5  -7   44.41    4.37
  -9  -5   7   43.83    3.90
  -9  -5   6   16.08    2.51
   9  -5  -6   22.61    2.89
   9  -5  -6   18.12    3.11
   9  -5  -5   23.32    2.98
  -9  -5   5   25.69    3.02
  -9  -5   4    1.25    1.78
   9  -5  -4   -0.18    2.14
  -9  -5   3   -0.36    1.98
   9  -5  -3   -0.18    2.02
  -9  -5   2   12.70    2.58
   9  -5  -2   12.01    2.48
   9  -5  -2   11.33    2.45
  -9  -5   2   13.16    1.91
   9  -5  -1   37.76    3.80
   9  -5  -1   40.67    3.81
  -9  -5   1   40.41    3.30
  -9  -5   1   38.00    3.84
  -9  -5   0    2.83    2.21
   9  -5   0    6.72    2.29
   9  -5   0    4.30    2.06
  -9  -5   0    3.56    1.74
   9  -5   1    5.01    2.09
   9  -5   1    4.32    2.24
   9  -5   1    1.95    1.66
  -9  -5  -1    1.25    1.72
   9  -5   2    3.43    2.18
   9  -5   2    3.65    2.16
   9  -5   2    2.62    1.85
  -9  -5  -2    4.40    1.96
   9  -5   3  595.37   27.74
   9  -5   3  548.48   27.48
   9  -5   3  574.22   27.59
  -9  -5  -3  558.33   27.42
   9  -5   4   22.86    2.96
   9  -5   4   16.32    2.81
  -9  -5  -4   21.55    2.73
   9  -5   5    4.17    2.23
   9  -5   5    1.07    2.92
  -9  -5  -5    4.24    1.98
   9  -5   6   27.22    3.22
  -9  -5  -6   35.31    3.33
  -9  -5  -6   29.50    3.21
   9  -5   7   94.15    6.02
  -9  -5  -7   84.83    5.72
  -9  -5  -7   88.85    5.88
   9  -5   8  111.09    6.86
  -9   5  -8  113.01    7.04
  -9  -5  -8  112.14    6.65
  -9  -5  -8  104.87    6.80
   9  -5   9   17.46    2.42
  -9   5  -9    9.90    2.22
  -9  -5  -9   16.48    2.16
  -9  -5  -9   17.00    2.38
  -9   5 -10    1.93    1.75
  -9  -5 -10    6.01    1.48
  -9  -5 -10    4.63    1.61
   9  -5  11   52.94    3.67
  -9   5 -11   58.19    3.84
  -9  -5 -11   51.70    3.24
  -9  -5 -11   53.68    3.65
  -9   5 -12   34.40    2.61
   9  -6 -11    3.81    1.13
   9  -6 -11    1.90    1.39
   9  -6 -10    4.83    1.51
   9  -6 -10    1.06    1.68
   9  -6  -9    5.72    1.74
   9  -6  -9    4.20    2.16
   9  -6  -8   50.87    4.12
   9  -6  -8   52.46    4.44
  -9  -6   8   54.99    3.72
   9  -6  -7   29.40    3.14
   9  -6  -7   25.48    3.38
  -9  -6   7   30.02    2.78
   9  -6  -6   21.18    3.28
  -9  -6   6   25.83    2.74
  -9  -6   5    1.10    1.64
   9  -6  -5   -0.38    2.04
   9  -6  -4   35.36    3.91
  -9  -6   4   47.36    3.79
  -9  -6   3   17.19    2.55
   9  -6  -3   18.37    2.85
  -9  -6   2    3.01    1.98
   9  -6  -2    3.20    2.18
   9  -6  -1    0.90    2.06
  -9  -6   1    1.64    1.51
   9  -6   0  129.90    7.87
  -9  -6   0  120.44    7.30
   9  -6   1  115.20    7.40
   9  -6   1  119.63    7.42
   9  -6   1  112.25    6.97
  -9  -6  -1  116.61    7.03
   9  -6   2   46.04    4.17
   9  -6   2   46.71    3.98
   9  -6   2   42.74    3.74
  -9  -6  -2   42.10    3.83
   9  -6   3    0.36    2.14
   9  -6   3    0.85    1.88
   9  -6   3    2.73    1.90
  -9  -6  -3    0.83    1.81
   9  -6   4  175.88    9.54
   9  -6   4  154.47    9.35
   9  -6   5  247.30   12.53
   9  -6   5  221.00   12.50
   9  -6   6   70.69    5.08
   9  -6   6   63.89    4.95
  -9  -6  -6   72.21    4.94
   9  -6   7    1.03    1.73
   9  -6   7    1.11    1.64
  -9   6  -7    3.11    1.81
  -9  -6  -7    2.35    1.69
   9  -6   8   63.25    4.38
   9  -6   8   55.53    4.32
  -9   6  -8   56.64    4.24
  -9  -6  -8   60.45    4.13
   9  -6   9   53.25    3.73
   9  -6   9   51.97    3.76
  -9   6  -9   43.71    3.60
  -9  -6  -9   52.03    3.50
   9  -6  10   43.76    2.98
   9  -6  10   34.34    2.85
  -9   6 -10   37.96    2.86
  -9  -6 -10   37.78    2.60
  -9   6 -11    2.55    0.89
   9  -7 -10    8.30    1.18
   9  -7  -9   29.78    2.23
   9  -7  -9   16.73    1.93
   9  -7  -8   17.90    2.07
   9  -7  -8   14.79    1.89
   9  -7  -8   16.86    2.21
   9  -7  -7    1.06    1.58
   9  -7  -7    0.65    1.51
   9  -7  -7   -0.80    1.80
   9  -7  -6   14.52    2.31
   9  -7  -6   16.23    2.27
   9  -7  -5   65.74    4.57
   9  -7  -5   57.62    4.34
   9  -7  -4   13.81    2.27
   9  -7  -4   18.24    2.45
   9  -7  -3    4.12    2.00
   9  -7  -3    3.36    1.87
   9  -7  -2   60.28    4.49
   9  -7  -2   47.05    4.16
   9  -7  -1   61.00    4.85
   9  -7  -1   60.83    4.60
   9  -7   0    2.01    1.99
   9  -7   0    0.92    1.81
   9  -7   1   20.91    3.06
  -9  -7  -1   18.85    2.49
   9  -7   2   55.67    4.60
   9  -7   2   59.84    4.28
  -9  -7  -2   56.30    4.29
   9  -7   3   17.60    2.52
  -9  -7  -3   20.11    2.42
   9  -7   4   11.57    2.18
   9  -7   5    8.48    1.97
   9  -7   6   42.47    3.55
  -9  -7  -6   45.44    3.53
   9  -7   7  115.84    6.67
  -9  -7  -7  114.81    6.51
   9  -7   8   70.73    4.59
  -9  -7  -8   80.47    4.53
   9  -7   9    7.60    1.34
   9  -8  -8    3.82    1.00
   9  -8  -7   31.08    2.21
   9  -8  -7   17.92    1.76
   9  -8  -6    1.97    1.14
   9  -8  -6    4.30    1.50
   9  -8  -6    4.02    1.17
   9  -8  -5    2.61    1.24
   9  -8  -5    0.64    1.43
   9  -8  -5    0.44    1.23
   9  -8  -4   25.61    2.54
   9  -8  -4   23.16    2.34
   9  -8  -3   58.04    4.08
   9  -8  -3   52.24    3.73
   9  -8  -2   18.02    2.38
   9  -8  -2   16.91    2.24
   9  -8  -1   18.17    2.55
   9  -8  -1   20.10    2.30
   9  -8   0   13.75    2.36
   9  -8   0   15.07    2.09
   9  -8   1   45.43    3.77
   9  -8   1   50.13    3.63
   9  -8   2    5.13    1.65
   9  -8   3    1.09    1.43
   9  -8   4   22.38    2.33
   9  -8   5   34.70    2.49
   9  -8   5   17.05    2.01
   9  -8   6   30.68    2.45
   9  -8   7   35.26    2.44
   9  -9  -5    5.36    1.04
   9  -9  -4    3.01    1.08
   9  -9  -3    1.66    1.11
   9  -9  -2   71.86    3.66
   9  -9  -2   45.06    3.07
   9  -9  -1   16.03    1.80
   9  -9  -1   11.58    1.38
   9  -9   0   16.98    1.58
   9  -9   1    0.19    0.87
   9  -9   2   25.27    1.93
   9  -9   3   25.52    1.70
   9  -9   3    9.82    1.57
 -10   0  14    3.66    1.08
 -10   0  14    3.58    1.20
 -10   0  13   -0.50    1.28
 -10   0  13   -0.43    1.47
 -10   0  12    8.36    2.14
 -10   0  11   -1.29    2.01
 -10   0  10   29.65    3.53
 -10   0   9    0.19    2.10
 -10   0   8    5.93    2.09
 -10   0   8    0.79    2.24
 -10   0   7    4.02    2.23
 -10   0   7    0.76    3.78
 -10   0   7    1.60    2.38
 -10   0   6   56.61    4.67
 -10   0   6   56.95    8.27
 -10   0   6   48.17    4.25
 -10   0   5    0.19    2.03
 -10   0   5    2.16    3.85
 -10   0   5   -0.68    1.86
 -10   0   4  122.86    7.35
 -10   0   4  125.73    7.75
 -10   0   4  111.48   11.20
 -10   0   3   -0.76    1.57
 -10   0   3   -0.68    3.36
 -10   0   2  163.26   13.17
 -10   0   2  143.85    8.27
 -10   0   1   -0.70    1.54
 -10   0   1    2.62    3.43
 -10   0   0   39.68    6.59
 -10   0   0   34.90    3.10
 -10   0  -1    0.13    1.38
 -10   0  -1    4.57    3.84
 -10   0  -2  141.97   12.00
 -10   0  -2  119.14    7.19
 -10   0  -3   -1.36    4.06
 -10   0  -3    0.76    1.51
 -10   0  -4   81.35    9.57
 -10   0  -4   96.56    5.96
 -10   0  -5   -1.44    3.71
 -10   0  -5    2.55    1.58
 -10   0  -5    1.49    1.57
 -10   0  -6   53.17    7.79
 -10   0  -6   52.82    4.33
 -10   0  -6   49.89    3.93
 -10   0  -7   -0.56    2.03
 -10   0  -7   -0.67    1.31
 -10   0  -8   24.94    3.09
  10   0   8   20.78    2.89
 -10   0  -9   -1.73    2.11
  10   0   9   -1.16    1.81
 -10   0 -10  259.23   13.79
  10   0  10  257.39   13.45
 -10   0 -11    2.13    1.72
  10   0  11    2.43    1.55
  10   0  12   26.91    2.54
  10   0  13    0.08    1.13
  10   0  14    7.68    1.03
 -10   0 -14    4.51    0.93
 -10  -1  14    3.26    1.04
 -10   1  14    5.55    1.12
 -10  -1  14    5.72    1.12
 -10   1  13    7.53    1.58
 -10   1  13   12.54    1.82
 -10  -1  13   10.54    1.76
 -10   1  12    5.02    1.79
 -10  -1  11    2.85    1.84
 -10   1  11    2.35    1.83
 -10   1  10    3.16    2.20
 -10   1   9   15.24    2.62
 -10  -1   8    1.88    2.03
 -10   1   8    2.07    1.90
 -10   1   8    4.48    2.32
 -10  -1   7    1.51    3.31
 -10  -1   7    2.07    1.97
 -10   1   7    4.00    2.20
 -10   1   7    1.38    2.12
 -10   1   7   -0.76    3.51
 -10  -1   6  177.05   10.01
 -10  -1   6  170.44   14.56
 -10   1   6  197.00   15.34
 -10   1   6  189.11   10.25
 -10  -1   6  164.90   10.01
 -10  -1   6  162.80    9.76
 -10   1   6  178.21    9.87
 -10  -1   5   -0.69    1.79
 -10   1   5    1.35    2.08
 -10  -1   5   -0.38    2.07
 -10  -1   5    2.86    3.31
 -10   1   5    1.44    3.25
 -10  -1   5    0.67    1.90
 -10   1   5    1.19    1.77
 -10  -1   4   12.47    4.47
 -10  -1   4   19.31    2.75
 -10   1   4   17.08    2.33
 -10   1   4   18.86    5.36
 -10   1   4   14.66    2.77
 -10  -1   4   11.09    2.59
 -10  -1   3    1.78    1.62
 -10   1   3    0.14    1.40
 -10  -1   3    1.35    3.48
 -10   1   3    1.36    3.00
  10  -1  -2  142.38    8.12
 -10  -1   2  143.47   12.67
 -10   1   2  163.43   13.12
 -10  -1   2  143.74    8.42
 -10   1   2  152.89    8.21
 -10  -1   1   58.82    7.75
 -10   1   1   56.79    7.70
 -10  -1   1   65.13    4.63
 -10  -1   0   70.82    8.45
 -10   1   0   89.50    9.29
 -10  -1   0   73.02    5.01
 -10  -1  -1   13.47    2.17
 -10  -1  -1   11.10    4.45
 -10   1  -1   14.43    4.47
 -10  -1  -1   10.72    2.11
 -10  -1  -2    2.42    1.57
 -10  -1  -2    4.64    4.07
 -10   1  -2    4.66    3.86
 -10  -1  -2    3.40    1.76
 -10  -1  -3    0.68    3.88
 -10   1  -3   -0.68    3.89
 -10  -1  -3    3.43    1.70
 -10  -1  -4  193.93   15.24
 -10   1  -4  180.87   14.72
 -10  -1  -4  188.54   10.25
 -10   1  -4  187.07   10.20
 -10  -1  -5    7.20    4.49
 -10   1  -5    7.92    4.31
 -10  -1  -5    7.24    2.04
 -10   1  -5    7.77    1.87
 -10  -1  -6   19.12    5.45
 -10   1  -6   18.38    5.30
 -10  -1  -6   17.17    2.67
 -10   1  -6   21.31    2.73
 -10  -1  -6   14.65    2.29
 -10   1  -6   17.05    2.18
 -10  -1  -7   55.59    7.69
 -10   1  -7   34.08    6.80
 -10  -1  -7   45.14    4.19
 -10   1  -7   49.50    4.17
 -10  -1  -8  148.70   13.60
 -10   1  -8  133.86   13.33
 -10  -1  -8  164.16    9.62
 -10   1  -8  158.49    9.48
  10   1   8  173.99    9.60
  10  -1   8  171.88    9.49
 -10   1  -9    0.94    1.90
  10   1   9   -0.16    1.80
  10  -1   9    0.32    1.86
 -10   1 -10    1.78    1.94
  10   1  10   -0.15    1.81
  10  -1  10    0.15    1.79
 -10   1 -11    2.71    1.78
  10   1  11    1.31    1.53
  10  -1  11    0.26    1.66
 -10   1 -12   64.32    4.49
  10  -1  12   63.52    4.19
  10   1  12   66.70    4.23
  10  -1  13   22.07    1.92
  10   1  13   19.57    1.91
 -10  -1 -13   16.64    1.86
  10  -1  14   -0.31    0.62
  10   1  14    0.68    0.66
 -10   2  14    2.96    0.81
 -10  -2  13    4.16    1.25
 -10   2  13    5.08    1.35
 -10  -2  13    2.91    1.29
  10  -2 -13    0.48    1.20
 -10  -2  12   17.95    2.31
 -10   2  12   24.01    2.47
 -10  -2  12   19.65    2.42
 -10   2  11    6.54    1.95
 -10  -2  11    7.59    1.95
 -10   2  10   19.52    2.69
 -10  -2  10   18.65    2.66
 -10   2   9   19.82    2.93
 -10  -2   9   17.24    2.82
 -10  -2   8   18.77    2.64
 -10  -2   8   17.79    2.89
 -10   2   8   19.96    2.75
 -10   2   8   19.85    3.00
 -10  -2   8   20.29    3.06
 -10  -2   7   13.68    2.45
 -10   2   7   13.27    2.47
 -10  -2   7   11.87    2.72
 -10   2   7   13.04    2.60
 -10  -2   7   14.78    2.76
 -10  -2   6    8.28    2.40
 -10   2   6    7.17    2.39
 -10  -2   6    7.56    2.23
 -10  -2   6    8.66    4.00
 -10   2   6    6.59    4.51
 -10  -2   6    7.40    1.68
 -10  -2   6    8.38    2.15
 -10   2   6    7.85    2.15
 -10   2   5    8.54    4.20
 -10  -2   5    7.39    2.32
 -10   2   5   10.61    2.54
 -10  -2   5    8.38    2.40
 -10  -2   5    8.80    2.14
 -10   2   5    9.61    2.25
 -10  -2   5    5.51    1.73
 -10  -2   5    8.42    4.02
 -10  -2   4   43.10    6.82
 -10   2   4   56.91    7.77
 -10   2   4   46.45    4.03
 -10  -2   4   47.86    3.88
 -10  -2   4   48.66    4.22
 -10   2   3   66.31    8.39
 -10  -2   3   58.73    7.78
 -10  -2   3   64.18    4.59
 -10  -2   3   62.21    4.77
  10  -2  -2  287.83   15.19
 -10  -2   2  311.44   20.33
 -10   2   2  326.84   20.72
 -10  -2   2  299.19   15.34
 -10  -2   2  309.17   15.47
 -10  -2   1   -0.66    1.73
 -10  -2   1   -1.32    3.32
 -10   2   1   -1.33    3.42
  10  -2  -1    0.14    1.52
 -10  -2   1    1.24    1.63
 -10  -2   0   40.96    6.77
 -10   2   0   50.55    7.38
  10  -2   0   50.61    3.96
 -10  -2   0   52.78    4.10
 -10  -2   0   56.02    4.27
 -10  -2  -1    0.65    3.30
 -10   2  -1    3.29    3.87
 -10  -2  -1    2.85    1.78
  10  -2   1    1.64    1.40
  10  -2   2  263.90   13.76
 -10  -2  -2  272.16   18.69
 -10   2  -2  274.37   18.93
 -10  -2  -2  289.47   14.18
 -10  -2  -2  263.72   14.14
  10  -2   3   20.24    2.46
 -10  -2  -3   27.03    5.57
 -10   2  -3   15.60    5.02
 -10  -2  -3   20.36    2.68
  10  -2   4    9.42    2.00
 -10  -2  -4   11.77    4.65
 -10   2  -4   18.75    4.72
 -10  -2  -4   10.61    2.24
 -10   2  -4    7.96    1.90
 -10  -2  -4   10.89    1.83
  10  -2   5    8.42    1.99
 -10  -2  -5   17.69    5.21
 -10   2  -5    7.09    4.43
 -10  -2  -5   11.78    2.27
 -10   2  -5    8.12    1.85
 -10  -2  -5    9.55    1.98
  10  -2   6  243.06   12.35
 -10  -2  -6  246.94   17.78
 -10   2  -6  229.59   17.33
 -10   2  -6  228.01   12.52
  10  -2   7   31.32    3.03
 -10  -2  -7   31.52    5.97
 -10   2  -7   27.27    5.66
 -10   2  -7   27.88    3.22
  10   2   7   30.90    3.35
  10  -2   7   26.29    3.03
  10  -2   8   45.30    3.79
 -10   2  -8   57.65    4.47
  10   2   8   53.91    4.14
  10  -2   8   46.31    4.03
  10  -2   9    6.38    1.73
 -10   2  -9    3.98    2.09
  10   2   9    8.12    2.09
  10  -2   9    4.86    1.70
 -10   2 -10  106.98    7.00
  10   2  10  116.38    6.76
  10  -2  10  118.35    6.71
 -10  -2 -10  109.89    6.78
  10   2  11    8.79    1.75
  10  -2  11    8.69    1.74
 -10  -2 -11    3.88    1.62
 -10   2 -12    0.84    1.49
  10  -2  12    0.27    1.18
  10   2  12    2.67    1.27
 -10  -2 -12    1.12    1.29
  10  -2  13    4.83    1.04
  10   2  13    4.31    1.05
 -10  -2 -13    6.62    1.21
 -10  -3  13    3.03    1.00
 -10   3  13    4.75    1.00
 -10  -3  12    7.01    1.49
  10  -3 -12    3.31    1.67
 -10  -3  11    5.89    1.80
 -10   3  11    5.95    1.68
 -10  -3  11    5.35    1.69
  10  -3 -11    6.49    1.97
 -10  -3  10   14.56    2.46
 -10   3  10   17.12    2.34
 -10  -3  10   16.64    2.33
  10  -3 -10    9.42    2.49
 -10  -3   9    0.83    1.76
 -10   3   9    3.23    1.87
 -10  -3   9    1.71    1.81
  10  -3  -9    0.18    2.08
 -10  -3   8   63.50    5.04
 -10   3   8   66.50    4.91
 -10  -3   8   66.00    4.87
 -10  -3   7   17.10    2.46
 -10   3   7   17.83    2.54
 -10   3   7   18.33    2.79
 -10  -3   7   23.25    2.88
 -10  -3   6    6.41    2.07
 -10   3   6    4.21    2.01
 -10  -3   6    6.46    2.23
 -10  -3   5   18.55    2.84
 -10   3   5   20.68    2.67
 -10  -3   5   20.78    5.13
 -10  -3   5   17.39    2.26
 -10   3   5   23.21    5.04
 -10  -3   5   20.57    2.58
 -10  -3   4   21.76    2.93
 -10  -3   4   21.87    2.67
 -10  -3   4   17.05    4.47
 -10   3   4   17.33    4.64
 -10   3   4   18.65    2.54
 -10  -3   4   18.99    2.37
 -10  -3   3   44.50    6.52
 -10   3   3   51.80    7.06
 -10  -3   3   44.54    3.87
 -10  -3   3   56.18    4.34
 -10  -3   2   11.97    2.52
  10  -3  -2   11.05    2.43
 -10  -3   2    5.74    3.73
 -10   3   2   10.35    3.94
 -10  -3   2   11.22    2.15
 -10  -3   1   13.27    2.55
  10  -3  -1   14.38    2.36
 -10  -3   1    9.62    4.13
 -10   3   1    8.45    3.80
 -10  -3   1   10.25    2.22
  10  -3   0  624.68   29.05
 -10  -3   0  616.61   34.16
 -10   3   0  587.53   33.98
 -10  -3   0  605.41   29.10
 -10  -3   0  582.63   29.20
 -10  -3  -1    8.56    2.31
  10  -3   1    7.66    1.92
 -10  -3  -1   10.87    4.04
 -10   3  -1    3.23    3.40
  10  -3   1    6.19    2.12
 -10  -3  -1    5.67    2.08
 -10  -3  -2   25.24    5.55
 -10   3  -2   18.88    4.75
  10  -3   2   14.79    2.28
  10  -3   2   17.48    2.58
  10  -3   3   13.03    2.38
 -10  -3  -3   13.08    4.30
 -10  -3  -3   11.37    2.32
 -10   3  -3    5.26    3.90
  10  -3   4  207.43   11.18
 -10  -3  -4  225.48   16.17
 -10   3  -4  192.48   15.36
 -10  -3  -4  217.29   11.46
 -10  -3  -4  204.83   11.00
  10  -3   5    3.65    1.97
 -10  -3  -5    6.72    3.59
 -10   3  -5    1.34    3.18
 -10  -3  -5    0.75    1.60
  10  -3   6  151.06    8.91
 -10  -3  -6  166.63   13.51
 -10   3  -6  130.81   12.67
 -10   3  -6  181.21    9.28
  10   3   6  167.40    8.95
  10  -3   6  136.62    8.71
 -10  -3  -6  163.54    9.01
  10  -3   7   15.84    2.47
 -10   3  -7   13.16    2.47
  10   3   7   16.59    2.40
  10  -3   7   15.66    2.33
 -10  -3  -7   15.09    2.47
  10  -3   8  143.98    7.95
 -10   3  -8  132.50    8.19
  10   3   8  136.56    7.81
  10  -3   8  135.51    7.77
 -10  -3  -8  132.37    7.95
  10  -3   9    0.82    1.55
 -10   3  -9    0.17    1.77
  10   3   9   -0.39    1.56
  10  -3   9   -0.12    1.34
 -10  -3  -9    0.89    1.56
  10  -3  10   21.20    2.26
 -10   3 -10   17.72    2.48
  10   3  10   18.23    2.19
  10  -3  10   17.30    2.11
 -10  -3 -10   14.61    2.23
 -10   3 -11    5.59    1.65
  10  -3  11    3.05    1.19
  10   3  11    5.72    1.37
 -10  -3 -11    3.03    1.55
 -10   3 -12   71.93    4.37
  10   3  12   71.96    3.89
 -10  -3 -12   60.46    3.68
 -10  -3 -12   71.12    4.17
 -10  -3 -13    6.52    1.05
  10  -4 -13    2.70    0.79
 -10  -4  12    9.25    1.26
  10  -4 -12    3.56    1.29
 -10  -4  11    3.78    1.32
  10  -4 -11   -1.20    1.49
 -10  -4  10   17.35    2.19
  10  -4 -10   10.08    2.39
 -10  -4   9    7.54    1.98
  10  -4  -9    5.45    1.49
  10  -4  -9    6.33    2.21
  10  -4  -8   32.99    3.02
  10  -4  -8   34.58    3.63
 -10  -4   7   11.32    2.46
  10  -4  -7   16.30    2.25
 -10  -4   6   22.46    3.01
 -10  -4   6   21.07    2.45
 -10   4   6   27.26    2.63
 -10  -4   5   25.04    2.69
 -10   4   5   27.20    2.76
 -10  -4   5   30.96    3.38
 -10  -4   4  225.77   16.85
  10  -4  -4  271.74   13.50
 -10  -4   4  239.08   12.70
 -10   4   4  256.28   12.84
 -10  -4   4  243.32   12.71
  10  -4  -3    1.54    1.81
  10  -4  -3    1.22    1.94
 -10  -4   3    3.05    1.60
 -10  -4   3    2.15    1.56
 -10   4   3    3.00    1.47
 -10  -4   3    2.33    2.76
  10  -4  -2   92.27    5.99
  10  -4  -2  108.55    6.53
 -10   4   2   82.12    5.69
 -10  -4   2   99.12    6.10
 -10  -4   2  100.89    9.43
 -10  -4   1    1.32    1.99
  10  -4  -1    1.25    1.73
  10  -4  -1    2.71    2.06
 -10  -4   1    1.92    1.42
 -10  -4   1   -2.31    2.97
 -10  -4   1   -0.16    1.60
  10  -4   0  118.82    7.15
  10  -4   0  125.75    7.35
 -10  -4   0   99.39    9.98
 -10  -4   0  117.75    7.13
 -10  -4   0  110.72    7.31
  10  -4   1  125.92    7.33
  10  -4   1  115.16    7.38
 -10  -4  -1  108.52   10.50
 -10  -4  -1  122.78    7.35
 -10  -4  -1  117.72    7.52
  10  -4   2   41.60    3.79
 -10  -4  -2   43.13    6.27
  10  -4   2   52.39    4.21
 -10  -4  -3   11.27    3.97
  10  -4   3   13.68    2.55
  10  -4   4   44.52    3.78
 -10  -4  -4   36.79    3.39
 -10  -4  -4   45.71    6.29
  10  -4   5    4.34    1.90
  10   4   5    0.13    1.42
  10  -4   5    0.52    1.47
 -10  -4  -5   -0.46    1.54
  10  -4   6   29.85    3.19
 -10   4  -6   30.21    3.08
  10   4   6   27.74    2.70
  10  -4   6   27.44    2.76
 -10  -4  -6   32.11    3.08
  10  -4   7    7.44    2.14
 -10   4  -7   12.91    2.19
  10   4   7    8.97    1.75
  10  -4   7   10.70    1.73
 -10  -4  -7    8.77    2.03
  10  -4   8   15.87    2.36
 -10   4  -8   11.39    2.21
  10   4   8   14.74    1.90
  10  -4   8   12.08    1.76
 -10  -4  -8   13.17    2.23
  10  -4   9   23.48    2.53
 -10   4  -9   22.24    2.56
  10   4   9   17.50    1.99
 -10  -4  -9   18.40    2.39
  10  -4  10   79.05    4.73
 -10   4 -10   67.96    4.75
 -10  -4 -10   75.13    4.57
 -10  -4 -10   71.34    4.67
 -10   4 -11    6.60    1.61
 -10  -4 -11    8.39    1.26
 -10  -4 -11    5.18    1.39
 -10   4 -12   21.34    1.85
 -10  -4 -12   23.27    1.86
  10  -5 -11    0.96    1.21
 -10  -5  10   11.35    1.59
  10  -5 -10    8.47    1.82
  10  -5 -10    6.49    1.75
 -10  -5   9    8.56    1.75
  10  -5  -9    4.04    1.88
 -10  -5   8    5.68    1.82
  10  -5  -8    7.88    2.16
 -10  -5   7    2.58    1.70
  10  -5  -7    0.62    1.97
 -10  -5   6    4.58    2.03
  10  -5  -6    6.72    2.21
  10  -5  -5   29.21    3.50
 -10  -5   5   33.49    3.37
  10  -5  -4  158.60    9.36
  10  -5  -4  175.16    9.74
 -10  -5   4  176.43    9.77
  10  -5  -3   46.71    3.99
  10  -5  -3   48.31    4.15
 -10  -5   3   46.06    4.12
  10  -5  -2   51.62    4.26
  10  -5  -2   61.13    4.54
 -10  -5   2   46.01    4.25
  10  -5  -1   88.72    6.07
  10  -5  -1   96.92    6.21
 -10  -5   1   85.08    5.52
  10  -5   0   59.11    4.82
  10  -5   0   61.95    4.85
 -10  -5   0   64.75    4.54
  10  -5   1    2.06    2.00
  10  -5   1    4.33    2.22
 -10  -5  -1    2.00    1.53
  10  -5   2   32.57    3.46
  10  -5   2   27.25    3.35
 -10  -5  -2   30.82    3.18
  10  -5   3   57.71    4.42
 -10  -5  -3   49.67    4.06
  10  -5   4   26.00    2.98
  10  -5   4   26.67    3.16
 -10  -5  -4   25.10    2.96
  10  -5   5   32.53    3.32
  10  -5   5   36.83    3.53
  10  -5   6    3.92    1.96
  10  -5   6    0.16    1.61
 -10  -5  -6    4.26    1.88
  10  -5   7   35.06    3.46
  10  -5   7   43.19    3.68
 -10  -5  -7   43.11    3.57
 -10  -5  -7   42.42    3.52
  10  -5   8  154.30    8.92
  10  -5   8  177.88    9.04
 -10  -5  -8  168.31    8.85
 -10  -5  -8  154.05    8.76
  10  -5   9   13.97    2.03
  10  -5   9    8.73    1.77
 -10  -5  -9   10.27    1.68
  10  -5  10    5.45    1.38
 -10  -5 -10    5.89    1.28
 -10  -5 -11   11.23    1.15
  10  -6 -10    2.19    0.84
  10  -6 -10    1.18    1.10
  10  -6  -9   25.66    2.24
 -10  -6   8    1.19    1.16
  10  -6  -8    0.69    1.35
 -10  -6   7    8.80    1.65
  10  -6  -7    6.38    1.74
  10  -6  -6   29.03    2.90
 -10  -6   6   26.79    2.73
  10  -6  -5   38.27    3.44
 -10  -6   5   39.58    3.47
 -10  -6   4    6.86    2.07
  10  -6  -4    6.74    2.08
  10  -6  -4    8.27    2.24
  10  -6  -3   58.57    4.60
  10  -6  -3   62.40    4.66
 -10  -6   3   55.69    4.44
  10  -6  -2   95.09    6.24
  10  -6  -2   94.32    6.27
  10  -6  -1    5.93    2.10
  10  -6  -1    6.02    2.23
 -10  -6   1    5.42    1.51
  10  -6   0   14.99    2.70
  10  -6   0   13.58    2.66
 -10  -6   0   15.43    2.18
  10  -6   1   15.68    2.65
  10  -6   1   16.95    2.66
 -10  -6  -1   11.07    2.11
  10  -6   2   61.65    4.79
  10  -6   2   60.80    4.65
 -10  -6  -2   60.95    4.47
  10  -6   3   25.93    3.04
  10  -6   3   22.34    2.66
 -10  -6  -3   30.92    3.01
  10  -6   4   17.26    2.60
  10  -6   4   10.79    2.07
 -10  -6  -4   14.69    2.35
  10  -6   5   58.25    4.38
  10  -6   5   59.61    4.31
  10  -6   6   72.98    4.85
  10  -6   6   62.42    4.59
 -10  -6  -6   72.85    4.73
  10  -6   7   44.31    3.40
  10  -6   7   36.60    3.17
 -10  -6  -7   37.71    3.14
  10  -6   8    8.99    1.81
  10  -6   8    6.46    1.50
 -10  -6  -8    9.33    1.52
  10  -6   9   12.02    1.63
 -10  -6  -9    7.14    1.31
  10  -7  -9   11.95    1.26
  10  -7  -8    1.48    1.01
  10  -7  -8    1.54    1.05
  10  -7  -7    8.67    1.52
  10  -7  -7    6.81    1.49
  10  -7  -6    6.55    1.59
  10  -7  -6    7.53    1.70
  10  -7  -5  111.59    6.54
  10  -7  -5  115.88    6.56
  10  -7  -4    1.13    1.65
  10  -7  -4    3.55    1.72
  10  -7  -3   18.97    2.58
  10  -7  -2   12.39    2.25
  10  -7  -1   63.31    4.57
  10  -7   0   40.52    3.58
  10  -7   1    0.86    1.70
 -10  -7  -2   12.18    1.91
 -10  -7  -3  102.25    6.10
  10  -7   4   37.70    3.25
  10  -7   4   37.52    2.95
 -10  -7  -4   34.64    3.08
  10  -7   5    1.49    1.51
  10  -7   5   -0.32    1.23
  10  -7   6    9.62    1.71
  10  -7   6    7.69    1.47
 -10  -7  -6    7.18    1.53
  10  -7   7   55.14    3.73
 -10  -7  -7   60.01    3.64
  10  -7   8   35.62    2.52
  10  -8  -6    0.56    0.97
  10  -8  -6    0.63    0.78
  10  -8  -5    7.11    1.39
  10  -8  -5    7.60    1.26
  10  -8  -4    6.30    1.44
  10  -8  -4    6.11    1.35
  10  -8  -3   13.42    1.88
  10  -8  -3   13.91    1.73
  10  -8  -2   17.07    2.06
  10  -8  -2   12.15    1.79
  10  -8  -1    3.47    1.47
  10  -8  -1    4.59    1.47
  10  -8   0    3.28    1.50
  10  -8   0    2.51    1.44
  10  -8   1   60.93    3.94
  10  -8   2   50.39    3.43
  10  -8   3    1.68    1.22
  10  -8   4    3.41    1.25
  10  -8   5   17.66    1.76
  10  -8   6    8.85    1.22
 -11   0  13   12.30    1.52
 -11   0  12    1.50    1.32
 -11   0  12    0.33    1.44
 -11   0  11   19.58    2.51
 -11   0  11   26.17    2.78
 -11   0  10   -2.31    1.80
 -11   0  10    0.16    1.93
 -11   0   9    8.75    2.16
 -11   0   9    5.69    2.31
 -11   0   8   -0.17    1.67
 -11   0   8   -1.01    1.87
 -11   0   8    0.19    2.18
 -11   0   7   17.38    2.69
 -11   0   7   17.13    2.72
 -11   0   7   25.60    3.32
 -11   0   6    0.17    1.89
 -11   0   6    1.82    2.20
 -11   0   6   -1.55    3.58
 -11   0   6    0.53    1.74
 -11   0   5   91.15    6.28
 -11   0   5   96.60    6.30
 -11   0   5   89.43   10.27
 -11   0   4    2.01    1.85
 -11   0   4   -2.26    3.96
 -11   0   3   75.16    9.32
 -11   0   3   73.42    5.15
 -11   0   2    0.16    1.61
 -11   0   2    0.74    3.89
 -11   0   1  292.86   20.01
 -11   0   1  276.56   14.27
 -11   0   0   -0.15    1.51
 -11   0   0    1.46    3.81
 -11   0  -1  516.92   30.53
 -11   0  -1  534.73   24.74
 -11   0  -1  481.47   24.31
 -11   0  -2    0.73    3.84
 -11   0  -2   -0.33    1.79
 -11   0  -3  172.37   14.53
 -11   0  -3  182.04   10.08
 -11   0  -4    2.25    3.92
 -11   0  -4   -0.16    1.66
 -11   0  -5   18.86    5.72
 -11   0  -5   29.31    3.00
 -11   0  -6    2.26    3.72
 -11   0  -6    0.62    1.48
 -11   0  -6    1.61    1.55
 -11   0  -7  236.59   13.01
  11   0   7  261.17   13.32
 -11   0  -8    0.82    1.69
  11   0   8   -0.16    1.77
  11   0   9    9.09    2.21
  11   0  10   -1.05    1.71
  11   0  11   31.40    2.79
  11   0  12    0.17    1.08
 -11   0 -12    0.60    1.02
  11   0  13    3.37    0.94
 -11   1  13    2.30    0.96
 -11  -1  12    6.16    1.60
 -11   1  12    9.88    1.53
 -11   1  12    7.66    1.71
 -11  -1  12    9.05    1.78
 -11  -1  11   17.44    2.31
 -11   1  11   14.00    2.08
 -11   1  11   13.76    2.24
 -11  -1  10    0.15    1.74
 -11   1  10    1.21    1.57
 -11   1  10    2.62    1.96
 -11  -1   9   39.42    3.77
 -11   1   9   43.53    3.95
 -11  -1   8    4.24    1.97
 -11   1   8    4.94    2.09
 -11  -1   8    3.99    2.12
 -11   1   8    3.72    2.24
 -11  -1   7   31.89    3.51
 -11   1   7   29.72    3.26
 -11   1   7   39.50    3.89
 -11  -1   7   32.82    3.41
 -11   1   7   34.35    3.49
 -11  -1   7   25.24    2.74
 -11  -1   6   34.54    3.67
 -11   1   6   28.12    3.19
 -11  -1   6   44.30    7.33
 -11   1   6   36.18    6.70
 -11   1   6   31.67    3.70
 -11  -1   6   30.45    3.37
 -11   1   6   33.71    3.47
 -11  -1   6   32.17    3.06
 -11  -1   5    3.41    2.16
 -11   1   5    2.70    1.91
 -11  -1   5   -0.75    4.03
 -11  -1   5    1.75    2.14
 -11   1   5    2.30    2.09
 -11   1   5    8.37    4.13
 -11  -1   5    2.63    1.82
 -11   1   4   29.31    3.06
 -11  -1   4   26.16    5.70
 -11   1   4   22.59    6.03
 -11  -1   4   28.80    3.00
 -11  -1   4   35.32    3.38
  11  -1  -3  151.30    9.43
 -11  -1   3  178.33   14.78
 -11   1   3  193.70   15.13
 -11  -1   3  205.24   10.21
 -11  -1   3  196.75   10.21
 -11   1   3  180.35    9.78
 -11  -1   2    2.54    1.87
 -11   1   2   -1.39    1.61
 -11  -1   2   -0.74    3.24
 -11   1   2   -0.74    3.08
 -11  -1   2   -0.83    1.74
 -11  -1   1    5.00    2.02
 -11  -1   1    4.41    4.13
 -11   1   1    5.17    4.28
 -11  -1   1    3.83    2.05
 -11  -1   0  154.39   13.23
 -11   1   0  153.67   13.21
 -11  -1   0  140.37    8.37
 -11  -1  -1  310.51   20.61
 -11   1  -1  283.28   20.25
 -11  -1  -1  298.27   15.18
 -11  -1  -1  284.95   14.96
 -11  -1  -2    0.16    1.59
 -11  -1  -2    2.18    1.89
 -11  -1  -2    1.46    3.75
 -11   1  -2    2.19    3.83
 -11  -1  -3   36.77    6.80
 -11  -1  -3   37.96    3.65
 -11   1  -3   41.25    7.01
 -11   1  -3   36.83    3.52
 -11  -1  -4    2.23    3.44
 -11   1  -4    5.95    4.51
 -11  -1  -4    4.84    1.95
 -11   1  -4    4.98    1.71
 -11  -1  -5  414.96   25.69
 -11   1  -5  391.11   25.50
 -11  -1  -5  401.23   19.67
 -11   1  -5  387.06   19.41
 -11  -1  -6    4.47    3.76
 -11   1  -6    2.98    3.60
 -11  -1  -6    5.26    1.87
 -11   1  -6    3.22    1.43
 -11   1  -7   14.81    2.24
  11   1   7   18.69    2.80
  11  -1   7   16.68    2.84
 -11   1  -8    7.55    1.94
  11   1   8    6.08    2.15
  11  -1   8    8.41    2.23
 -11   1  -9  214.11   12.06
  11   1   9  251.37   12.27
  11  -1   9  230.56   12.11
 -11   1 -10    6.02    1.75
  11   1  10    7.86    1.91
  11  -1  10    6.27    1.81
  11   1  11    2.87    1.46
  11  -1  11    2.72    1.44
 -11  -1 -11    1.65    1.24
  11  -1  12    1.02    1.10
  11   1  12    0.88    1.12
 -11  -1 -12    0.87    0.97
  11  -1  13  116.06    5.95
  11   1  13  124.19    6.00
 -11  -2  13    2.93    0.84
 -11   2  12    0.53    0.95
 -11   2  11    0.39    1.26
 -11   2  10   14.64    2.06
 -11   2  10   16.27    2.40
 -11  -2  10   14.73    2.39
 -11  -2   9   62.69    4.72
 -11   2   9   62.10    4.58
 -11  -2   9   62.25    4.69
 -11  -2   8   32.76    3.63
 -11   2   8   38.22    3.68
 -11  -2   8   41.40    3.87
 -11  -2   7   14.55    2.51
 -11   2   7   18.89    2.75
 -11  -2   7   15.61    2.86
 -11   2   7   15.66    2.27
 -11   2   7   16.09    2.70
 -11  -2   7   16.89    2.85
 -11   2   6   21.29    2.79
 -11  -2   6   21.25    2.99
 -11  -2   6   19.66    5.61
 -11   2   6   15.07    2.40
 -11   2   6   19.92    5.54
 -11  -2   6   20.81    2.35
 -11  -2   6   20.43    2.76
 -11  -2   5  231.79   17.42
 -11   2   5  208.94   17.24
 -11   2   5  215.17   11.82
 -11  -2   5  235.13   12.26
 -11   2   5  241.11   12.32
 -11  -2   5  222.34   11.90
 -11  -2   5  232.95   12.39
 -11  -2   4    0.18    1.79
 -11  -2   4   -0.72    3.87
 -11   2   4   -0.73    3.77
 -11  -2   4    1.02    1.89
 -11   2   4   -0.17    1.86
 -11  -2   4   -0.62    1.59
 -11  -2   3   15.09    4.84
 -11   2   3   21.85    5.81
 -11  -2   3   18.12    2.87
  11  -2  -3   22.18    2.76
 -11  -2   3   21.89    2.70
 -11  -2   2   18.37    2.75
  11  -2  -2   19.34    2.56
 -11  -2   2   20.81    5.19
 -11   2   2   20.32    5.20
 -11  -2   2   20.42    2.60
  11  -2  -1   57.55    4.42
 -11  -2   1   65.92    8.47
 -11   2   1   73.15    8.89
 -11  -2   1   62.26    4.68
 -11  -2   1   64.39    4.87
  11  -2   0   69.95    4.83
 -11  -2   0   68.29    8.68
 -11   2   0   65.95    8.62
 -11  -2   0   73.89    5.09
 -11  -2   0   65.66    5.10
 -11  -2  -1   15.76    2.63
 -11  -2  -1    7.87    4.55
 -11   2  -1    7.92    4.02
  11  -2   1   15.16    2.30
 -11  -2  -2   18.67    4.96
 -11   2  -2   30.31    6.34
  11  -2   2   26.69    2.82
 -11  -2  -2   31.24    3.29
  11  -2   3  332.69   16.44
 -11  -2  -3  331.21   22.16
 -11   2  -3  319.06   21.88
 -11  -2  -3  327.86   16.81
  11  -2   4   13.22    2.11
 -11  -2  -4   14.47    4.53
 -11   2  -4   12.31    4.42
 -11  -2  -4   14.07    2.35
 -11   2  -4   10.42    2.01
  11  -2   5   45.03    3.53
 -11  -2  -5   39.71    6.58
 -11   2  -5   41.15    6.74
 -11  -2  -5   42.60    3.75
 -11   2  -5   40.21    3.40
  11  -2   6   37.20    3.14
 -11  -2  -6   36.31    6.14
 -11   2  -6   27.06    5.92
 -11  -2  -6   36.64    3.21
  11  -2   7  238.55   12.38
 -11   2  -7  227.61   12.58
  11   2   7  276.04   13.05
  11  -2   7  269.89   13.01
 -11  -2  -7  222.19   12.44
 -11   2  -8    2.64    1.55
  11   2   8    3.08    1.72
  11  -2   8    2.31    1.63
 -11  -2  -8    0.94    1.54
 -11   2  -9    5.70    1.76
  11   2   9    6.80    1.78
  11  -2   9    7.45    1.85
 -11  -2  -9    6.85    1.70
 -11   2 -10   18.54    2.28
  11   2  10   17.85    2.18
  11  -2  10   20.44    2.23
 -11  -2 -10   17.30    2.11
 -11   2 -11   91.52    5.35
  11  -2  11   91.54    5.18
  11   2  11   97.01    5.28
 -11  -2 -11   84.15    5.12
  11  -2  12    5.00    1.03
  11   2  12    2.72    1.02
 -11  -2 -12    3.29    0.77
 -11  -2 -12    2.43    0.97
 -11  -3  12    7.80    1.22
  11  -3 -12    1.51    1.04
 -11  -3  11   -0.20    1.28
 -11   3  11   -0.35    0.94
 -11  -3  10    2.25    1.56
 -11   3  10    1.96    1.18
 -11   3   9    9.49    1.72
 -11   3   8   27.98    2.60
 -11  -3   7   77.89    5.34
 -11   3   7   89.48    5.51
 -11  -3   6    2.96    1.66
 -11   3   6    2.88    1.81
 -11  -3   6    2.87    2.01
 -11  -3   5    2.57    2.22
 -11  -3   5   -2.71    3.35
 -11   3   5    2.06    3.25
 -11  -3   5    1.30    1.44
 -11  -3   5    5.33    1.94
 -11   3   5    5.29    2.00
 -11  -3   4   -0.93    1.84
 -11  -3   4    2.04    2.90
 -11   3   4    0.69    3.18
  11  -3  -4    0.66    1.84
 -11  -3   4    0.15    1.42
 -11  -3   4    1.56    1.76
 -11   3   4    2.22    1.75
  11  -3  -3   82.56    5.82
 -11   3   3   64.64    8.94
 -11  -3   3   82.69    5.66
 -11   3   3   90.16    5.78
 -11  -3   3   92.39    5.80
 -11  -3   3   95.70    9.75
 -11  -3   3   88.38    6.12
 -11  -3   2   -0.19    1.94
  11  -3  -2    1.61    1.96
 -11  -3   2    0.65    1.62
 -11  -3   2    3.39    3.13
 -11   3   2   -4.11    3.97
 -11  -3   1   17.21    2.88
  11  -3  -1   23.50    2.90
 -11  -3   1   16.34    4.88
 -11   3   1   13.06    4.78
 -11  -3   1   18.80    2.85
 -11  -3   0    4.55    2.19
 -11  -3   0    7.58    4.06
  11  -3   0    3.00    2.00
 -11   3   0    2.79    3.45
 -11  -3   0    7.71    2.11
 -11  -3  -1   64.56    8.52
  11  -3   1   85.89    5.48
 -11   3  -1   70.51    8.93
 -11  -3  -1   79.88    5.77
 -11  -3  -2   15.02    4.38
 -11   3  -2    3.43    3.82
  11  -3   2   11.42    2.29
  11  -3   3   96.33    5.85
 -11  -3  -3   82.51    9.34
 -11   3  -3   71.09    8.95
 -11  -3  -3   85.12    5.89
  11  -3   4   47.26    3.83
 -11   3  -4   47.80    3.69
 -11  -3  -4   48.03    6.74
 -11   3  -4   39.93    6.94
  11  -3   5  217.42   11.06
 -11  -3  -5  194.94   10.62
  11  -3   6    0.43    1.64
  11   3   6   -1.02    1.54
  11  -3   6   -0.14    1.60
 -11  -3  -6    0.53    1.36
  11  -3   7    0.27    1.54
  11   3   7    1.76    1.52
  11  -3   7    1.06    1.48
 -11  -3  -7    0.26    1.41
  11  -3   8    2.84    1.56
  11   3   8    2.69    1.56
  11  -3   8    1.19    1.39
 -11  -3  -8    4.64    1.59
  11  -3   9  127.60    7.08
  11   3   9  133.56    7.19
  11  -3   9  139.84    7.20
 -11  -3  -9  120.96    7.15
  11   3  10    1.74    1.19
  11  -3  10    3.20    1.20
 -11  -3 -10    1.55    1.25
  11   3  11    0.80    0.90
 -11  -3 -11    1.73    0.96
 -11  -3 -11    3.98    1.18
  11  -4 -12    2.61    0.82
 -11  -4  11    0.51    0.95
  11  -4 -11    1.05    1.13
 -11  -4  10    2.42    1.39
  11  -4 -10    4.44    1.53
 -11  -4   9   12.43    2.01
 -11  -4   8    4.16    1.81
  11  -4  -7   43.36    3.98
 -11  -4   7   55.52    4.20
  11  -4  -6   25.17    3.26
 -11  -4   6   40.09    3.61
  11  -4  -5   94.01    6.34
 -11  -4   5   98.74    5.83
 -11   4   5   94.24    5.79
 -11   4   4    7.52    1.81
  11  -4  -4    8.48    1.91
  11  -4  -4   10.60    2.40
 -11  -4   4    5.96    1.71
 -11  -4   3    5.42    2.36
  11  -4  -3    7.06    1.88
  11  -4  -3    5.80    2.23
 -11  -4   3    5.31    1.78
 -11  -4   3    9.17    1.82
 -11   4   3    7.81    1.80
 -11  -4   2    6.45    2.45
  11  -4  -2    7.55    1.86
  11  -4  -2    8.63    2.38
 -11  -4   2    7.90    1.85
 -11  -4   2    7.10    1.70
 -11   4   2    7.04    1.82
 -11  -4   1   23.93    3.21
  11  -4  -1   20.73    2.67
  11  -4  -1   28.00    3.14
 -11  -4   1   21.92    2.35
 -11  -4   1   24.25    2.86
 -11  -4   0    3.07    2.05
  11  -4   0    2.61    1.81
  11  -4   0    3.99    2.08
 -11  -4   0    1.08    1.46
 -11  -4   0    1.68    1.70
  11  -4   1    8.80    2.09
  11  -4   1   12.73    2.40
  11  -4   2   84.11    5.75
  11  -4   3  111.83    6.95
  11  -4   4   83.81    5.66
  11  -4   5   12.08    2.26
  11   4   5   11.44    1.91
  11  -4   5    9.54    1.77
  11  -4   6   94.49    5.86
  11   4   6   89.41    5.35
  11  -4   6   89.47    5.33
 -11  -4  -6   86.83    5.44
  11  -4   7  137.80    7.44
  11   4   7  129.37    6.93
 -11  -4  -7  117.68    7.09
  11  -4   8   27.88    2.67
  11   4   8   24.43    2.19
 -11  -4  -8   25.62    2.45
  11  -4   9   11.42    1.74
 -11  -4  -9   12.62    1.78
 -11  -4  -9   12.43    1.70
 -11  -4 -10   10.18    1.48
 -11  -4 -10   10.58    1.44
 -11  -4 -11   47.87    2.79
  11  -5 -11    6.05    0.97
 -11  -5  10    1.23    0.88
  11  -5 -10    0.45    1.07
 -11  -5   9   10.71    1.63
  11  -5  -9   10.48    1.80
  11  -5  -8   31.04    2.51
  11  -5  -8   35.75    3.12
 -11  -5   7    2.13    1.70
  11  -5  -7    2.50    1.30
  11  -5  -7    0.52    1.80
 -11  -5   6    3.56    1.80
  11  -5  -6   -0.44    1.36
  11  -5  -6    2.25    1.92
  11  -5  -5   21.74    2.54
  11  -5  -5   26.91    2.98
 -11  -5   5   30.03    3.06
 -11  -5   4   21.54    2.81
  11  -5  -4   18.75    2.52
  11  -5  -3   29.40    3.03
  11  -5  -3   35.72    3.46
 -11  -5   3   33.00    3.46
  11  -5  -2    0.43    1.60
  11  -5  -2    3.37    2.01
  11  -5  -1   11.40    2.24
  11  -5  -1   12.00    2.51
 -11  -5   1   12.33    1.80
  11  -5   0   71.33    4.74
  11  -5   0   68.59    4.87
  11  -5   1   53.50    4.23
  11  -5   1   60.73    4.60
 -11  -5  -1   60.23    4.30
  11  -5   2    3.99    2.03
 -11  -5  -2    4.54    1.74
  11  -5   3   40.58    3.68
 -11  -5  -3   39.96    3.54
  11  -5   4   77.40    5.24
 -11  -5  -4   71.84    5.06
  11  -5   5   96.70    5.84
 -11  -5  -5   95.84    5.78
  11  -5   6    9.53    2.02
  11  -5   6    5.26    1.61
  11  -5   7   13.79    2.07
  11  -5   7   13.28    1.96
 -11  -5  -7   17.47    2.08
  11  -5   8   27.40    2.65
 -11  -5  -8   33.27    2.77
  11  -5   9    8.39    1.53
 -11  -5  -9   10.63    1.47
 -11  -5 -10   16.69    1.47
  11  -6  -8    8.43    1.19
  11  -6  -8    9.52    1.65
  11  -6  -7    1.87    1.19
  11  -6  -7    0.40    1.42
  11  -6  -6    0.85    1.27
  11  -6  -6    0.23    1.38
  11  -6  -5   19.99    2.27
  11  -6  -5   22.84    2.55
  11  -6  -4    0.59    1.44
  11  -6  -4    1.58    1.65
  11  -6  -3   13.46    2.15
  11  -6  -3   13.51    2.35
  11  -6  -2   22.66    2.60
  11  -6  -2   21.09    2.73
  11  -6  -1   40.71    3.45
  11  -6  -1   38.85    3.49
  11  -6   0    0.42    1.60
  11  -6   0    2.48    1.87
 -11  -6   0    2.74    1.29
  11  -6   1    8.62    1.99
  11  -6   1   10.69    2.20
 -11  -6  -1    9.85    1.83
  11  -6   2   25.68    2.96
 -11  -6  -2   29.57    2.73
  11  -6   3   76.99    5.12
 -11  -6  -3   74.73    4.93
  11  -6   4    6.36    1.81
 -11  -6  -4    6.07    1.70
  11  -6   5   21.73    2.51
 -11  -6  -5   20.62    2.35
  11  -6   6   13.38    2.04
  11  -6   7   30.85    2.53
 -11  -6  -7   26.83    2.44
  11  -6   8   13.05    1.63
 -11  -6  -8   13.68    1.52
 -11  -6  -9    6.77    0.96
  11  -7  -7   27.95    2.19
  11  -7  -6    0.91    1.00
  11  -7  -5    1.52    1.19
  11  -7  -4   13.62    1.80
  11  -7  -3    6.12    1.53
  11  -7  -2    0.64    1.40
  11  -7  -1   -1.21    1.40
  11  -7  -1   -0.23    1.45
  11  -7   0   53.88    3.94
  11  -7   0   63.31    4.16
  11  -7   1   37.80    3.12
  11  -7   2    4.74    1.59
  11  -7   3    7.22    1.65
  11  -7   4    2.35    1.39
 -11  -7  -4    5.01    1.34
  11  -7   5  105.02    5.82
  11  -7   6    9.84    1.44
  11  -7   7    0.48    0.86
  11  -8  -4    3.54    0.90
  11  -8  -4    4.30    0.92
  11  -8  -3    2.22    0.99
  11  -8  -3    2.58    0.99
  11  -8  -2   14.32    1.58
  11  -8  -1   13.84    1.53
  11  -8   0    0.79    1.01
 -12   0  12    2.88    1.00
 -12   0  11    1.02    1.22
 -12   0  10    1.61    1.43
 -12   0   9    1.20    1.57
 -12   0   8   13.83    2.31
 -12   0   8   18.71    2.46
 -12   0   7   -1.13    1.75
 -12   0   7   -0.31    1.78
 -12   0   7    0.13    1.38
 -12   0   6  128.46    7.66
 -12   0   6  123.67    7.54
 -12   0   5   -0.98    1.76
 -12   0   5    3.05    3.92
 -12   0   5    0.52    1.93
 -12   0   4   36.11    6.92
 -12   0   4   53.53    4.26
 -12   0   4   41.67    3.84
 -12   0   3    0.77    3.29
 -12   0   3   -0.80    1.74
 -12   0   2   68.74    9.12
 -12   0   2   74.65    5.13
 -12   0   1    0.92    1.55
 -12   0   1   -1.56    3.34
 -12   0   0  223.84   17.57
 -12   0   0  251.54   12.58
 -12   0   0  219.50   12.08
 -12   0  -1   -0.77    4.17
 -12   0  -1    0.52    1.86
 -12   0  -2  113.16   11.37
 -12   0  -2  113.29    7.12
 -12   0  -3    0.33    1.84
 -12   0  -3    4.57    3.76
 -12   0  -4  183.58   15.65
 -12   0  -4  200.84   10.81
 -12   0  -5    0.61    1.57
 -12   0  -6   35.63    3.17
  12   0   7   -1.27    1.80
  12   0   8   50.71    3.97
  12   0   9   -0.50    1.56
  12   0  10   14.77    1.98
  12   0  11   -0.16    1.11
  12   0  12   50.73    2.94
 -12  -1  12   25.18    2.02
 -12   1  12   21.85    1.79
 -12  -1  11    6.98    1.52
 -12   1  11    5.48    1.26
 -12  -1  10    2.82    1.64
 -12   1  10    3.44    1.40
 -12  -1   9    0.27    1.56
 -12   1   9    1.34    1.41
 -12   1   8   23.36    2.62
 -12  -1   8   19.75    2.72
 -12   1   7   43.41    3.61
 -12  -1   7   42.53    3.72
 -12   1   7   45.32    3.78
 -12  -1   7   40.12    3.24
 -12  -1   7   49.12    4.00
 -12  -1   6   21.52    2.74
 -12   1   6   17.65    2.40
 -12  -1   6   18.03    2.23
 -12  -1   6   18.67    2.60
 -12   1   6   21.17    2.72
 -12  -1   5    0.86    1.69
 -12   1   5    0.59    1.56
 -12  -1   5    0.60    1.47
 -12  -1   5   -0.34    1.90
 -12   1   5   -0.69    1.76
 -12  -1   4   95.63    6.35
 -12   1   4   97.25    6.40
 -12  -1   4   96.12    6.19
 -12  -1   4   80.12    9.95
 -12   1   4   85.34   10.33
 -12  -1   4   96.18    6.33
 -12   1   4   96.36    6.00
 -12  -1   3    0.69    1.88
 -12   1   3   -1.41    1.60
 -12  -1   3    4.55    3.83
 -12   1   3   -2.29    3.69
 -12  -1   3    0.34    1.77
 -12  -1   2   19.16    2.75
 -12  -1   2   17.52    5.12
 -12   1   2   24.51    5.85
 -12  -1   2   20.90    2.90
 -12  -1   1   57.74    8.61
 -12   1   1   57.24    8.17
 -12  -1   1   60.70    4.67
 -12  -1   0  114.02   11.61
 -12   1   0  108.27   11.77
 -12  -1   0  121.03    7.29
 -12  -1  -1   72.20    8.90
 -12   1  -1   75.60    9.29
 -12  -1  -1   71.50    5.19
 -12  -1  -1   71.48    5.07
 -12  -1  -2  176.41   14.90
 -12   1  -2  176.01   14.98
 -12  -1  -2  181.47   10.14
 -12   1  -2  182.62   10.16
 -12  -1  -3    2.26    3.79
 -12   1  -3    4.52    3.80
 -12  -1  -3    2.05    1.87
 -12   1  -3    3.44    1.90
 -12  -1  -4   12.75    2.27
 -12  -1  -4    5.94    3.46
 -12   1  -4   12.68    2.27
 -12  -1  -5    0.16    1.52
 -12   1  -5   -0.57    1.45
 -12   1  -6  138.65    7.68
  12   1   7    2.76    1.99
  12  -1   7    3.66    1.97
  12   1   8  110.08    6.57
  12  -1   8  109.50    6.64
  12   1   9   17.70    2.23
  12  -1   9   16.47    2.25
  12   1  10  148.84    7.81
  12  -1  10  143.19    7.76
  12  -1  11    0.30    1.04
  12   1  11    0.53    1.06
  12  -1  12    1.83    0.70
  12   1  12    1.31    0.73
 -12   2  11    4.02    1.05
  12  -2 -11    2.28    0.92
 -12   2  10   18.82    1.82
 -12  -2  10   20.26    2.17
 -12  -2   9    1.19    1.63
 -12   2   9    0.10    1.17
 -12   2   8   19.60    2.27
 -12  -2   8   30.90    3.02
 -12   2   7   27.16    2.76
 -12  -2   7   34.51    3.21
 -12   2   7   32.35    3.12
 -12  -2   7   35.91    3.47
  12  -2  -6   53.21    4.13
 -12  -2   6   59.36    4.38
 -12   2   6   56.43    4.34
 -12  -2   6   49.83    3.83
 -12  -2   6   66.55    4.70
 -12   2   6   51.95    3.89
 -12  -2   5   17.21    2.69
  12  -2  -5   14.70    2.32
 -12  -2   5   12.54    2.15
 -12  -2   5   13.64    2.37
 -12   2   5   15.48    2.40
 -12  -2   4   11.99    2.33
  12  -2  -4   12.14    2.17
 -12  -2   4   14.29    2.41
 -12   2   4   12.97    2.48
 -12  -2   4   15.57    2.21
 -12  -2   3    9.40    2.33
 -12  -2   3    7.30    3.92
 -12   2   3    2.95    3.67
  12  -2  -3   10.68    2.02
 -12  -2   3   12.68    2.30
  12  -2  -2  177.69    9.72
 -12  -2   2  158.11   14.26
 -12   2   2  168.41   14.69
 -12  -2   2  184.93   10.14
 -12  -2   2  189.80   10.28
  12  -2  -1   22.08    2.64
 -12  -2   1   31.01    6.20
 -12   2   1   20.09    5.73
 -12  -2   1   25.23    3.08
 -12  -2   1   30.84    3.20
  12  -2   0  114.83    6.53
 -12  -2   0   87.25   10.36
 -12   2   0  103.57   10.84
 -12  -2   0  107.80    6.92
 -12  -2  -1   14.62    2.63
 -12  -2  -1   24.42    5.22
 -12   2  -1   14.87    4.86
  12  -2   1   16.26    2.24
 -12  -2  -2    7.31    4.50
 -12   2  -2    1.47    2.98
  12  -2   2    9.07    1.83
 -12  -2  -2   12.67    2.42
 -12  -2  -3   20.97    4.94
 -12   2  -3    9.42    4.72
 -12  -2  -3   13.86    2.31
 -12   2  -3   15.62    2.38
 -12  -2  -4   56.96    4.44
 -12   2  -4   50.81    4.08
 -12   2  -5   12.19    1.93
  12   2   6  114.50    6.99
  12  -2   6  110.28    6.82
  12   2   7    6.65    1.98
  12  -2   7   10.67    1.98
  12   2   8   76.03    4.87
  12  -2   8   73.57    4.83
  12   2   9    0.94    1.28
  12  -2   9   -0.10    1.28
  12   2  10   19.48    1.92
  12  -2  10   18.20    1.86
  12  -2  11    3.88    0.94
  12   2  11    3.48    0.89
 -12  -2 -11    0.84    0.82
 -12  -3  11    0.07    0.93
  12  -3 -11    0.05    0.77
  12  -3 -10    3.45    1.26
  12  -3  -9    5.84    1.59
  12  -3  -8    5.48    1.76
 -12  -3   7   -0.15    1.79
  12  -3  -7    1.66    1.63
 -12  -3   6   12.77    2.38
 -12  -3   6    9.84    1.86
 -12   3   6   11.14    1.93
  12  -3  -6   10.28    2.11
 -12  -3   5    5.79    1.70
 -12   3   5    9.65    1.89
 -12  -3   5    8.78    2.21
  12  -3  -5    6.87    1.93
 -12  -3   5    8.10    1.65
  12  -3  -4   42.65    3.59
 -12  -3   4   37.94    3.44
 -12   3   4   38.87    3.51
 -12  -3   4   39.06    3.39
 -12  -3   4   48.29    3.99
  12  -3  -3  132.19    7.54
 -12  -3   3  119.41    7.38
 -12   3   3  124.98    7.45
 -12  -3   3  127.27    7.44
 -12  -3   3  131.58    7.93
  12  -3  -2  159.95    9.26
 -12  -3   2  178.60    9.55
 -12  -3   2  168.96    9.76
 -12  -3   1   22.57    3.06
  12  -3  -1   27.08    2.88
 -12  -3   1   22.60    2.89
 -12  -3   0    5.76    2.17
  12  -3   0    2.81    1.80
 -12  -3   0    5.57    1.93
  12  -3   1   14.73    2.30
  12  -3   2   58.51    4.34
  12  -3   3    2.92    1.66
 -12   3  -3    2.86    1.55
  12  -3   4   18.58    2.28
 -12   3  -4   13.63    2.01
  12  -3   5    2.16    1.58
  12   3   5    2.87    1.61
  12  -3   6   42.29    3.36
  12   3   6   51.32    3.68
  12  -3   6   43.36    3.55
  12  -3   7   -0.10    1.26
  12   3   7    0.90    1.37
  12  -3   7    2.43    1.34
  12   3   8   13.17    1.82
  12  -3   8   14.57    1.81
  12   3   9   62.72    3.73
  12  -3   9   58.31    3.67
  12   3  10   86.41    4.59
 -12  -3 -10   86.46    4.77
  12  -4 -10    6.44    1.35
 -12  -4  10   17.86    1.65
 -12  -4   9    3.91    1.32
  12  -4  -9    2.11    1.25
  12  -4  -8   19.68    2.28
 -12  -4   8   22.03    2.34
  12  -4  -7   22.80    2.59
  12  -4  -6    6.42    1.97
  12  -4  -5   67.16    4.52
 -12  -4   5   58.98    4.02
 -12  -4   4   13.09    1.91
  12  -4  -4   16.85    2.46
 -12  -4   3    9.60    2.34
  12  -4  -3    9.98    2.22
 -12  -4   3    7.33    1.60
 -12   4   3    8.76    1.72
 -12  -4   2   12.84    2.47
  12  -4  -2   12.39    2.24
 -12  -4   2    6.59    1.65
 -12   4   2    7.53    1.68
  12  -4  -1   71.91    4.81
 -12  -4   1   62.60    4.32
 -12   4   1   54.95    4.20
 -12  -4   1   69.18    5.03
  12  -4   0   98.40    6.08
 -12  -4   0   92.53    5.66
  12  -4   1    0.15    1.80
 -12  -4  -1    0.52    1.35
  12  -4   2   12.30    2.24
  12  -4   3   15.00    2.27
 -12   4  -3   11.18    1.85
  12  -4   4   64.72    4.30
  12   4   4   59.87    3.96
  12  -4   4   51.20    3.86
  12  -4   5    8.25    1.78
  12   4   5    6.43    1.44
  12  -4   6   32.32    2.82
  12   4   6   30.44    2.46
  12  -4   7    6.55    1.50
 -12  -4  -7    7.29    1.73
  12  -4   8  108.23    5.95
 -12  -4  -8  113.27    6.18
 -12  -4  -9    8.07    1.37
 -12  -4 -10   10.07    1.16
 -12  -5   9    3.52    0.98
  12  -5  -9    1.19    1.03
 -12  -5   8    0.35    1.14
  12  -5  -8    0.16    1.19
 -12  -5   7    5.79    1.50
  12  -5  -7    2.53    1.46
  12  -5  -6   23.26    2.54
 -12  -5   6   29.52    2.73
  12  -5  -5   34.71    3.16
 -12  -5   5   38.35    3.27
  12  -5  -4    6.55    1.86
  12  -5  -3   42.52    3.38
  12  -5  -3   59.59    4.02
  12  -5  -2   86.16    5.46
  12  -5  -2  104.82    6.04
  12  -5  -1    1.01    1.44
  12  -5  -1   -0.42    1.75
  12  -5   0   33.89    3.27
  12  -5   1   17.58    2.36
 -12  -5  -1   11.61    1.85
  12  -5   2   81.79    5.38
 -12  -5  -2   83.52    5.19
  12  -5   3    9.95    1.98
 -12  -5  -3    7.29    1.67
  12  -5   4    0.86    1.50
 -12  -5  -4    2.43    1.51
  12  -5   5   27.79    2.67
 -12  -5  -5   28.83    2.68
  12  -5   6   63.07    4.09
  12  -5   7    7.70    1.51
  12  -5   8   11.47    1.37
 -12  -5  -8   11.37    1.47
 -12  -5  -9    7.01    1.01
  12  -6  -8    2.34    0.84
  12  -6  -7    0.21    1.01
  12  -6  -6    1.76    1.28
  12  -6  -5    0.69    0.92
  12  -6  -5    1.90    1.43
  12  -6  -4   12.41    1.60
  12  -6  -4   18.08    2.16
  12  -6  -3    0.52    1.15
  12  -6  -3    3.12    1.54
  12  -6  -2   24.55    2.27
  12  -6  -2   25.10    2.57
  12  -6  -1   29.50    2.60
  12  -6  -1   35.01    2.99
  12  -6   0   43.75    3.45
  12  -6   1   39.80    3.25
  12  -6   2   37.23    3.09
 -12  -6  -2   38.03    2.85
  12  -6   3   76.72    4.67
 -12  -6  -3   69.85    4.40
  12  -6   4   23.16    2.33
 -12  -6  -4   24.16    2.24
  12  -6   5    0.45    1.19
 -12  -6  -5    1.46    1.11
  12  -6   6    3.55    1.21
  12  -6   7   15.54    1.57
  12  -7  -5    1.13    0.90
  12  -7  -4    3.83    1.10
  12  -7  -3    5.02    1.28
  12  -7  -2   11.19    1.63
  12  -7  -1    2.22    1.31
  12  -7   0    6.26    1.47
  12  -7   1   17.16    1.92
  12  -7   2   38.92    2.78
  12  -7   3    1.36    1.06
  12  -7   4    8.52    1.28
  12  -7   5   32.74    2.20
 -13   0  11    3.16    0.89
 -13   0  10   -0.08    1.07
 -13   0   9    1.18    1.29
 -13   0   8    1.15    1.44
 -13   0   7   15.43    2.26
 -13   0   7   11.06    1.79
 -13   0   7   17.05    2.24
 -13   0   6    0.60    1.54
 -13   0   6    0.82    1.62
 -13   0   6    1.26    1.42
 -13   0   5    3.27    1.76
 -13   0   5    2.28    1.60
 -13   0   5    2.22    1.78
 -13   0   4   -0.87    1.59
 -13   0   4    1.16    1.72
 -13   0   4    0.93    1.74
 -13   0   3  136.03    8.07
 -13   0   3  146.00    8.10
 -13   0   3  123.39    7.62
 -13   0   2    0.29    1.49
 -13   0   1    3.92    1.66
 -13   0   0    0.17    1.81
 -13   0  -1   19.33    2.63
 -13   0  -2    1.31    1.84
 -13   0  -3   32.94    3.29
 -13   0  -4   -0.89    1.57
 -13   0  -5  170.35    9.24
  13   0   6    0.15    1.70
  13   0   7    5.37    1.72
  13   0   8    0.45    1.43
  13   0   9   74.11    4.49
  13   0  10   -0.51    1.00
  13   0  11    2.18    0.76
 -13  -1  11    2.11    0.88
 -13  -1  10    1.41    1.10
 -13   1  10    0.33    0.92
 -13  -1   9    0.93    1.33
 -13   1   9    3.72    1.21
 -13  -1   8   14.00    2.09
 -13   1   8   13.73    1.79
 -13  -1   7    8.88    2.06
 -13   1   7   11.18    1.80
 -13  -1   7   10.50    2.07
 -13   1   7    9.25    1.98
 -13   1   7    9.75    1.76
 -13  -1   6    2.76    1.68
 -13   1   6    0.15    1.56
 -13  -1   6    2.03    1.70
 -13   1   6    2.84    1.44
 -13  -1   6    1.25    1.33
 -13  -1   5   13.13    2.37
 -13   1   5   11.14    1.91
 -13  -1   5   12.55    2.08
 -13  -1   5   11.72    2.17
 -13   1   5   12.74    2.28
 -13  -1   4    9.00    2.14
 -13   1   4    4.68    1.56
 -13  -1   4    5.51    2.02
 -13   1   4    4.89    1.94
 -13  -1   4    6.78    1.98
 -13  -1   3   10.12    2.26
 -13  -1   3    2.52    1.99
 -13   1   3    4.40    2.16
 -13  -1   3    5.65    1.96
 -13  -1   2    6.44    1.83
 -13  -1   2    7.34    1.88
 -13  -1   1   90.56    5.90
 -13  -1   0   14.70    2.31
 -13   1   0   16.88    2.56
 -13  -1  -1    4.86    2.11
 -13   1  -1    7.99    2.21
 -13  -1  -2  171.52    9.45
 -13   1  -2  161.83    9.34
 -13  -1  -3  220.38   11.83
 -13   1  -3  221.56   11.72
 -13  -1  -4   15.16    2.43
 -13   1  -4   11.70    2.11
 -13  -1  -5   22.96    2.54
 -13   1  -5   18.62    2.27
  13   1   6    1.13    1.73
  13  -1   6   -1.27    1.81
 -13   1  -6    1.11    1.16
  13   1   7  194.61   10.05
  13  -1   7  182.59    9.98
  13   1   8   -0.43    1.33
  13  -1   8   -0.11    1.32
  13   1   9    3.81    1.28
  13  -1   9    0.70    1.22
  13   1  10   -0.27    0.90
  13  -1  10    0.86    0.92
 -13  -2  11    0.82    0.70
 -13  -2  10    1.80    1.09
  13  -2  -9    4.26    1.09
 -13  -2   9   16.85    1.89
 -13  -2   8    0.24    1.48
  13  -2  -8   -0.36    1.03
 -13  -2   7    4.54    1.67
  13  -2  -7    2.60    1.26
 -13  -2   6   -0.44    1.71
 -13  -2   6    0.26    1.47
 -13   2   6   -0.13    1.42
  13  -2  -6    0.10    1.25
 -13  -2   5    4.39    1.69
 -13   2   5    3.30    1.73
 -13  -2   5    6.82    2.06
  13  -2  -5    5.87    1.55
 -13  -2   5    4.13    1.57
 -13  -2   4    1.94    1.73
  13  -2  -4   -0.98    1.32
 -13  -2   4    0.68    1.40
 -13  -2   4    1.49    1.64
 -13   2   4   -0.15    1.54
  13  -2  -3   31.65    3.04
 -13  -2   3   42.91    3.63
 -13   2   3   39.25    3.52
 -13  -2   3   45.49    3.65
 -13  -2   3   39.59    3.70
 -13  -2   2    1.52    1.83
 -13  -2   2    1.09    1.72
 -13  -2   1   26.85    2.95
 -13  -2   1   28.11    3.09
 -13   2  -1   65.92    4.82
 -13  -2  -2   17.91    2.56
 -13   2  -2   16.50    2.54
 -13  -2  -3  100.20    6.44
 -13   2  -3  105.64    6.31
 -13   2  -4   19.73    2.37
 -13   2  -5   34.13    2.73
  13   2   6   46.48    3.49
  13  -2   6   41.41    3.43
  13   2   7   30.24    2.63
  13  -2   7   24.93    2.50
  13   2   8   10.48    1.63
  13  -2   8   11.79    1.68
  13   2   9   77.64    4.27
  13  -2   9   71.27    4.21
  13  -2  10    4.48    0.87
  13   2  10    3.99    0.89
 -13  -2 -10    4.21    0.93
  13  -3  -9    6.48    1.14
 -13  -3   9   18.19    1.83
 -13  -3   8    1.72    1.39
  13  -3  -8    1.98    1.08
 -13  -3   7    0.37    1.49
  13  -3  -7    0.80    1.24
 -13  -3   6   13.23    2.16
  13  -3  -6    6.83    1.62
  13  -3  -5   33.53    2.95
 -13  -3   5   34.21    2.96
 -13   3   5   35.53    2.99
 -13  -3   5   38.89    3.42
 -13   3   4    2.06    1.42
 -13  -3   4    4.56    1.98
  13  -3  -4    0.46    1.38
 -13  -3   4    3.23    1.44
 -13  -3   4    1.39    1.36
 -13  -3   3    2.12    1.84
  13  -3  -3    5.79    1.66
 -13  -3   3    4.47    1.55
 -13  -3   3    4.26    1.64
 -13   3   3    4.44    1.64
 -13  -3   2    3.49    1.98
  13  -3  -2   -0.49    1.41
 -13  -3   2    0.14    1.48
 -13  -3   2    0.28    1.49
 -13   3   2    1.96    1.46
 -13  -3   1   14.56    2.56
  13  -3  -1   14.62    2.15
 -13  -3   1   15.38    2.38
  13  -3   0    4.04    1.61
 -13  -3   0    3.22    1.81
  13  -3   1   35.84    3.08
  13  -3   2   24.50    2.47
 -13   3  -2   27.27    2.73
  13  -3   3   20.46    2.19
 -13   3  -3   18.08    2.22
  13  -3   4   -0.61    1.26
 -13   3  -4    4.35    1.38
  13   3   5    4.81    1.50
  13  -3   5    3.92    1.53
  13   3   6   13.32    1.79
  13  -3   6   10.91    1.73
  13   3   7  111.81    6.08
  13  -3   7  114.61    6.07
  13   3   8    0.64    0.91
  13  -3   8   -0.19    0.85
 -13  -3  -9    0.90    0.84
 -13  -4   9    2.91    0.91
  13  -4  -9    0.95    0.73
  13  -4  -8    0.70    0.95
  13  -4  -7   14.82    1.75
  13  -4  -6   15.96    1.93
 -13  -4   5   12.09    2.08
  13  -4  -5    8.36    1.74
 -13  -4   4   -0.57    1.66
  13  -4  -4    0.11    1.40
  13  -4  -3   27.42    2.42
 -13  -4   3   37.22    2.99
  13  -4  -2   -0.73    1.45
 -13  -4   2    0.80    0.82
  13  -4  -1   19.10    2.28
 -13  -4   1   13.39    1.78
  13  -4   0   29.40    2.70
 -13  -4   0   21.41    2.21
  13  -4   1   54.99    3.93
  13  -4   2    5.65    1.62
 -13  -4  -2    6.05    1.49
 -13   4  -2    5.27    1.55
  13  -4   3   12.52    1.85
  13   4   3    8.35    1.58
 -13  -4  -3   14.86    1.93
 -13   4  -3   12.85    1.68
  13  -4   4    6.67    1.55
 -13  -4  -4    5.14    1.53
  13  -4   5  130.63    7.32
 -13  -4  -5  153.07    7.65
  13  -4   6    3.55    1.19
 -13  -4  -6    3.70    1.26
 -13  -4  -8    3.63    1.03
 -13  -4  -9   29.55    1.90
  13  -5  -8   -0.65    0.64
  13  -5  -7    9.42    1.36
  13  -5  -6    8.41    1.43
  13  -5  -5   40.87    3.01
  13  -5  -4    2.98    1.41
  13  -5  -3   -0.10    1.35
  13  -5  -2    2.78    1.53
  13  -5  -1    0.55    1.38
  13  -5   0    1.53    1.40
  13  -5   1    0.21    1.38
 -13   5  -1    2.50    1.19
  13  -5   2   49.39    3.30
 -13  -5  -2   46.09    3.02
  13  -5   3  106.97    5.76
 -13  -5  -3   94.42    5.56
  13  -5   4   46.44    3.27
 -13  -5  -4   49.67    3.24
  13  -5   5   25.62    2.16
 -13  -5  -5   29.18    2.27
  13  -5   6   10.61    1.36
 -13  -5  -6   15.37    1.56
  13  -6  -6    2.25    0.78
  13  -6  -5   13.52    1.49
  13  -6  -4    3.11    1.15
  13  -6  -3   18.28    1.89
  13  -6  -2   18.07    1.87
  13  -6  -1    4.93    1.34
  13  -6   0   28.00    2.21
 -13   6   0   18.78    1.76
  13  -6   1   17.55    1.91
  13  -6   2    4.44    1.27
  13  -6   3    5.06    1.22
  13  -6   4    8.78    1.24
 -13  -6  -4    8.41    1.08
  13  -6   5   36.25    2.33
  13  -7  -2    7.33    1.03
  13  -7  -1   18.65    1.54
  13  -7   0   -0.05    0.72
  13  -7   1    1.14    0.77
  13  -7   2   12.90    1.23
 -14   0   9    0.34    0.78
 -14   0   8   20.93    1.88
 -14   0   7   -0.45    1.15
 -14   0   6  101.82    5.88
 -14   0   6  100.61    5.62
 -14   0   6   92.57    5.56
 -14   0   5   -1.44    1.42
 -14   0   5   -0.76    1.27
 -14   0   5    0.57    1.26
 -14   0   4  151.70    8.49
 -14   0   4  166.37    8.51
 -14   0   4  143.10    8.13
 -14   0   3    0.34    1.24
 -14   0   3    0.44    1.51
 -14   0   3   -0.97    1.70
 -14   0   2   46.55    3.71
 -14   0   2   40.73    3.18
 -14   0   0  354.42   17.75
 -14   0  -1   -1.04    1.87
 -14   0  -2  175.05    9.56
 -14   0  -3    0.54    1.46
 -14   0  -4    3.32    1.46
  14   0   6   79.42    4.94
  14   0   7    0.58    1.34
  14   0   8   71.63    4.20
  14   0   9    0.70    0.86
 -14  -1   9    0.65    0.91
 -14   1   8    2.29    0.84
 -14  -1   8    2.67    1.26
 -14   1   7    4.85    1.10
 -14  -1   7    6.72    1.48
 -14   1   7    4.99    1.24
 -14  -1   6   23.42    2.42
 -14   1   6   22.21    2.46
 -14   1   6   23.81    2.38
 -14  -1   6   28.52    2.53
 -14  -1   5   25.50    2.65
 -14   1   5   28.08    2.77
 -14  -1   5   28.57    2.56
 -14   1   5   31.32    2.81
 -14  -1   5   29.43    2.75
 -14  -1   4   27.51    2.85
 -14   1   4   32.27    2.99
 -14  -1   4   31.01    2.84
 -14   1   4   30.31    2.87
 -14  -1   4   29.36    2.83
 -14  -1   3    0.39    1.44
 -14  -1   3   -0.43    1.64
 -14  -1   3    0.40    1.48
 -14   1   3    1.43    1.56
 -14  -1   2   17.15    2.24
 -14  -1   2   22.16    2.55
 -14  -1   2   17.64    2.50
 -14   1   2   18.60    2.53
 -14   1   1   34.86    3.31
 -14   1   0  111.27    6.77
 -14  -1  -1   22.30    2.72
 -14   1  -1   23.85    2.72
 -14  -1  -2    3.71    1.63
 -14   1  -2    4.84    1.73
 -14  -1  -3    1.76    1.52
 -14   1  -3   -0.39    1.47
 -14  -1  -4  103.13    6.07
 -14   1  -4  100.47    5.92
  14   1   5    2.32    1.50
  14  -1   5    0.97    1.75
 -14   1  -5    1.97    1.15
  14   1   6   26.93    2.51
  14  -1   6   19.79    2.26
  14   1   7    5.73    1.45
  14  -1   7    6.43    1.45
  14   1   8   64.98    3.75
  14  -1   8   60.46    3.73
  14   1   9    3.71    0.86
  14  -1   9    3.67    0.89
 -14  -2   9    4.12    1.02
 -14  -2   8    8.32    1.38
 -14  -2   7    2.45    1.30
 -14   2   7    0.23    1.01
 -14  -2   6   23.53    2.38
 -14   2   6   24.86    2.41
 -14   2   6   30.56    2.52
 -14  -2   6   33.91    2.72
 -14  -2   5    1.83    1.45
 -14  -2   5    1.68    1.34
 -14   2   5    0.11    1.27
 -14   2   5   -0.79    1.45
 -14  -2   4   33.81    3.03
 -14   2   4   40.73    3.19
 -14  -2   4   40.29    3.06
 -14  -2   4   38.18    3.22
 -14  -2   3    9.07    1.96
 -14  -2   3   13.57    1.95
 -14  -2   3    8.71    1.78
 -14   2   3    9.94    1.90
 -14  -2   2   32.71    2.96
 -14   2   2   27.79    2.89
 -14  -2   2   31.70    2.95
 -14   2   2   35.75    3.25
 -14  -2   2   34.25    3.12
 -14  -2   1    7.40    1.83
 -14   2   1    5.63    1.80
 -14   2   0    9.81    1.98
 -14   2  -1   11.50    2.17
 -14  -2  -2   85.02    5.30
 -14   2  -2   77.21    5.09
 -14   2  -3    1.03    1.36
 -14   2  -4   34.66    2.73
  14   2   5    4.16    1.47
  14  -2   5    2.80    1.47
  14   2   6  110.12    5.85
  14  -2   6   99.49    5.80
  14   2   7    0.96    1.09
  14  -2   7    0.59    1.03
  14   2   8   41.56    2.51
  14  -2   8   37.02    2.49
 -14  -2  -9    9.25    1.00
 -14  -3   8    4.74    1.13
 -14  -3   7    0.18    1.09
 -14   3   7   -0.14    0.92
 -14  -3   6   15.28    1.87
  14  -3  -6    8.33    1.18
  14  -3  -5   24.39    2.12
 -14  -3   5   38.15    2.91
 -14  -3   4   10.34    1.97
 -14  -3   4    7.84    1.49
 -14   3   4    9.48    1.55
  14  -3  -4    5.70    1.32
 -14   3   3   -0.83    1.22
 -14  -3   3   -0.26    1.52
  14  -3  -3    0.40    0.99
 -14  -3   3    0.52    1.20
  14  -3  -2   17.21    1.80
 -14  -3   2   14.49    1.91
 -14   3   2   12.71    1.85
  14  -3  -1   22.98    2.11
 -14  -3   1   23.81    2.37
 -14   3   1   21.06    2.25
 -14   3   1   27.44    2.69
 -14  -3   0   62.57    4.18
 -14   3   0   55.05    4.06
 -14   3  -1    2.01    1.49
 -14   3  -2   74.11    4.63
 -14  -3  -3   43.68    2.92
 -14   3  -3   34.95    2.84
  14   3   4   70.74    4.21
  14  -3   4   67.87    4.16
  14   3   5    2.08    1.10
  14  -3   5    3.20    1.21
  14   3   6   41.89    2.57
  14  -3   6   36.76    2.53
 -14  -3  -6   41.03    2.77
 -14  -3  -7    7.33    1.17
 -14   4   7    0.05    0.69
  14  -4  -6   -0.99    0.76
  14  -4  -5    0.31    0.93
  14  -4  -4    4.03    1.20
  14  -4  -3    2.54    1.17
  14  -4  -2   16.58    1.79
  14  -4  -1    2.39    1.16
  14  -4   0   12.14    1.52
 -14   4   0    8.37    1.63
  14  -4   1    8.03    1.40
 -14   4  -1   11.15    1.62
  14  -4   2    5.24    1.20
 -14   4  -2    5.36    1.25
  14  -4   3    0.45    0.88
 -14  -4  -3    0.14    0.95
 -14  -4  -4   18.03    1.72
 -14  -4  -5   12.95    1.47
 -14  -4  -6    7.71    1.12
 -14  -4  -7    1.17    0.63
  14  -5  -5    1.34    0.73
  14  -5  -4   11.44    1.33
  14  -5  -3    1.87    0.99
  14  -5  -2   28.74    2.14
  14  -5  -1   18.19    1.76
 -14   5   1   20.30    1.83
  14  -5   0   18.45    1.76
 -14   5   0   16.49    1.66
  14  -5   1    1.11    0.99
 -14   5  -1    0.90    0.74
  14  -5   2    5.31    1.10
  14  -5   3    8.63    1.12
 -14  -5  -4   15.08    1.28
  14  -6  -1    0.26    0.65
 -15   0   5   -0.67    1.07
 -15   0   5   -0.39    0.97
 -15   0   4   -0.84    1.19
 -15   0   4   -0.47    1.23
 -15   0   3    9.51    1.74
 -15   0   3    6.70    1.54
 -15   0   2    0.94    1.28
 -15   0   1    8.23    1.72
 -15   0   0    0.12    1.47
 -15   0  -1   13.25    2.02
 -15   0  -2   -0.44    1.40
 -15   0  -3   26.05    2.39
  15   0   5    6.94    1.50
  15   0   6   -0.15    1.03
  15   0   7    0.28    0.82
 -15  -1   7    0.67    0.72
 -15  -1   6   -0.59    0.92
 -15   1   6    0.18    0.83
 -15  -1   5    1.80    1.09
 -15  -1   5    2.16    1.11
 -15   1   5    0.09    1.10
 -15  -1   5    0.93    0.96
 -15   1   5   -0.32    1.06
 -15  -1   4   14.67    1.93
 -15   1   4   18.04    2.03
 -15  -1   4   20.21    1.91
 -15   1   4   23.81    2.16
 -15  -1   3   20.84    2.24
 -15   1   3   24.34    2.27
 -15  -1   3   20.71    2.20
 -15   1   3   27.24    2.50
 -15  -1   2   12.98    1.87
 -15  -1   2    7.98    1.63
 -15   1   2    9.46    1.66
 -15  -1   1   11.84    1.86
 -15   1   1   13.25    1.90
 -15   1   1   13.10    1.94
 -15   1   0   -0.69    1.38
 -15  -1  -1   44.90    3.26
 -15   1  -1   37.71    3.18
 -15  -1  -2    5.92    1.59
 -15   1  -2    5.02    1.49
 -15   1  -3   75.67    4.51
  15   1   4   21.42    2.19
  15  -1   4   20.11    2.20
  15   1   5   45.33    2.98
  15  -1   5   40.34    2.93
  15   1   6   14.59    1.57
  15  -1   6   16.86    1.58
  15   1   7    0.40    0.72
  15  -1   7    1.81    0.83
 -15  -2   6   -0.67    0.88
 -15   2   6    0.35    0.83
 -15  -2   5    3.06    1.09
 -15   2   5    2.29    1.08
 -15   2   4    0.80    1.19
 -15  -2   3   13.64    1.81
 -15   2   3   18.06    1.86
 -15  -2   3   17.79    1.85
 -15  -2   2    1.83    1.23
 -15   2   2    0.21    1.30
 -15  -2   2   -0.10    1.09
 -15   2   2    0.29    1.15
 -15  -2   1   21.66    2.17
 -15   2   1   19.45    2.17
 -15  -2   1   26.17    2.36
 -15  -2   0   12.26    1.72
 -15   2   0   10.08    1.62
 -15   2   0   15.23    1.86
 -15   2  -1    9.82    1.65
 -15   2  -2   12.40    1.69
 -15   2  -3   15.84    1.63
  15   2   4    8.30    1.42
  15  -2   4    8.79    1.44
  15   2   5   25.73    1.94
  15  -2   5   24.31    1.96
 -15  -2  -5   19.25    1.73
  15  -2   6    8.59    1.09
 -15  -2  -6    7.92    1.08
 -15   3   6    0.67    0.68
 -15   3   5    8.32    1.25
 -15   3   3    5.54    1.35
 -15   3   2    3.94    1.29
 -15   3   1   17.20    1.97
 -15   3   0    2.01    1.16
 -15   3  -1    5.23    1.31
  15   3   2    3.19    0.96
  15  -3   2    2.53    0.97
 -15   3  -2    2.19    0.98
  15   3   3    1.82    0.89
 -15   3  -3    2.17    0.75
  15   3   4    1.86    0.72
 -15  -3  -5   36.68    2.22
 -15   4   4    4.04    0.95
 -15   4   3    1.92    0.94
 -15   4   2    1.21    0.91
 -15   4   1    9.07    1.35
 -15   4   0    0.36    0.76
 -15   4  -1   12.92    1.30
 -16   0   4   25.94    1.87
 -16   0   3    0.52    0.83
 -16   0   2    4.11    1.12
 -16   0   0   11.23    1.49
 -16   0  -1    0.15    0.95
  16   0   3   -0.20    0.90
  16   0   4    5.83    1.05
 -16   1   4   11.67    1.23
 -16   1   3   10.24    1.30
 -16  -1   2   23.30    1.90
 -16  -1   1    5.01    1.18
 -16   1   1    4.23    1.13
 -16   1   0    2.71    1.12
 -16   1  -1    0.85    0.92
 -16   1  -2   52.65    3.14
  16   1   3   -0.95    0.92
  16  -1   3    0.18    0.82
  16   1   4    1.03    0.74
  16  -1   4    1.33    0.79
 -16   2   4    6.89    0.97
 -16   2   2   25.03    1.95
 -16   2   1    3.68    1.01
 -16   2   0   21.45    1.77
  16   2   1   11.59    1.32
 -16   2  -1   16.51    1.42
  16   2   2   31.96    2.08
  16  -2   2   31.22    2.09
 -16   2  -2   31.34    2.02
 -16   3   2   14.01    1.25
 -16   3   1    2.11    0.72
   0   0   0    0.00    0.00


TITL tf-16 in P2(1)/n
REM P2(1)/n (#14 in standard setting)
CELL 1.54184  13.247632   9.008393  14.147363  90.0000  91.0331  90.0000
ZERR    7.00   0.000400   0.000249   0.000476   0.0000   0.0028   0.0000
LATT  1
SYMM -x+1/2, y+1/2,-z+1/2
SFAC C H N O
UNIT 77.00 70.00 7.00 7.00
TREF
HKLF 4
END
_computing_structure_solution     'SHELXT 2018/2 (Sheldrick, 2018)'
;
_shelx_hkl_checksum                50063
_olex2_submission_special_instructions  'No special instructions were received'
_oxdiff_exptl_absorpt_empirical_details
;
Empirical correction (ABSPACK) includes:
- Absorption correction using spherical harmonics
- Frame scaling
;
_oxdiff_exptl_absorpt_empirical_full_max  1.406
_oxdiff_exptl_absorpt_empirical_full_min  0.812
