 
data_shelx
 
_audit_creation_method            'SHELXL-2016/6'
_shelx_SHELXL_version_number      '2016/6'
_chemical_name_systematic         ?
_chemical_name_common             ?
_chemical_melting_point           ?
_chemical_formula_moiety          ?
_chemical_formula_sum
 'C14 H17 N3 O5' 
_chemical_formula_weight          307.30

loop_
 _atom_type_symbol
 _atom_type_description
 _atom_type_scat_dispersion_real
 _atom_type_scat_dispersion_imag
 _atom_type_scat_source
 'C'  'C'   0.0181   0.0091
 'International Tables Vol C Tables 4.2.6.8 and 6.1.1.4'
 'H'  'H'   0.0000   0.0000
 'International Tables Vol C Tables 4.2.6.8 and 6.1.1.4'
 'N'  'N'   0.0311   0.0180
 'International Tables Vol C Tables 4.2.6.8 and 6.1.1.4'
 'O'  'O'   0.0492   0.0322
 'International Tables Vol C Tables 4.2.6.8 and 6.1.1.4'
 
_space_group_crystal_system       monoclinic
_space_group_IT_number            14
_space_group_name_H-M_alt         'P 21/c'
_space_group_name_Hall            '-P 2ybc'
 
_shelx_space_group_comment
;
The symmetry employed for this shelxl refinement is uniquely defined
by the following loop, which should always be used as a source of
symmetry information in preference to the above space-group names.
They are only intended as comments.
;
 
loop_
 _space_group_symop_operation_xyz
 'x, y, z'
 '-x, y+1/2, -z+1/2'
 '-x, -y, -z'
 'x, -y-1/2, z-1/2'
 
_cell_length_a                    7.17630(10)
_cell_length_b                    28.9373(4)
_cell_length_c                    7.06700(10)
_cell_angle_alpha                 90
_cell_angle_beta                  92.1860(10)
_cell_angle_gamma                 90
_cell_volume                      1466.48(4)
_cell_formula_units_Z             4
_cell_measurement_temperature     130.0(2)
_cell_measurement_reflns_used   8360
_cell_measurement_theta_min     4.5740
_cell_measurement_theta_max     73.0989
 
_exptl_crystal_description        block
_exptl_crystal_colour             colourless
_exptl_crystal_density_meas       ?
_exptl_crystal_density_method     ?
_exptl_crystal_density_diffrn     1.392          
_exptl_crystal_F_000              648
_exptl_transmission_factor_min    ?
_exptl_transmission_factor_max    ?
_exptl_crystal_size_max           0.4
_exptl_crystal_size_mid           0.3
_exptl_crystal_size_min           0.25
_exptl_absorpt_coefficient_mu     0.902
_shelx_estimated_absorpt_T_min    ?
_shelx_estimated_absorpt_T_max    ?
_exptl_absorpt_correction_T_min                   0.76430
_exptl_absorpt_correction_T_max                   1.00000
_exptl_absorpt_correction_type            'multi-scan'
_exptl_absorpt_process_details
;
CrysAlis RED, Oxford Diffraction Ltd.,
Version 1.171.32.15 (release 10-01-2008 CrysAlis171 .NET)
(compiled Jan 10 2008,16:37:18)
Empirical absorption correction using spherical harmonics,
 implemented in SCALE3 ABSPACK scaling algorithm.
;
_diffrn_radiation_wavelength 1.5418
_diffrn_radiation_type 'Cu K\a'
_diffrn_radiation_source 'Enhance (Cu) X-ray Source'
_diffrn_radiation_monochromator 'graphite'
_diffrn_measurement_method        ?
_diffrn_detector_area_resol_mean 16.0711
_diffrn_reflns_number             10358
_diffrn_reflns_av_unetI/netI      0.0149
_diffrn_reflns_av_R_equivalents   0.0231
_diffrn_reflns_limit_h_min        -6
_diffrn_reflns_limit_h_max        8
_diffrn_reflns_limit_k_min        -34
_diffrn_reflns_limit_k_max        35
_diffrn_reflns_limit_l_min        -8
_diffrn_reflns_limit_l_max        8
_diffrn_reflns_theta_min          6.117
_diffrn_reflns_theta_max          79.461
_diffrn_reflns_theta_full         67.684
_diffrn_measured_fraction_theta_max   0.915
_diffrn_measured_fraction_theta_full  0.995
_diffrn_reflns_Laue_measured_fraction_max    0.915
_diffrn_reflns_Laue_measured_fraction_full   0.995
_diffrn_reflns_point_group_measured_fraction_max   0.915
_diffrn_reflns_point_group_measured_fraction_full  0.995
_reflns_number_total              2902
_reflns_number_gt                 2689
_reflns_threshold_expression      'I > 2\s(I)'
_reflns_Friedel_coverage          0.000
_reflns_Friedel_fraction_max      .
_reflns_Friedel_fraction_full     .
 
_reflns_special_details
;
 Reflections were merged by SHELXL according to the crystal
 class for the calculation of statistics and refinement.
 
 _reflns_Friedel_fraction is defined as the number of unique
 Friedel pairs measured divided by the number that would be
 possible theoretically, ignoring centric projections and
 systematic absences.
;
 
_computing_data_collection
;
CrysAlis CCD, Oxford Diffraction Ltd.,
Version 1.171.32.15 (release 10-01-2008 CrysAlis171 .NET)
(compiled Jan 10 2008,16:37:18)
;
_computing_cell_refinement
;
CrysAlis RED, Oxford Diffraction Ltd.,
Version 1.171.32.15 (release 10-01-2008 CrysAlis171 .NET)
(compiled Jan 10 2008,16:37:18)
;
_computing_data_reduction
;
CrysAlis RED, Oxford Diffraction Ltd.,
Version 1.171.32.15 (release 10-01-2008 CrysAlis171 .NET)
(compiled Jan 10 2008,16:37:18)
;
_computing_structure_solution     ?
_computing_structure_refinement 'SHELXL-2016/6 (Sheldrick, 2016)'
_computing_molecular_graphics     ?
_computing_publication_material   ?
_refine_special_details           ?
_refine_ls_structure_factor_coef  Fsqd
_refine_ls_matrix_type            full
_refine_ls_weighting_scheme       calc
_refine_ls_weighting_details
'w=1/[\s^2^(Fo^2^)+(0.0570P)^2^+0.7426P] where P=(Fo^2^+2Fc^2^)/3'
_atom_sites_solution_primary      ?
_atom_sites_solution_secondary    ?
_atom_sites_solution_hydrogens    geom
_refine_ls_hydrogen_treatment     constr
_refine_ls_extinction_method      'SHELXL-2016/6 (Sheldrick 2016)'
_refine_ls_extinction_coef        0.0014(7)
_refine_ls_extinction_expression
 'Fc^*^=kFc[1+0.001xFc^2^\l^3^/sin(2\q)]^-1/4^'
_refine_ls_number_reflns          2902
_refine_ls_number_parameters      200
_refine_ls_number_restraints      0
_refine_ls_R_factor_all           0.0498
_refine_ls_R_factor_gt            0.0470
_refine_ls_wR_factor_ref          0.1236
_refine_ls_wR_factor_gt           0.1216
_refine_ls_goodness_of_fit_ref    1.121
_refine_ls_restrained_S_all       1.121
_refine_ls_shift/su_max           0.000
_refine_ls_shift/su_mean          0.000
 
loop_
 _atom_site_label
 _atom_site_type_symbol
 _atom_site_fract_x
 _atom_site_fract_y
 _atom_site_fract_z
 _atom_site_U_iso_or_equiv
 _atom_site_adp_type
 _atom_site_occupancy
 _atom_site_site_symmetry_order  
 _atom_site_calc_flag
 _atom_site_refinement_flags_posn
 _atom_site_refinement_flags_adp
 _atom_site_refinement_flags_occupancy
 _atom_site_disorder_assembly
 _atom_site_disorder_group
O1 O 0.46974(13) 0.17118(3) 0.12961(15) 0.0225(3) Uani 1 1 d . . . . .
C10 C 0.61383(19) 0.24401(5) 0.07210(19) 0.0193(3) Uani 1 1 d . . . . .
C12 C 0.4512(2) 0.31356(5) 0.14552(19) 0.0219(3) Uani 1 1 d . . . . .
C14 C 0.29813(19) 0.24149(5) 0.2015(2) 0.0211(3) Uani 1 1 d . . . . .
H14 H 0.196116 0.224744 0.241143 0.025 Uiso 1 1 calc R U . . .
C9 C 0.45784(19) 0.21762(5) 0.13575(19) 0.0186(3) Uani 1 1 d . . . . .
O5 O 0.30507(17) 0.38308(4) 0.20952(17) 0.0346(3) Uani 1 1 d . . . . .
O2 O 0.80021(18) 0.18126(4) -0.0100(2) 0.0483(4) Uani 1 1 d . . . . .
N3 N 0.44974(19) 0.36402(4) 0.15574(18) 0.0275(3) Uani 1 1 d . . . . .
N1 N 0.29396(16) 0.14994(4) 0.19362(18) 0.0232(3) Uani 1 1 d . . . . .
N2 N 0.78547(16) 0.22284(4) -0.00651(18) 0.0231(3) Uani 1 1 d . . . . .
O4 O 0.59270(19) 0.38471(4) 0.1109(2) 0.0451(4) Uani 1 1 d . . . . .
C11 C 0.6104(2) 0.29184(5) 0.07760(19) 0.0212(3) Uani 1 1 d . . . . .
H11 H 0.710796 0.309105 0.037428 0.025 Uiso 1 1 calc R U . . .
C1 C 0.3047(2) 0.10623(5) 0.1790(2) 0.0225(3) Uani 1 1 d . . . . .
C2 C 0.1221(2) 0.08077(5) 0.2275(2) 0.0277(4) Uani 1 1 d . . . . .
C13 C 0.2942(2) 0.28889(5) 0.2066(2) 0.0219(3) Uani 1 1 d . . . . .
H13 H 0.190543 0.304463 0.249394 0.026 Uiso 1 1 calc R U . . .
O3 O 0.90563(17) 0.24854(4) -0.0726(2) 0.0416(3) Uani 1 1 d . . . . .
C6 C 0.4716(2) 0.07836(5) 0.1125(2) 0.0280(4) Uani 1 1 d . . . . .
H6A H 0.448702 0.068398 -0.017330 0.034 Uiso 1 1 calc R U . . .
H6B H 0.582754 0.097457 0.117649 0.034 Uiso 1 1 calc R U . . .
C8 C -0.0169(2) 0.11080(6) 0.3407(3) 0.0369(4) Uani 1 1 d . . . . .
H8A H 0.039905 0.118973 0.461305 0.055 Uiso 1 1 calc R U . . .
H8B H -0.047150 0.138375 0.270601 0.055 Uiso 1 1 calc R U . . .
H8C H -0.128669 0.093449 0.359774 0.055 Uiso 1 1 calc R U . . .
C5 C 0.5001(2) 0.03643(6) 0.2407(3) 0.0345(4) Uani 1 1 d . . . . .
H5A H 0.544555 0.046812 0.364871 0.041 Uiso 1 1 calc R U . . .
H5B H 0.595932 0.016918 0.189537 0.041 Uiso 1 1 calc R U . . .
C4 C 0.3231(3) 0.00772(6) 0.2622(3) 0.0377(4) Uani 1 1 d . . . . .
H4A H 0.350414 -0.018217 0.345680 0.045 Uiso 1 1 calc R U . . .
H4B H 0.282429 -0.004472 0.139595 0.045 Uiso 1 1 calc R U . . .
C7 C 0.0362(2) 0.06757(6) 0.0384(2) 0.0335(4) Uani 1 1 d . . . . .
H7A H 0.009805 0.094961 -0.034458 0.050 Uiso 1 1 calc R U . . .
H7B H 0.121242 0.048358 -0.027697 0.050 Uiso 1 1 calc R U . . .
H7C H -0.077584 0.050935 0.056211 0.050 Uiso 1 1 calc R U . . .
C3 C 0.1643(3) 0.03714(6) 0.3440(2) 0.0365(4) Uani 1 1 d . . . . .
H3A H 0.052191 0.018476 0.347818 0.044 Uiso 1 1 calc R U . . .
H3B H 0.199306 0.045967 0.472915 0.044 Uiso 1 1 calc R U . . .
 
loop_
 _atom_site_aniso_label
 _atom_site_aniso_U_11
 _atom_site_aniso_U_22
 _atom_site_aniso_U_33
 _atom_site_aniso_U_23
 _atom_site_aniso_U_13
 _atom_site_aniso_U_12
O1 0.0182(5) 0.0200(5) 0.0294(6) 0.0007(4) 0.0010(4) -0.0020(4)
C10 0.0171(7) 0.0245(7) 0.0162(6) 0.0005(5) -0.0021(5) -0.0001(5)
C12 0.0280(8) 0.0203(7) 0.0172(7) 0.0005(5) -0.0021(6) -0.0005(5)
C14 0.0188(7) 0.0251(7) 0.0192(7) 0.0011(5) -0.0002(5) -0.0021(5)
C9 0.0192(7) 0.0207(7) 0.0156(7) 0.0008(5) -0.0034(5) -0.0010(5)
O5 0.0404(7) 0.0256(6) 0.0378(7) -0.0043(5) -0.0003(5) 0.0073(5)
O2 0.0332(7) 0.0261(7) 0.0870(11) 0.0079(6) 0.0208(7) 0.0082(5)
N3 0.0360(7) 0.0222(6) 0.0243(7) -0.0001(5) 0.0005(5) 0.0001(5)
N1 0.0185(6) 0.0249(6) 0.0263(7) 0.0010(5) 0.0012(5) -0.0052(5)
N2 0.0176(6) 0.0282(7) 0.0233(6) 0.0010(5) -0.0015(5) 0.0004(5)
O4 0.0478(8) 0.0234(6) 0.0649(9) 0.0014(6) 0.0150(7) -0.0085(5)
C11 0.0218(7) 0.0244(7) 0.0174(7) 0.0013(5) -0.0013(5) -0.0039(5)
C1 0.0235(7) 0.0235(7) 0.0201(7) 0.0015(5) -0.0028(6) -0.0035(5)
C2 0.0273(8) 0.0262(8) 0.0295(8) 0.0005(6) 0.0015(6) -0.0088(6)
C13 0.0212(7) 0.0256(7) 0.0188(7) -0.0005(5) -0.0009(5) 0.0030(5)
O3 0.0263(6) 0.0355(7) 0.0642(9) 0.0000(6) 0.0180(6) -0.0047(5)
C6 0.0266(8) 0.0217(7) 0.0355(9) 0.0006(6) -0.0016(6) -0.0003(6)
C8 0.0283(8) 0.0406(9) 0.0423(10) -0.0045(8) 0.0084(7) -0.0106(7)
C5 0.0404(9) 0.0257(8) 0.0364(9) 0.0014(7) -0.0123(7) 0.0034(7)
C4 0.0549(11) 0.0222(8) 0.0350(9) 0.0076(7) -0.0105(8) -0.0049(7)
C7 0.0291(8) 0.0338(9) 0.0372(9) -0.0012(7) -0.0043(7) -0.0089(7)
C3 0.0477(10) 0.0311(9) 0.0304(9) 0.0061(7) -0.0002(7) -0.0140(7)
 
_geom_special_details
;
 All esds (except the esd in the dihedral angle between two l.s. planes)
 are estimated using the full covariance matrix.  The cell esds are taken
 into account individually in the estimation of esds in distances, angles
 and torsion angles; correlations between esds in cell parameters are only
 used when they are defined by crystal symmetry.  An approximate (isotropic)
 treatment of cell esds is used for estimating esds involving l.s. planes.
;
 
loop_
 _geom_bond_atom_site_label_1
 _geom_bond_atom_site_label_2
 _geom_bond_distance
 _geom_bond_site_symmetry_2
 _geom_bond_publ_flag
O1 C9 1.3472(17) . ?
O1 N1 1.4890(15) . ?
C10 C11 1.385(2) . ?
C10 C9 1.4412(19) . ?
C10 N2 1.5011(18) . ?
C12 C11 1.405(2) . ?
C12 C13 1.415(2) . ?
C12 N3 1.4620(19) . ?
C14 C13 1.372(2) . ?
C14 C9 1.431(2) . ?
O5 N3 1.2477(18) . ?
O2 N2 1.2083(18) . ?
N3 O4 1.2394(18) . ?
N1 C1 1.272(2) . ?
N2 O3 1.2432(17) . ?
C1 C6 1.533(2) . ?
C1 C2 1.553(2) . ?
C2 C7 1.500(2) . ?
C2 C3 1.531(2) . ?
C2 C8 1.566(2) . ?
C6 C5 1.523(2) . ?
C5 C4 1.530(3) . ?
C4 C3 1.552(3) . ?
 
loop_
 _geom_angle_atom_site_label_1
 _geom_angle_atom_site_label_2
 _geom_angle_atom_site_label_3
 _geom_angle
 _geom_angle_site_symmetry_1
 _geom_angle_site_symmetry_3
 _geom_angle_publ_flag
C9 O1 N1 110.27(10) . . ?
C11 C10 C9 120.40(13) . . ?
C11 C10 N2 115.72(12) . . ?
C9 C10 N2 123.87(13) . . ?
C11 C12 C13 123.08(13) . . ?
C11 C12 N3 118.11(13) . . ?
C13 C12 N3 118.80(13) . . ?
C13 C14 C9 120.57(13) . . ?
O1 C9 C14 122.99(12) . . ?
O1 C9 C10 117.88(12) . . ?
C14 C9 C10 119.13(13) . . ?
O4 N3 O5 124.80(13) . . ?
O4 N3 C12 117.55(13) . . ?
O5 N3 C12 117.65(13) . . ?
C1 N1 O1 109.35(11) . . ?
O2 N2 O3 121.71(13) . . ?
O2 N2 C10 119.18(12) . . ?
O3 N2 C10 119.05(13) . . ?
C10 C11 C12 118.19(13) . . ?
N1 C1 C6 126.79(13) . . ?
N1 C1 C2 113.56(13) . . ?
C6 C1 C2 119.59(13) . . ?
C7 C2 C3 109.60(13) . . ?
C7 C2 C1 104.23(12) . . ?
C3 C2 C1 111.02(13) . . ?
C7 C2 C8 110.41(14) . . ?
C3 C2 C8 107.42(14) . . ?
C1 C2 C8 114.13(13) . . ?
C14 C13 C12 118.61(13) . . ?
C5 C6 C1 109.03(14) . . ?
C6 C5 C4 113.47(13) . . ?
C5 C4 C3 111.31(14) . . ?
C2 C3 C4 112.63(14) . . ?
 
loop_
 _geom_torsion_atom_site_label_1
 _geom_torsion_atom_site_label_2
 _geom_torsion_atom_site_label_3
 _geom_torsion_atom_site_label_4
 _geom_torsion
 _geom_torsion_site_symmetry_1
 _geom_torsion_site_symmetry_2
 _geom_torsion_site_symmetry_3
 _geom_torsion_site_symmetry_4
 _geom_torsion_publ_flag
N1 O1 C9 C14 1.88(17) . . . . ?
N1 O1 C9 C10 -177.90(11) . . . . ?
C13 C14 C9 O1 179.31(12) . . . . ?
C13 C14 C9 C10 -0.92(19) . . . . ?
C11 C10 C9 O1 -179.13(12) . . . . ?
N2 C10 C9 O1 2.15(19) . . . . ?
C11 C10 C9 C14 1.09(19) . . . . ?
N2 C10 C9 C14 -177.63(12) . . . . ?
C11 C12 N3 O4 -2.9(2) . . . . ?
C13 C12 N3 O4 176.24(13) . . . . ?
C11 C12 N3 O5 177.38(12) . . . . ?
C13 C12 N3 O5 -3.51(19) . . . . ?
C9 O1 N1 C1 177.16(12) . . . . ?
C11 C10 N2 O2 177.72(14) . . . . ?
C9 C10 N2 O2 -3.5(2) . . . . ?
C11 C10 N2 O3 -4.85(18) . . . . ?
C9 C10 N2 O3 173.93(13) . . . . ?
C9 C10 C11 C12 -0.35(19) . . . . ?
N2 C10 C11 C12 178.47(11) . . . . ?
C13 C12 C11 C10 -0.6(2) . . . . ?
N3 C12 C11 C10 178.47(12) . . . . ?
O1 N1 C1 C6 1.77(19) . . . . ?
O1 N1 C1 C2 -175.51(11) . . . . ?
N1 C1 C2 C7 103.24(15) . . . . ?
C6 C1 C2 C7 -74.25(17) . . . . ?
N1 C1 C2 C3 -138.84(14) . . . . ?
C6 C1 C2 C3 43.66(18) . . . . ?
N1 C1 C2 C8 -17.27(19) . . . . ?
C6 C1 C2 C8 165.24(14) . . . . ?
C9 C14 C13 C12 0.0(2) . . . . ?
C11 C12 C13 C14 0.8(2) . . . . ?
N3 C12 C13 C14 -178.30(12) . . . . ?
N1 C1 C6 C5 137.23(15) . . . . ?
C2 C1 C6 C5 -45.63(18) . . . . ?
C1 C6 C5 C4 51.82(18) . . . . ?
C6 C5 C4 C3 -58.68(19) . . . . ?
C7 C2 C3 C4 68.55(18) . . . . ?
C1 C2 C3 C4 -46.04(18) . . . . ?
C8 C2 C3 C4 -171.47(13) . . . . ?
C5 C4 C3 C2 55.01(18) . . . . ?
 
_refine_diff_density_max    0.322
_refine_diff_density_min   -0.244
_refine_diff_density_rms    0.045

_shelx_res_file
;
TITL JMWBH27
    shelx.res
    created by SHELXL-2016/6 at 09:05:50 on 30-Oct-2019
CELL  1.54184   7.1763  28.9373   7.0670   90.000   92.186   90.000
ZERR     4.00   0.0001   0.0004   0.0001    0.000    0.001    0.000
LATT   1
SYMM  - X, 1/2 + Y, 1/2 - Z
SFAC  C    H    N    O
UNIT  56 68 12 20
MERG   2
FMAP   2
PLAN   20
BOND
conf
acta
L.S.   10
WGHT    0.057000    0.742600
EXTI    0.001427
FVAR       8.14041
O1    4    0.469736    0.171185    0.129615    11.00000    0.01815    0.02003 =
         0.02942    0.00072    0.00095   -0.00200
C10   1    0.613829    0.244013    0.072102    11.00000    0.01706    0.02445 =
         0.01617    0.00052   -0.00206   -0.00009
C12   1    0.451155    0.313563    0.145522    11.00000    0.02804    0.02028 =
         0.01716    0.00050   -0.00212   -0.00046
C14   1    0.298131    0.241493    0.201523    11.00000    0.01880    0.02508 =
         0.01922    0.00107   -0.00023   -0.00210
AFIX  43
H14   2    0.196116    0.224744    0.241143    11.00000   -1.20000
AFIX   0
C9    1    0.457845    0.217621    0.135747    11.00000    0.01923    0.02067 =
         0.01556    0.00078   -0.00337   -0.00104
O5    4    0.305065    0.383082    0.209523    11.00000    0.04036    0.02565 =
         0.03775   -0.00430   -0.00031    0.00730
O2    4    0.800209    0.181259   -0.009960    11.00000    0.03324    0.02612 =
         0.08697    0.00789    0.02077    0.00816
N3    3    0.449738    0.364021    0.155738    11.00000    0.03599    0.02216 =
         0.02428   -0.00009    0.00053    0.00015
N1    3    0.293958    0.149943    0.193623    11.00000    0.01846    0.02487 =
         0.02633    0.00101    0.00124   -0.00517
N2    3    0.785466    0.222844   -0.006510    11.00000    0.01757    0.02819 =
         0.02332    0.00104   -0.00146    0.00044
O4    4    0.592700    0.384714    0.110935    11.00000    0.04785    0.02344 =
         0.06491    0.00138    0.01500   -0.00854
C11   1    0.610406    0.291837    0.077602    11.00000    0.02180    0.02438 =
         0.01738    0.00128   -0.00129   -0.00388
AFIX  43
H11   2    0.710796    0.309105    0.037428    11.00000   -1.20000
AFIX   0
C1    1    0.304677    0.106230    0.178961    11.00000    0.02355    0.02349 =
         0.02010    0.00151   -0.00276   -0.00346
C2    1    0.122073    0.080766    0.227482    11.00000    0.02727    0.02625 =
         0.02950    0.00050    0.00150   -0.00877
C13   1    0.294198    0.288887    0.206645    11.00000    0.02122    0.02556 =
         0.01876   -0.00052   -0.00091    0.00296
AFIX  43
H13   2    0.190543    0.304463    0.249394    11.00000   -1.20000
AFIX   0
O3    4    0.905627    0.248544   -0.072596    11.00000    0.02635    0.03549 =
         0.06420    0.00003    0.01801   -0.00472
C6    1    0.471599    0.078356    0.112541    11.00000    0.02657    0.02165 =
         0.03551    0.00065   -0.00162   -0.00034
AFIX  23
H6A   2    0.448702    0.068398   -0.017330    11.00000   -1.20000
H6B   2    0.582754    0.097457    0.117649    11.00000   -1.20000
AFIX   0
C8    1   -0.016901    0.110795    0.340744    11.00000    0.02832    0.04055 =
         0.04234   -0.00449    0.00841   -0.01062
AFIX  33
H8A   2    0.039905    0.118973    0.461305    11.00000   -1.50000
H8B   2   -0.047150    0.138375    0.270601    11.00000   -1.50000
H8C   2   -0.128669    0.093449    0.359774    11.00000   -1.50000
AFIX   0
C5    1    0.500149    0.036434    0.240662    11.00000    0.04039    0.02567 =
         0.03644    0.00138   -0.01229    0.00344
AFIX  23
H5A   2    0.544555    0.046812    0.364871    11.00000   -1.20000
H5B   2    0.595932    0.016918    0.189537    11.00000   -1.20000
AFIX   0
C4    1    0.323148    0.007716    0.262176    11.00000    0.05489    0.02216 =
         0.03496    0.00763   -0.01055   -0.00491
AFIX  23
H4A   2    0.350414   -0.018217    0.345680    11.00000   -1.20000
H4B   2    0.282429   -0.004472    0.139595    11.00000   -1.20000
AFIX   0
C7    1    0.036153    0.067567    0.038369    11.00000    0.02906    0.03382 =
         0.03718   -0.00123   -0.00429   -0.00886
AFIX  33
H7A   2    0.009805    0.094961   -0.034458    11.00000   -1.50000
H7B   2    0.121242    0.048358   -0.027697    11.00000   -1.50000
H7C   2   -0.077584    0.050935    0.056211    11.00000   -1.50000
AFIX   0
C3    1    0.164275    0.037135    0.344011    11.00000    0.04774    0.03106 =
         0.03042    0.00612   -0.00019   -0.01399
AFIX  23
H3A   2    0.052191    0.018476    0.347818    11.00000   -1.20000
H3B   2    0.199306    0.045967    0.472915    11.00000   -1.20000
AFIX   0
HKLF    4




REM  JMWBH27
REM R1 =  0.0470 for    2689 Fo > 4sig(Fo)  and  0.0498 for all    2902 data
REM    200 parameters refined using      0 restraints

END

WGHT      0.0570      0.7424

REM Highest difference peak  0.322,  deepest hole -0.244,  1-sigma level  0.045
Q1    1   0.5375  0.2298  0.0717  11.00000  0.05    0.32
Q2    1   0.8116  0.1882  0.1089  11.00000  0.05    0.29
Q3    1   0.2113  0.0926  0.2019  11.00000  0.05    0.27
Q4    1   0.3634  0.2313  0.1374  11.00000  0.05    0.25
Q5    1   0.3739  0.3009  0.1560  11.00000  0.05    0.25
Q6    1   0.1561  0.0592  0.2863  11.00000  0.05    0.24
Q7    1   0.3897  0.2301  0.2103  11.00000  0.05    0.24
Q8    1   0.5200  0.3020  0.0841  11.00000  0.05    0.23
Q9    1   0.6983  0.2333  0.0539  11.00000  0.05    0.23
Q10   1   0.0569  0.0996  0.2696  11.00000  0.05    0.23
Q11   1   0.3877  0.0925  0.1701  11.00000  0.05    0.22
Q12   1   0.9035  0.2439  0.0318  11.00000  0.05    0.22
Q13   1   0.6285  0.2631  0.1395  11.00000  0.05    0.19
Q14   1   0.4081  0.0230  0.2651  11.00000  0.05    0.19
Q15   1   0.6036  0.2660  0.0137  11.00000  0.05    0.19
Q16   1   0.4731  0.0461  0.3643  11.00000  0.05    0.18
Q17   1   0.4726  0.0570  0.1815  11.00000  0.05    0.18
Q18   1   0.5646  0.0970  0.0388  11.00000  0.05    0.18
Q19   1   0.6539  0.3742  0.0263  11.00000  0.05    0.17
Q20   1   0.7084  0.1708  0.0582  11.00000  0.05    0.17
;
_shelx_res_checksum   99779

_shelx_hkl_file
;
   0   0   1 414.773 45.6571   2
   0   0   1 634.753 41.4366   3
   0   0   2 172424. 686.028   2
   0   0   3 52.1316 77.6842   2
   0   0   4 10264.6 187.516   7
   0   0   4 11086.7 280.764   2
   0   0   5 62.4929 64.5012   7
   0   0   5 56.7105 100.592   2
   0   0  -5 95.7844 87.2158   1
   0   0   6 7991.06 232.420  16
   0   0   6 8444.91 224.096   7
   0   0   7-9.48988 93.0485  16
   0   0   8 86.6943 86.7512  16
   0  -1   1 19243.2 150.644   2
   0   1   1 19735.0 158.418   3
   0   1   1 19552.1 173.153   2
   0   1   3 94699.0 667.660   2
   0  -1   3 95906.9 634.415   2
   0  -1   4 113531. 592.529   7
   0   1   4 121750. 899.972   2
   0   1  -4 117094. 936.703   1
   0  -1   4 121082. 864.949   2
   0   1   4 112857. 594.724   7
   0  -1  -5 1336.03 155.656   1
   0   1  -5 1596.06 157.129   1
   0   1   5 1486.47 99.6034   7
   0  -1   5 1504.62 105.428   7
   0   1   6 595.984 109.377  16
   0  -1   6 795.701 106.924   7
   0  -1   6 566.395 106.327  16
   0   1   6 524.000 91.1887   7
   0  -1   7 972.224 119.552  16
   0   1   7 986.365 120.091  16
   0   1   8 4301.27 160.359  16
   0  -1   8 4102.54 160.819  16
   0   2  -1 166279. 2119.15   1
   0   2   1 170764. 1894.09   3
   0  -2   1 169928. 1645.74   2
   0   2   2 241641. 3462.85   2
   0   2  -2 237346. 3492.16   1
   0  -2   2 246824. 3059.38   2
   0   2   2 237053. 3190.40   3
   0   2   3 4159.09 108.487   7
   0   2   3 3950.49 154.286   2
   0   2  -3 3842.34 162.192   1
   0  -2   3 4077.99 111.665   4
   0   2   4 9954.97 188.052   7
   0  -2   4 10306.0 260.509   2
   0   2   4 10206.3 282.698   2
   0   2  -4 9391.69 276.681   1
   0   2  -5 3143.72 205.321   1
   0   2   5 3095.98 198.104   2
   0  -2  -5 2896.79 207.392   1
   0   2   5 2915.71 130.665   7
   0  -2   5 2925.78 125.484   7
   0   2   6 1940.85 131.043   7
   0  -2   6 1863.78 128.505   7
   0   2   6 1962.59 139.537  16
   0  -2   6 2030.59 140.770  16
   0   2   7 73.3838 97.4427  16
   0  -2   7 65.5490 95.8921  16
   0   2   8 3324.63 147.912  16
   0  -2   8 3305.77 148.294  16
   0   3   0 409.592 35.7210   0
   0  -3   0 360.340 38.0514   0
   0   3  -1 21065.6 206.702   1
   0   3   1 21942.0 181.469   3
   0   3   2 15547.5 237.171   2
   0  -3   2 15710.7 192.598   2
   0   3   2 15107.5 209.928   3
   0  -3   3 13732.2 239.051   2
   0   3  -3 13018.1 273.996   1
   0   3   3 12941.7 176.368   7
   0   3   3 13464.6 253.811   3
   0   3   3 12572.1 262.028   2
   0  -3   3 12954.3 186.677   4
   0   3   4 1567.23 131.821   2
   0   3  -4 1367.67 140.902   1
   0   3   4 1398.76 86.8625   7
   0   3   5 5953.28 176.053   7
   0   3   5 6238.66 263.170   2
   0   3  -5 5767.85 263.436   1
   0  -3   5 6174.43 174.536   7
   0  -3   6 3320.43 162.530  16
   0  -3   6 3102.44 153.878   7
   0   3   6 3091.44 159.606  16
   0  -3   7 5044.23 195.653  16
   0   3   7 5321.40 195.788  16
   0   3   8 138.493 86.1162  16
   0  -3   8 89.7836 84.8687  16
   0   4   0 659.005 55.3268   1
   0   4   0 678.914 53.5124   0
   0   4  -1 363665. 3603.02   1
   0   4   1 393269. 3253.53   3
   0   4  -2 102172. 607.890   1
   0   4   2 101765. 540.416   3
   0   4   2 102130. 608.300   2
   0   4   3 48.8497 54.0128   7
   0   4   3 135.470 93.4689   2
   0  -4   3 30.2596 47.1390   4
   0   4  -3 79.5417 74.9351   1
   0  -4   3 58.9244 63.5978   2
   0   4   3 54.5332 61.6715   3
   0   4  -4 48200.0 615.641   1
   0   4   4 49632.6 408.875   7
   0   4   5 15429.7 405.885   2
   0   4   5 15252.4 268.946   7
   0  -4   5 15951.0 267.634   7
   0  -4   6 26618.3 400.373  16
   0   4   6 26686.5 398.244  16
   0   4   6 28219.1 396.462  12
   0  -4   6 28023.9 387.808   7
   0   4   7 1466.06 131.349  16
   0  -4   7 1349.13 129.999  16
   0   4   8 115.229 83.5366  16
   0  -4   8 154.215 87.7865  16
   0   5   0 45.4785 52.0520   0
   0   5   0 64.6728 63.5722   1
   0   5   1 82604.9 406.803   3
   0   5  -1 81934.7 464.557   1
   0   5  -2 128876. 712.438   1
   0  -5   2 142170. 524.853   2
   0   5   2 134889. 638.321   3
   0   5   2 134254. 719.449   2
   0   5   2 136749. 474.846   7
   0  -5   2 134651. 1895.77   5
   0   5   3 2296.47 141.946   2
   0   5   3 2270.26 119.351   3
   0   5   3 2472.68 92.1064   7
   0  -5   3 2409.91 109.321   2
   0  -5   3 2289.71 88.2513   4
   0   5  -3 2203.17 132.594   1
   0   5  -4 25971.5 462.774   1
   0   5   4 25429.8 299.156   7
   0   5   4 25918.9 458.075   2
   0   5  -5 3.39495 91.8543   1
   0   5   5 61.2680 74.5597   7
   0   5   5 49.1919 125.648   2
   0  -5   5 74.6262 68.2842   7
   0   5   6 11912.1 276.780  16
   0  -5   6 11825.0 276.986  16
   0  -5   6 12246.2 264.406   7
   0  -5   7 16683.8 328.736  16
   0   5   7 16978.7 326.112  16
   0   5   8 6819.90 188.537  16
   0  -5   8 6834.72 189.943  16
   0   6   0 247024. 3362.22   0
   0   6   0 265313. 3438.10   1
   0   6  -1 159804. 700.091   1
   0   6   1 157360. 2412.65   3
   0   6   2 57494.5 489.452   2
   0  -6   2 59111.3 312.385   4
   0   6  -2 58171.5 491.187   1
   0   6   2 59916.0 439.470   3
   0  -6   2 59092.0 329.045   5
   0   6  -3 118.897 90.0645   1
   0   6   3 56.8650 60.5070   7
   0   6   3 39.8658 59.4975   3
   0   6   3 209.352 97.8595   2
   0  -6   3 352.365 60.4594   4
   0   6   4 1747.81 157.252   2
   0   6   4 1775.99 103.321   7
   0   6  -4 1668.44 145.672   1
   0   6  -5 1901.35 166.552   1
   0   6   5 1967.78 185.556   2
   0  -6   6 9195.41 249.784  16
   0  -6   6 9286.25 233.424   7
   0   6   6 9417.34 250.710  16
   0   6   6 9978.58 250.234  12
   0  -6   7 7113.19 225.026  16
   0   6   7 7615.37 208.911   9
   0   6   7 7081.91 222.594  16
   0   6   8 5980.59 175.836  16
   0  -6   8 5884.97 177.344  16
   0   7   0 189.854 61.3540   0
   0   7   0 289.917 81.4159   1
   0   7  -1 256328. 3797.17   1
   0  -7  -1 266553. 3743.12   0
   0   7   1 266156. 3370.87   3
   0  -7   2 13454.0 166.622   5
   0   7   2 14115.8 258.829   2
   0   7   2 13875.1 225.516   3
   0  -7   2 13837.0 158.236   4
   0   7  -2 13477.6 254.825   1
   0   7   3 2253.03 117.922   3
   0  -7   3 1912.65 85.7650   4
   0   7  -3 1895.90 131.721   1
   0   7   3 2086.81 139.762   2
   0   7   4 24693.2 466.680   2
   0   7  -4 22369.6 442.365   1
   0   7   4 26231.6 425.421   3
   0  -7   4 23788.4 306.621   4
   0   7   5 2446.26 197.708   2
   0   7  -5 2209.05 184.128   1
   0  -7   6 15675.5 303.215  23
   0   7   6 14654.8 305.675  16
   0   7   6 15430.2 307.777  12
   0  -7   6 14256.2 303.739  16
   0  -7   6 15628.4 294.014   7
   0   7   7 10187.9 255.118  16
   0   7   7 10408.8 241.113   9
   0  -7   7 9720.56 255.136  16
   0  -7   8 2604.57 130.090  16
   0   7   8 2690.68 130.340  16
   0   8   0 136518. 721.390   0
   0   8   0 139271. 730.998   1
   0  -8  -1 74415.1 525.269   0
   0   8   1 74714.3 482.079   3
   0   8  -1 73516.7 545.402   1
   0  -8   2 178605. 2251.37   4
   0   8   2 167781. 884.680   2
   0  -8   2 173907. 2409.33   5
   0   8   2 181641. 816.629   3
   0   8  -2 165760. 910.810   1
   0   8   3 9434.02 224.515   3
   0   8  -3 8621.10 250.518   1
   0   8   3 9238.92 260.991   2
   0  -8   3 9298.89 165.032   4
   0  -8   4 569.802 77.9813   4
   0   8  -4 564.266 113.137   1
   0   8   4 612.277 121.303   2
   0   8  -5 10448.8 354.911   1
   0   8   5 11253.8 369.261   2
   0  -8   6 752.348 105.171   7
   0   8   6 705.374 107.298  12
   0  -8   6 616.651 109.681  16
   0   8   6 680.262 106.443  16
   0  -8   6 817.075 106.098  23
   0  -8   7 318.348 103.632  16
   0   8   7 421.963 98.6568   9
   0   8   7 313.282 103.490  16
   0  -8   8 10715.9 222.068  16
   0   8   8 10997.3 218.629  16
   0   9   0 11.7673 73.7559   0
   0   9   0 170.672 75.5493   1
   0   9   1 139039. 697.679   3
   0   9  -1 139769. 855.579   0
   0   9  -1 139865. 795.801   1
   0  -9  -1 140095. 776.689   0
   0   9   2 67790.5 520.227   3
   0   9  -2 62112.7 581.029   1
   0  -9   2 65430.1 353.837   4
   0  -9   2 64485.5 388.971   5
   0   9   2 64191.2 566.069   2
   0  -9  -2 69879.9 576.905   0
   0   9   3 30378.3 463.222   2
   0   9   3 34277.4 423.946   3
   0  -9   3 32488.6 304.645   4
   0   9  -3 29429.2 459.737   1
   0  -9   4 17960.9 274.040   4
   0   9  -4 17108.3 400.907   1
   0   9   4 16626.7 397.977   2
   0   9   5 12.5088 129.590   2
   0   9  -5-23.3158 115.549   1
   0   9   6 6166.88 209.569  12
   0   9   6 6367.98 212.704  16
   0  -9   6 6510.59 215.435  16
   0  -9   6 6994.65 212.743  23
   0  -9   6 6746.94 203.502   7
   0  -9   7 14605.9 301.849  16
   0   9   7 14633.1 298.818  16
   0   9   7 15241.0 285.338   9
   0   9   8 125.562 65.3602   9
   0   9   8 102.977 76.2080  16
   0  -9   8 132.672 80.8903  16
   0 -10   0 18946.5 200.954   5
   0  10   0 17416.5 195.205   8
   0  10   0 18662.9 313.807   1
   0  10   0 17866.0 303.097   0
   0 -10   1 39382.1 290.332   5
   0 -10  -1 38798.1 433.846   0
   0  10  -1 38109.6 474.308   0
   0  10   1 38159.6 391.863   3
   0 -10  -2 22312.3 349.675   0
   0  10   2 23502.7 324.286   3
   0 -10   2 22032.9 214.757   4
   0  10  -2 21656.0 366.428   1
   0  10   2 21361.5 345.672   2
   0 -10   2 22707.8 244.153   5
   0  10  -3 26792.9 452.300   1
   0  10   3 26872.9 448.781   2
   0 -10   4 56.3885 65.0670   4
   0  10  -4 142.652 104.798   1
   0  10   4 124.194 99.8680   2
   0  10   5 1632.41 192.241   2
   0  10  -5 1663.24 180.881   1
   0 -10   6 319.191 103.714  16
   0  10   6 392.685 94.0103  12
   0 -10   6 303.219 93.7842   7
   0  10   6 334.953 101.604  16
   0  10   7 2206.38 133.196   9
   0 -10   7 1930.21 137.183  16
   0  10   7 1817.23 133.349  16
   0  10   8 3391.19 128.107  16
   0  10   8 3778.26 117.772   9
   0 -10   8 3549.21 137.367  16
   0 -11   0 148.834 52.0375   5
   0  11   0 9.40596 69.1392   0
   0  11   0 58.2313 77.5083   1
   0  11   0 54.0841 45.5603   8
   0  11   1 28873.1 361.995   3
   0  11   1 28518.6 274.797   8
   0  11  -1 32230.2 451.125   0
   0 -11  -1 31593.1 412.394   0
   0 -11   1 30232.3 268.654   5
   0  11  -1 30266.3 420.126   1
   0  11   2 5091.82 184.368   2
   0  11  -2 4232.35 182.207   1
   0 -11  -2 4409.01 174.944   0
   0 -11   2 4595.78 121.919   5
   0  11   2 5047.23 164.252   3
   0 -11   2 4871.63 108.847   4
   0  11   3 17817.6 323.324   3
   0  11  -3 14585.4 348.002   1
   0 -11   3 16614.5 227.680   4
   0  11   3 14920.5 345.207   2
   0 -11   3 15804.8 237.298   5
   0 -11   4 1730.63 105.035   4
   0  11  -4 1737.59 159.747   1
   0  11   4 1504.32 152.571   2
   0  11  -5 1356.91 179.092   1
   0  11   5 1075.24 183.901   2
   0  11   6 61.2657 91.0702  16
   0 -11   6 87.1915 94.0116  16
   0  11   6 55.1735 83.4679  12
   0  11   7 56.8462 75.8136  12
   0  11   7 52.4130 85.7388  16
   0 -11   7 77.5941 87.8540  16
   0  11   7 187.221 87.1710   9
   0  11   8 1960.75 94.9268   9
   0  11   8 1759.49 100.637  16
   0 -11   8 1962.88 112.158  16
   0  12   0 1531.12 131.252   1
   0  12   0 1382.71 78.8723   8
   0  12   0 1398.05 116.656   0
   0 -12   0 1423.39 77.9746   5
   0  12  -1 22071.5 376.698   1
   0  12   1 22705.4 337.566   3
   0  12   1 22254.7 256.993   8
   0 -12   1 22652.9 245.200   5
   0  12   2 38105.0 442.393   3
   0  12  -2 33679.7 494.406   1
   0 -12   2 38192.8 290.919   4
   0  12   2 35173.0 462.079   2
   0 -12   2 36075.4 329.442   5
   0  12  -3 10360.0 308.419   1
   0 -12   3 10414.3 200.002   5
   0 -12   3 10997.1 190.172   4
   0  12   3 10501.6 301.625   2
   0  12   4 251.246 110.610   2
   0  12  -4 290.691 107.755   1
   0 -12   4 384.069 73.5401   4
   0  12   5 4177.19 172.985  12
   0 -12   5 4309.27 177.775  16
   0  12   6 11230.0 274.603  12
   0 -12   6 11359.7 276.757  16
   0  12   7 31.7139 84.8823   9
   0 -12   7 43.8670 90.4179  16
   0  12   7 50.9179 85.0438  16
   0  12   7 101.200 76.6080  12
   0 -12   8 70.0482 75.0879  16
   0  12   8 177.625 68.5988   9
   0  12   8 99.5170 67.7359  16
   0 -12  -8 3264.33 115.318  22
   0 -12  -8 4968.03 121.924  20
   0 -13   0 7.37080 60.3049   5
   0  13   0 32.7104 57.1185   8
   0  13   0 21.2038 99.7569   1
   0  13   1 387304. 5761.46   3
   0  13   1 387116. 4331.54   8
   0  13  -1 385660. 6525.30   1
   0 -13   1 399054. 4215.19   5
   0 -13  -1 381956. 4313.43   5
   0 -13   2 16379.3 236.419   5
   0 -13   2 17455.0 206.164   4
   0  13   2 17418.8 315.395   3
   0  13   2 16347.4 329.084   2
   0  13  -2 15525.3 352.536   1
   0  13   3 119583. 994.472   2
   0  13  -3 119027. 1031.46   1
   0  13  -4 1967.16 182.922   1
   0 -13   4 2354.82 118.796   4
   0  13   4 2245.14 186.236   2
   0  13   5 1649.43 122.238  12
   0 -13   5 1418.83 127.549  16
   0 -13   6 2327.15 149.137  16
   0  13   6 2496.53 145.262  12
   0 -13   7 322.350 94.1708  16
   0  13   7 342.464 91.4491  16
   0  13   7 302.783 84.8620  12
   0  13   7 335.653 90.5569   9
   0 -13   8 29.7145 67.7260  16
   0  13   8 72.3542 63.7565  16
   0  13   8 62.5022 61.5771   9
   0  13  -8 3004.61 106.694  18
   0 -13  -8 3102.29 99.5817  20
   0 -14   0 138584. 643.122   5
   0  14   0 139659. 936.973   3
   0  14   0 136978. 994.241   1
   0 -14   1 434688. 4621.80   5
   0  14   1 435642. 4783.66   8
   0  14  -1 435120. 7198.27   1
   0  14   1 448396. 6479.08   3
   0 -14  -1 426107. 4738.59   5
   0  14  -2 1582.24 149.617   1
   0  14   2 1787.31 134.279   2
   0 -14   2 1706.87 92.9758   5
   0  14   2 2008.87 128.198   3
   0 -14   3 457.771 67.4172   4
   0 -14   3 467.744 73.9284   5
   0  14  -3 493.935 116.298   1
   0  14   3 547.408 116.745   2
   0  14   4 17255.7 442.594   2
   0  14  -4 17093.6 448.616   1
   0 -14   5 1441.14 128.165  16
   0  14   5 1445.77 120.910  12
   0 -14   6 824.587 113.652  16
   0  14   6 667.935 97.1286  12
   0 -14   7 1346.83 119.416  16
   0  14   7 1319.52 107.838  12
   0  14   7 1336.22 112.544   9
   0  14   7 1382.58 111.469  16
   0 -14   8 1270.12 86.4700  16
   0  14   8 1445.26 80.0863  16
   0 -15   0 19.3006 59.6173   5
   0  15   0 56.3231 61.8604   8
   0  15   0 93.2334 83.9825   3
   0 -15  -1 61430.3 473.468   5
   0  15   1 61776.3 567.211   2
   0  15   1 61019.7 466.844   8
   0 -15   1 60735.8 454.107   5
   0  15  -1 60244.2 702.179   1
   0  15  -2 6267.29 254.255   1
   0  15   2 5557.39 215.120   2
   0  15   2 6302.94 210.726   3
   0  15   2 5756.32 163.863   8
   0 -15   2 6237.26 159.905   5
   0 -15   3 21100.1 304.071   5
   0  15  -3 19964.9 454.821   1
   0  15   3 21107.5 441.470   2
   0  15   4 341.778 117.207   2
   0  15  -4 332.405 109.915   1
   0  15   5 3225.30 157.498  12
   0 -15   5 3288.75 166.873  16
   0  15   6 54.5702 79.0512  12
   0 -15   6 30.9817 94.3898  16
   0  15   7 1194.92 105.998  16
   0 -15   7 1180.66 115.322  16
   0  15   7 1153.28 100.642  12
   0  15   7 1154.85 105.053   9
   0  16   0 49250.8 609.132   3
   0 -16   0 48276.1 415.889   5
   0 -16   1 15173.6 237.985   5
   0  16   1 15766.8 333.208   3
   0  16   1 15062.8 294.478   2
   0  16  -1 14643.8 367.916   1
   0  16   1 14362.0 240.361   8
   0 -16  -1 14933.5 245.594   5
   0  16   2 31142.3 487.454   2
   0  16  -2 32475.9 561.167   1
   0 -16   2 32621.1 360.519   5
   0 -16   3 7873.47 196.253   5
   0  16  -3 7464.32 297.569   1
   0  16   3 7788.43 282.198   2
   0  16   4 133.488 110.166   2
   0  16  -4 112.363 119.078   1
   0 -16   5 19040.8 354.693  16
   0  16   5 18478.0 341.271  12
   0  16   6 4239.94 175.762  12
   0 -16   6 4643.65 188.767  16
   0 -16  -7 4289.08 116.713  20
   0  16   7 4578.94 157.609  16
   0  16   7 4718.24 159.880  12
   0  16   7 4521.91 154.782   9
   0 -16   7 4873.88 170.463  16
   0  17   0 66.3549 89.7256   3
   0 -17   0 11.9010 58.3364   5
   0  17   1 37517.8 394.744   8
   0 -17   1 38704.3 387.334   5
   0 -17  -1 37389.8 391.838   5
   0  17  -1 37700.0 601.602   1
   0  17   2 1885.14 113.994   8
   0  17   2 2262.54 155.920   2
   0 -17  -2 1827.34 115.903   5
   0  17  -2 1961.82 175.710   1
   0 -17   2 2039.38 110.087   5
   0  17  -3 22530.9 513.039   1
   0  17   3 23586.1 484.405   2
   0  17   3 23100.8 349.119   8
   0 -17   4-23.6125 92.2534  16
   0  17   4 120.922 115.825   2
   0  17   4 88.0477 81.1208   8
   0 -17   5 223.542 98.5612  16
   0  17   5 288.971 80.1924   8
   0  17   5 258.357 89.2615  12
   0  17   6 62.5373 77.1768  12
   0 -17   6 107.502 96.3833  16
   0  17   7 94.9613 78.3990   9
   0  17   7 22.5868 72.5361  16
   0  17   7 54.0309 66.0115  12
   0 -17   7 48.3992 82.8410  16
   0  18   0 5052.77 224.289   3
   0 -18   0 5023.09 153.448   5
   0 -18   1 10344.5 211.669   5
   0  18   1 10165.1 216.640   8
   0  18   1 10775.7 295.232   3
   0  18  -1 10672.0 340.617   1
   0  18   2 314.927 99.5999   2
   0  18  -2 543.252 136.012   1
   0  18   2 384.138 78.1709   8
   0 -18   2 349.094 68.6837   5
   0 -18  -2 391.493 84.1869   5
   0 -18   3 2814.47 133.040   5
   0  18  -3 2551.96 210.578   1
   0  18   3 2700.03 135.569   8
   0  18   3 2628.68 186.881   2
   0 -18   4 67.2338 87.0236  24
   0  18   4-7.26817 78.7011  12
   0 -18   4 108.718 99.5874  16
   0  18   4 62.5545 80.1721   8
   0  18   5 25546.0 397.982  12
   0  18   5 25630.5 394.297   8
   0 -18   5 25448.6 407.404  16
   0  18   6 7943.44 220.759  12
   0 -18   6 8046.41 229.505  16
   0  18   7 1288.73 99.3476  16
   0 -18   7 1418.14 107.196  16
   0  18   7 1467.88 100.931   9
   0  19   0 149.315 95.6748   3
   0 -19   0 42.6805 64.2567   5
   0 -19   1 29479.8 362.635   5
   0 -19  -1 29534.4 371.730   5
   0  19   1 28383.6 367.937   8
   0  19  -1 27852.4 553.424   1
   0  19   1 30238.0 506.571   3
   0 -19  -2 35125.7 422.968   5
   0  19  -2 34394.6 632.709   1
   0  19   2 34869.9 422.481   8
   0 -19   3 13612.8 268.439   5
   0  19  -3 12920.4 415.202   1
   0 -19  -3 12939.0 279.506   5
   0  19   3 13502.7 385.241   2
   0  19   3 12856.5 273.794   8
   0  19   4 2739.55 143.377  12
   0 -19   4 2781.85 149.195  24
   0 -19   4 2877.33 163.010  16
   0  19   4 2580.18 146.141   8
   0  19   5 133.493 79.0353   8
   0  19   5 30.8416 77.6596  12
   0 -19   5 35.7665 95.1938  16
   0  19   6 9966.36 239.229  12
   0 -19   6 9979.01 245.589  16
   0 -19  -7 29016.4 295.910  22
   0 -19   7 28236.0 305.300  17
   0  19   7 28644.3 310.499  16
   0 -19   7 28322.6 320.642  16
   0  19   7 27936.2 300.646   9
   0  20   0 18469.9 422.891   3
   0 -20   0 17219.0 287.101   5
   0 -20  -1 10664.3 234.529   5
   0  20  -1 11461.3 349.739   3
   0 -20   1 11040.3 231.838   5
   0  20  -1 10318.4 360.984   1
   0  20   1 10703.8 235.687   8
   0  20   2 7598.64 208.348   8
   0  20  -2 7500.77 312.666   1
   0 -20  -2 7699.15 212.409   5
   0 -20   3 6727.45 198.454   5
   0  20   3 6362.44 203.026   8
   0 -20  -3 6355.30 207.065   5
   0 -20  -4 58.9842 92.3306   5
   0  20   4 28.5590 75.0706  12
   0 -20   4 82.3432 93.9678  24
   0 -20   4 55.7395 96.5470  16
   0  20   4 11.9835 80.1302   8
   0 -20   5 25773.5 403.418  16
   0  20   5 26088.7 394.814  12
   0 -20   6 4266.05 169.714  16
   0  20   6 4238.50 159.377  12
   0 -20   7 2522.60 105.041  17
   0  20   7 2541.50 106.370   9
   0 -20   7 2397.72 108.813  16
   0  20   7 2572.07 107.106  16
   0 -21   0 46.8529 69.6131   5
   0  21   0 25.6807 93.8180   3
   0 -21   1 86.1807 68.2493   5
   0 -21  -1 188.194 81.4050   5
   0  21  -1 70.9787 104.881   3
   0  21   1 82.6516 66.7398   8
   0  21  -2 330.968 133.638   1
   0  21   2 517.883 92.4963   8
   0 -21  -2 561.016 97.9454   5
   0 -21   2 562.753 84.6844   5
   0 -21   3 446.057 101.351  24
   0 -21   3 284.631 97.4987  16
   0 -21   3 360.870 102.919  17
   0 -21  -3 360.071 98.1907   5
   0  21   3 319.555 89.4800   8
   0 -21   3 558.462 87.7625   5
   0  21   3 397.602 84.9149  12
   0  21   3 293.899 99.6137  14
   0 -21  -4 141.709 98.9517   5
   0 -21   4 402.059 101.784  17
   0  21   4 177.371 83.7729   8
   0 -21   4 30.4818 93.5791  24
   0  21   4 58.8578 76.6434  12
   0 -21   4 57.9378 93.0054  16
   0  21   5 8877.54 233.591  12
   0 -21   5 9450.10 240.257  17
   0 -21   5 8908.86 244.975  16
   0 -21   6 15991.6 268.997  17
   0 -21   6 15689.1 279.510  16
   0  21   6 16001.4 261.251   9
   0  21   6 16002.5 276.887  12
   0  21   7 41267.1 317.155  16
   0  21   7 41347.2 310.271   9
   0 -21   7 41050.7 326.200  16
   0  22   0 18418.5 442.574   3
   0 -22   0 17255.8 301.732   5
   0  22  -1 472.639 121.429   3
   0 -22   1 377.857 79.9140   5
   0 -22  -1 457.542 85.9771   5
   0 -22   2 1586.30 114.482   5
   0  22   2 1533.45 112.413   8
   0 -22  -2 1607.84 124.903   5
   0  22  -2 1578.12 201.225   1
   0  22   3 11889.0 264.151  14
   0 -22   3 11742.8 263.590  24
   0 -22   3 12220.1 271.065  17
   0 -22   3 12238.7 262.957   5
   0  22   3 11448.7 267.624   8
   0 -22  -3 11705.6 269.959   5
   0 -22   3 11379.4 272.643  16
   0  22   3 12521.7 264.396  12
   0 -22   4 2473.73 144.178  24
   0  22   4 2435.72 139.367   8
   0 -22   4 2365.14 143.006  17
   0 -22   4 2360.86 152.421  16
   0 -22  -4 2300.83 143.772   5
   0  22   4 2266.43 133.515  12
   0 -22   5 12620.9 278.385  16
   0  22   5 12780.4 269.995  12
   0 -22   6 11324.7 231.770  16
   0 -22   6 11948.5 224.539  17
   0  22   6 11415.9 227.319  12
   0  22   6 12093.6 218.625   9
   0 -23   0 81.2100 75.1554   5
   0 -23   1 2338.20 130.688   5
   0  23  -1 2408.46 196.393   3
   0 -23  -1 2656.36 140.372   5
   0 -23   2 5579.37 187.612  24
   0  23  -2 5812.00 196.565  19
   0 -23   2 5656.11 199.459  16
   0  23   2 5671.20 191.949   8
   0 -23   2 5859.20 186.239   5
   0  23   2 6191.99 193.915  19
   0  23   2 5554.04 192.069  14
   0 -23  -2 5761.26 198.927   5
   0  23  -3 757.008 105.047  19
   0  23   3 834.302 115.247  14
   0 -23   3 705.446 107.046  16
   0 -23   3 665.467 91.4377   5
   0 -23   3 891.355 110.316  17
   0 -23  -3 815.278 106.602   5
   0 -23   3 799.865 107.477  24
   0  23   3 806.436 98.6140  12
   0  23   3 730.489 95.1326   8
   0  23   4 2166.11 130.427   8
   0  23   4 2339.19 140.507  14
   0 -23  -4 2496.08 148.491   5
   0 -23   4 2519.80 144.115  17
   0 -23   4 2417.16 143.552  24
   0  23   4 2226.09 132.639  12
   0 -23   4 2651.45 153.724  16
   0 -23   5 8633.59 225.763  16
   0 -23   5 8587.40 217.379  17
   0  23   5 8884.13 220.958  12
   0 -23   6 8722.74 182.214  17
   0  23  -6 8746.60 178.858  19
   0  23   6 8673.08 176.932   9
   0  23   6 8471.71 186.731  12
   0 -23   6 8468.79 191.997  16
   0 -24   0 24776.3 360.432  24
   0  24   0 25881.7 372.814  19
   0 -24   0 25279.1 371.439   5
   0  24  -1 2977.68 150.990  14
   0  24  -1 2871.00 146.415  19
   0  24   1 2875.46 154.996  14
   0 -24   1 3294.01 147.261   5
   0 -24  -1 3208.50 149.536   5
   0  24   1 3174.95 151.641  19
   0 -24   1 2980.89 147.841  24
   0  24   2 5708.47 197.657   8
   0  24   2 6514.13 199.065  19
   0 -24   2 6610.68 196.523   5
   0  24  -2 6496.02 204.720  19
   0  24   2 5767.32 198.771  14
   0 -24   2 5700.31 191.116  24
   0 -24  -2 6769.45 212.006   5
   0 -24   3 241.328 87.5935  24
   0 -24   3 381.520 92.7393  17
   0  24   3 338.957 104.701  14
   0 -24   3 229.668 94.7545  16
   0  24   3 260.208 79.3794   8
   0 -24  -3 339.376 98.7491   5
   0  24  -3 274.891 88.8468  19
   0  24   4 1144.64 114.411  14
   0  24   4 1423.85 111.508  12
   0 -24   4 1085.54 115.178  16
   0 -24   4 1093.42 115.448  24
   0  24  -4 1233.36 111.555  19
   0 -24   5 289.990 90.0364  16
   0  24   5 296.267 78.0427  12
   0 -24   5 342.883 86.5498  17
   0  24  -5 527.944 86.4064  19
   0 -24   5 403.983 84.4921  24
   0  24   6 32642.0 326.909  16
   0 -24   6 32136.6 330.378  16
   0 -24  -6 31596.6 308.826  22
   0  24   6 32738.9 329.168  12
   0  24  -6 32802.4 298.750  19
   0 -24   6 34106.7 308.906  17
   0  24   6 33675.3 301.070   9
   0 -25   0 234.668 82.4857   5
   0  25   0 20.3202 90.0301  14
   0 -25   0 18.7438 92.5501  24
   0  25   0 49.7205 83.5173  19
   0  25   1 13178.2 272.980  19
   0 -25  -1 12595.8 268.299   5
   0  25  -1 13143.8 266.164  14
   0  25  -1 13008.5 273.535  19
   0 -25   1 12045.3 266.545  24
   0 -25   1 13393.5 273.157   5
   0  25   1 11627.3 261.726  14
   0  25   2 48.5845 80.7210  19
   0  25  -2-2.50962 87.0337  19
   0 -25   2 41.3440 91.5043  24
   0  25   2 35.1512 89.5925  14
   0 -25  -2 38.3254 86.7384   5
   0 -25   2 60.4818 74.2283   5
   0 -25   3 4414.84 180.057  16
   0 -25  -3 4450.87 180.430   5
   0  25   3 4531.22 165.103  12
   0  25  -3 4347.47 173.819  19
   0  25   3 4135.91 168.478   8
   0 -25   3 4102.12 170.987  24
   0  25   3 4345.23 173.654  14
   0  25  -4 130.503 81.2189  19
   0 -25   4 102.281 87.7616  16
   0 -25   4 76.6688 83.4215  17
   0  25   4 259.527 94.0639  14
   0  25   4 84.7836 72.3759  12
   0 -25   4 109.015 82.9133  24
   0  25   5 1380.15 100.719  12
   0 -25   5 1467.64 104.674  17
   0  25  -5 1390.09 99.1453  19
   0 -25   5 1353.50 108.070  16
   0  25   5 1555.28 100.794   9
   0 -25   5 1498.69 101.973  24
   0  25   6 3886.51 105.143   9
   0  25   6 3683.58 111.454  12
   0  25   6 3573.84 113.826  16
   0  26   0 6907.68 204.214  19
   0 -26   0 7482.59 210.266   5
   0 -26   0 6987.36 208.650  24
   0 -26  -1 381.914 92.4920   5
   0  26   1 12.7012 91.8972  14
   0 -26   1 74.3495 93.7613  24
   0  26  -1 56.4644 81.6694  19
   0 -26   1-1.13365 72.7165   5
   0  26  -1 190.422 94.7469  14
   0  26   1 88.8000 84.3273  19
   0 -26   2 20049.6 338.994  24
   0  26   2 21940.8 343.855  19
   0  26   2 20416.4 342.611  14
   0 -26  -2 21916.6 346.731   5
   0  26  -2 21348.4 345.292  19
   0 -26   2 23290.7 346.939   5
   0  26  -3 418.219 88.7653  19
   0 -26   3 328.931 99.6021  24
   0  26   3 421.404 97.7620  14
   0  26   3 347.531 78.5078  12
   0  26   4 5233.90 165.626  12
   0 -26   4 5369.50 171.514  17
   0  26  -4 5306.94 171.015  19
   0  26   4 5647.40 174.585  14
   0  26  -5 1694.55 98.8794  19
   0 -26   5 1624.15 98.7062  17
   0 -26   5 1677.78 99.0909  24
   0  26   5 1407.73 93.3487  12
   0  26   6 119.624 55.2570  16
   0  27   0-29.4155 87.0820  14
   0 -27   0-15.5828 76.2053   5
   0 -27   0 26.7751 84.6638  24
   0  27   0 10.5528 80.4601  19
   0  27  -1 897.558 104.408  19
   0  27   1 995.285 107.388  19
   0  27  -1 917.451 110.139  14
   0 -27   1 1023.37 106.567   5
   0  27   1 729.980 111.853  14
   0 -27   1 811.122 104.056  24
   0 -27  -1 908.169 108.181   5
   0 -27   2 2812.51 146.934  24
   0  27   2 2983.57 155.519  14
   0  27  -2 3229.50 150.945  19
   0 -27   3 10469.6 245.427  24
   0  27   3 10843.2 247.732  14
   0  27   4 938.669 99.0411  14
   0 -27   4 963.292 98.2550  24
   0  27   4 1078.02 89.2921  12
   0  27  -4 1108.76 95.8356  19
   0 -27  -5 5748.10 144.973  22
   0  27  -5 5617.39 135.643  19
   0  27   5 5410.15 139.155  12
   0 -28   0 136989. 836.011  24
   0  28   0 136017. 822.777  19
   0  28   1 1201.37 123.294  14
   0 -28   1 1356.37 122.400  24
   0  28  -1 1259.52 117.065  19
   0  28   1 1214.82 115.190  19
   0  28  -1 1253.11 116.383  14
   0 -28   2 242.097 96.8750  24
   0  28   2 264.135 99.2695  14
   0  28  -2 141.792 79.7149  19
   0  28   3 5894.14 185.716  14
   0  28  -3 5881.82 174.524  19
   0 -28   3 5326.47 180.968  24
   0 -28   4 1738.51 111.198  24
   0  28   4 1786.22 96.4136  12
   0  28   4 1832.62 109.604  14
   0  28  -4 1734.23 98.7269  19
   0 -28  -4 1699.54 108.839  22
   0 -28   5 13.7231 39.9323  24
   0  28   5 201.666 56.1449  12
   0 -28  -5 140.579 67.8225  22
   0  29   0 75.8146 92.9678  14
   0  29   0 53.1508 85.8642  19
   0 -29   0 71.3748 89.9256  24
   0 -29   1 1533.28 120.269  24
   0  29   1 1593.68 126.934  14
   0  29  -1 1708.20 125.836  14
   0  29   1 1693.06 118.679  19
   0  29  -1 1656.62 118.047  19
   0  29   2 8474.34 219.070  14
   0 -29   2 8041.78 214.990  24
   0  29  -2 8784.75 210.084  19
   0  29  -3 1704.12 104.367  19
   0 -29   3 1565.54 115.812  24
   0  29   3 1567.87 115.526  14
   0  29   4 4238.26 130.269  14
   0 -29   4 4138.15 139.437  24
   0  29  -4 4153.69 122.734  19
   0 -30   0 37537.9 418.289  24
   0  30   0 38029.0 409.924  19
   0 -30   1 22841.5 337.106  24
   0  30   1 24824.6 329.047  19
   0  30  -1 24051.3 328.711  14
   0  30  -1 23608.5 326.151  19
   0  30   1 21919.5 332.680  14
   0  30  -2 79.0555 72.0196  19
   0 -30   2 2.00087 74.9738  24
   0  30   2 64.0896 85.3726  14
   0  30  -3 878.069 81.3356  19
   0 -30   3 849.969 92.8878  24
   0  30   3 880.366 93.9708  14
   0  30   4 160.969 67.1267  14
   0 -30   4 26.3103 64.4481  24
   0 -31   0 40.4684 78.7407  24
   0  31   0 0.89183 83.9838  14
   0  31   0 18.4627 67.4149  19
   0  31  -1 74.3369 81.4806  14
   0 -31   1 163.288 78.4558  24
   0  31  -1 7.92841 65.9557  19
   0  31   1 59.9448 84.7595  14
   0 -31   2 10.9088 73.8216  24
   0  31   2 53.7698 82.5286  14
   0  31   3 1774.11 104.343  14
   0 -31   3 1840.00 108.741  24
   0 -31   4 4209.00 117.030  24
   0  32   0 566.942 89.4786  14
   0 -32   0 510.320 83.4560  24
   0  32   1 7663.40 190.841  14
   0 -32   1 7924.94 189.149  24
   0 -32   2 3808.24 137.555  24
   0  32   2 3939.51 141.123  14
   0  32   3 181.750 70.2553  14
   0 -32   3 78.1224 67.3870  24
   0  33   0-4.39333 72.2699  14
   0  33  -1 18.8050 65.1723  14
   0  33   1 38.2667 76.2415  14
   0 -33   1 41.3684 67.9004  24
   0  33   2 6821.01 160.547  14
   0 -33   2 6776.19 157.513  24
   0 -33   3 769.438 70.7402  24
   0  33   3 815.488 71.9196  14
   0  34   0 13.8093 63.9592  14
   0  34   1 748.151 79.6543  14
   0 -34   1 833.608 75.9597  24
   0  34   2 2480.91 98.6044  14
   0 -34   2 2251.26 94.4959  24
   0  35   0-5.43919 57.0736  14
   0  35   1 2847.63 97.4267  14
   0  35   2 1080.82 68.2161  14
  -1   0   8 6462.91 181.113  16
  -1   0   7 16.0939 79.5196  23
  -1   0   7-32.0452 92.7434  16
  -1   0   6 52520.6 545.992  16
  -1   0   6 54658.2 534.437  23
  -1   0   5 17.5381 66.9710   7
   1   0  -5 150.024 121.141   1
   1   0  -4 41.8151 90.1288   1
  -1   0   4-9.88903 83.3979   2
  -1   0   4 73.4861 54.3483   7
  -1   0   3 38.7873 72.9065   3
  -1   0   3 23.8064 75.5587   2
  -1   0   2 607035. 5916.40   3
  -1   0   1 34.8590 43.1698   3
   1   0   1 210.944 56.0183   2
   1   0   2 9550.35 197.155   2
   1   0   3 40.4153 48.2719   7
   1   0   3 14.6066 87.3121   2
   1   0   3 71.7336 54.2464   4
  -1   0  -4 656806. 8689.36   1
   1   0   4 659339. 8579.80   2
  -1   0  -5 58.1134 114.612   1
   1   0   5 42.4503 67.2677   7
   1   0   6 22068.2 365.583  16
   1   0   7 41.3526 92.8907  16
   1   0   8 1282.93 116.570  16
  -1   1   8 1140.12 106.420  16
  -1  -1   8 1237.90 105.915  16
  -1  -1   7 1320.30 126.302  16
  -1  -1   7 1733.24 123.554  23
  -1   1   7 1621.52 132.451  16
  -1  -1   6 473.425 100.359   7
  -1  -1   6 483.802 106.113  16
  -1   1   6 486.022 97.5425  23
  -1  -1   6 386.790 94.4036  23
  -1   1   6 457.570 102.094   7
  -1   1   6 384.545 107.172  16
   1   1  -5 1041.93 151.092   1
   1  -1  -5 1269.81 150.625   1
  -1   1   5 1091.53 102.390   7
  -1  -1   5 1207.31 99.7435   7
  -1   1   4 2506.22 151.370   2
  -1   1   4 2864.57 113.868   7
  -1  -1   4 2918.24 152.318   2
   1   1  -4 2520.66 165.768   1
   1   1  -3 36359.2 453.772   1
  -1   1   3 35369.8 452.213   3
  -1   1   3 38773.5 436.972   2
  -1  -1   3 38684.6 406.395   2
  -1  -1   2 9214.36 193.800   3
  -1   1   2 9140.41 191.292   3
  -1   1   1 249648. 2961.90   3
  -1  -1   1 246505. 2864.74   3
   1  -1   0 44420.0 277.956   2
   1   1   0 44969.2 253.625   2
  -1   1   0 45029.9 240.875   3
   1   1   1 127208. 532.464   2
   1  -1   1 128328. 532.609   2
   1   1   3 26939.5 381.683   2
   1  -1   3 26138.1 253.326   4
   1  -1   3 27903.0 226.664   7
   1   1   3 25262.2 249.223   4
   1  -1   3 26652.9 369.003   2
   1   1   3 27382.4 230.588   7
   1   1   4 192.251 70.6757   7
   1   1   4 232.666 120.501   2
   1  -1   4 304.536 75.3906   4
  -1   1  -4 170.846 100.259   1
   1  -1   4 132.021 72.0967   7
   1  -1   4 176.886 112.664   2
  -1   1  -5 2497.62 191.432   1
  -1  -1  -5 2599.68 195.026   1
   1   1   5 2766.86 195.462   2
   1   1   5 2614.52 120.324   7
   1  -1   5 2558.20 119.335   7
   1  -1   5 2633.37 181.377   2
   1  -1   6 35979.1 455.961  16
   1   1   6 35199.7 456.518  16
   1  -1   7 2797.05 155.946  16
   1   1   7 2806.05 154.728  16
   1   1   8 6005.69 183.629  16
   1  -1   8 6174.51 185.187  16
  -1   2   8 1463.79 108.916  16
  -1  -2   8 1401.87 108.429  16
  -1   2   7 10685.7 261.767  16
  -1  -2   7 10425.4 260.280  16
  -1   2   6 87.2467 79.1069   7
  -1   2   6 51.5322 92.8463  16
  -1  -2   6 152.793 89.0149   7
  -1  -2   6 265.319 90.3508  23
  -1  -2   6 102.716 94.4150  16
  -1   2   6 54.8393 82.7299  23
  -1   2   5 4889.98 165.304   7
  -1  -2   5 4832.32 164.020   7
   1   2  -5 5256.75 257.361   1
  -1   2   4 875.980 112.301   2
   1   2  -4 1024.85 127.326   1
  -1   2   4 851.738 82.4137   7
  -1   2   3 51082.7 535.969   3
   1   2  -3 53138.8 544.345   1
  -1   2   3 51711.7 353.633   7
  -1   2   3 54854.2 532.245   2
  -1  -2   3 56032.2 468.519   2
   1   2  -2 67560.9 492.661   1
  -1   2   2 64886.4 495.134   3
  -1  -2   1 117653. 504.526   3
  -1   2   1 118416. 531.013   3
   1   2  -1 118429. 485.357   1
  -1   2   0 151690. 2006.41   3
   1   2   0 152875. 1789.45   2
   1  -2   1 102450. 480.412   2
   1   2   1 102019. 483.067   2
  -1   2  -1 100908. 487.617   0
  -1   2  -1 102279. 387.106   1
   1  -2   2 105518. 593.712   2
   1   2   2 104741. 618.268   2
  -1   2  -2 106156. 562.817   1
   1   2   3 25099.5 249.857   4
   1   2   3 25122.5 374.369   2
   1  -2   3 25293.8 358.666   2
  -1   2  -3 26093.2 365.497   1
   1  -2   3 25290.9 252.087   4
   1   2   4 199570. 764.293   7
   1  -2   4 198749. 1153.60   2
  -1   2  -4 196849. 1192.08   1
   1  -2   4 197479. 844.719   4
   1   2   5 6752.41 177.333   7
   1   2   5 6786.41 278.340   2
  -1   2  -5 6416.47 274.053   1
  -1  -2  -5 6505.54 274.726   1
   1  -2   5 6861.53 173.221   7
   1   2   6 16783.1 322.016  16
   1  -2   6 17312.3 325.529  16
   1   2   6 17962.4 310.570   9
   1   2   7 1704.97 131.554  16
   1  -2   7 1621.91 134.465  16
   1  -2   8 577.846 99.1290  16
   1   2   8 434.715 97.1811  16
  -1   3   8 128.745 81.6694  16
  -1  -3   8 104.573 80.2801  16
  -1  -3   7 686.981 111.293  16
  -1   3   7 665.256 107.130  16
  -1  -3   7 658.940 100.723  23
  -1  -3   6 7853.75 223.436   7
  -1   3   6 8508.82 221.845  23
  -1   3   6 8420.57 234.008  16
  -1   3   6 7669.55 222.112   7
  -1  -3   6 8312.12 235.367  16
  -1  -3   6 8438.56 226.308  23
   1   3  -5 1000.11 141.401   1
  -1  -3   5 1041.57 100.434   7
  -1   3   5 1086.79 145.990   2
  -1   3   5 1007.30 93.3714   7
   1   3  -4 11059.1 311.866   1
  -1   3   4 11473.4 206.515   7
  -1   3   3 41200.6 485.783   3
  -1   3   3 40309.8 317.515   7
   1   3  -3 40468.8 486.270   1
  -1   3   2 66138.8 508.550   3
  -1   3   2 66440.1 328.514   7
  -1   3   1 3587.41 110.594   3
   1   3  -1 3269.27 103.473   1
  -1   3  -1 101536. 535.760   0
  -1   3  -1 104028. 423.667   1
   1  -3   1 104330. 485.943   2
   1   3   1 100397. 491.797   2
   1  -3   2 40062.9 368.661   2
  -1   3  -2 39367.0 356.358   1
   1   3   2 38500.2 385.444   2
   1  -3   2 41018.1 265.373   4
   1   3   3 47018.4 514.466   2
  -1   3  -3 48503.5 494.500   1
   1  -3   3 47577.2 347.397   4
   1  -3   3 47510.9 477.516   2
   1  -3   4 136624. 612.252   7
   1  -3   4 131277. 930.014   2
   1  -3   4 125868. 686.371   4
  -1   3  -4 129432. 977.024   1
   1   3   4 129727. 997.567   2
   1   3   4 132222. 633.894   7
   1  -3   5 1344.73 96.9884   7
   1   3   5 1581.56 158.206   2
   1   3   6 12432.9 282.378  16
   1   3   6 12806.3 268.521   9
   1  -3   6 12263.7 276.942  16
   1   3   7 1764.76 132.597  16
   1  -3   7 1927.92 142.053  16
   1   3   8 1525.17 117.740  16
   1  -3   8 1573.99 117.398  16
  -1  -4   8 51.2438 77.5529  16
  -1   4   8 35.3506 82.2641  16
  -1   4   7 143.662 93.7999  16
  -1  -4   7 100.625 96.0714  16
  -1  -4   7 138.215 83.9894  23
  -1   4   6 45.8173 83.2080  23
  -1   4   6 83.0181 84.6749   7
  -1   4   6 114.072 94.2735  16
  -1  -4   6 29.1991 90.1132   7
  -1  -4   6 78.9581 84.6637  23
  -1  -4   6 63.3838 96.3537  16
   1   4  -5 18447.6 455.812   1
  -1   4   5 17459.5 293.760   7
  -1  -4   5 18479.4 301.709   7
  -1   4   4 99.3720 70.1842   7
   1   4  -4 71.1541 95.5795   1
  -1   4   4 99.7701 85.0995   3
  -1   4   4 291.392 102.800   2
   1   4  -3 13859.1 293.504   1
  -1   4   3 14075.6 291.174   3
  -1   4   3 13607.4 191.636   7
   1   4  -2 3817.43 136.459   1
  -1   4   2 3988.28 93.2080   7
  -1  -4   2 4317.51 96.7578   2
  -1   4   2 3981.95 137.682   3
  -1  -4   2 3962.26 95.0150   5
   1   4  -1 35670.1 305.064   1
  -1   4   1 38167.4 332.257   3
  -1   4   0 22086.5 197.430   1
   1   4   0 22327.3 171.738   2
  -1   4   0 20986.8 231.227   3
   1  -4   0 20516.6 252.538   0
   1   4   0 20723.4 206.423   1
   1  -4   1 97849.4 479.341   2
  -1   4  -1 98596.9 453.076   1
   1   4   2 132320. 718.261   2
  -1   4  -2 132551. 672.224   1
   1  -4   2 132912. 661.109   2
   1  -4   2 133595. 1958.20   4
   1   4   3 76535.6 412.470   7
   1  -4   3 76042.9 598.660   2
  -1   4  -3 75910.8 630.770   1
   1  -4   3 74470.9 440.182   4
   1   4   4 143226. 672.983   7
   1  -4   4 141568. 731.865   4
  -1   4  -4 138209. 1019.76   1
   1   4   4 137184. 1047.57   2
   1   4   5 6509.62 283.404   2
  -1   4  -5 6587.13 277.683   1
   1   4   6 22011.3 366.079  16
   1   4   6 22180.2 350.043   9
   1   4   7 3579.43 168.325  16
   1  -4   7 3435.92 166.019  16
   1   4   7 3969.37 163.649   9
   1  -4   8 172.366 87.7723  16
   1   4   8 74.1540 85.9193  16
  -1   5   8 1791.81 110.914  16
  -1  -5   8 1761.52 112.115  16
  -1  -5   7 889.074 117.876  16
  -1  -5   7 816.762 105.408  23
  -1   5   7 870.855 111.579  16
  -1   5   6 1788.84 135.380  16
  -1  -5   6 1614.23 127.096   7
  -1  -5   6 1938.46 130.828  23
  -1  -5   6 1576.23 133.427  16
  -1   5   5 6948.89 195.338   7
   1   5  -5 6968.54 287.964   1
  -1   5   4 42254.6 587.003   2
  -1   5   4 42438.7 588.067   3
   1   5  -4 41248.4 594.773   1
  -1   5   3 9633.01 246.966   3
  -1   5   3 9772.03 167.434   7
   1   5  -3 9813.74 257.037   1
   1   5  -2 33014.4 376.607   1
  -1   5   2 32459.9 244.058   7
  -1  -5   2 31701.0 251.371   5
  -1   5   2 32453.2 375.948   3
  -1   5   1 13739.4 217.408   3
   1   5  -1 12231.9 199.158   1
  -1   5   0 10718.5 181.018   3
   1   5   0 10874.8 172.833   1
   1   5   0 10987.3 124.993   2
  -1   5   0 11093.0 163.119   1
  -1   5  -1 5376.89 129.264   1
  -1   5  -1 4985.17 153.568   0
   1   5   1 5293.22 132.125   2
   1  -5   1 5371.49 129.530   2
   1   5   2 128.141 82.8173   2
  -1   5  -2 253.844 73.5839   1
   1  -5   2 74.5564 69.1396   2
   1  -5   2 78.4777 43.0616   4
   1   5   2 32.9685 33.5399   3
  -1   5  -3 4909.25 184.689   1
   1  -5   3 5043.57 167.954   2
   1  -5   3 4770.91 123.124   4
   1   5   3 5207.64 196.782   2
  -1   5  -4 13108.5 332.810   1
   1   5   4 13209.3 342.366   2
   1  -5   4 13595.9 237.058   4
   1   5   5 2075.75 185.280   2
  -1   5  -5 1863.42 167.978   1
   1   5   6 584.239 110.276   9
   1  -5   6 588.928 108.685  16
   1   5   6 508.085 107.794  16
   1  -5   7 73.8044 94.7626  16
   1   5   7 83.0338 91.0525  16
   1   5   7-12.3195 92.3184   9
   1  -5   8 9817.73 219.675  16
   1   5   8 10250.7 221.918  16
  -1   6   8 51.9796 76.7268  16
  -1  -6   8 164.067 81.9890  16
  -1   6   7 13184.7 281.027  16
  -1  -6   7 13627.1 282.920  23
  -1  -6   7 13210.1 288.226  16
  -1  -6   6 14454.9 296.097  23
  -1   6   6 13820.0 296.511  12
  -1  -6   6 13198.1 281.197   7
  -1   6   6 14114.3 297.620  16
  -1  -6   6 14174.4 302.562  16
  -1   6   5 40082.1 445.973   7
   1   6  -5 40805.2 674.739   1
   1   6  -4 12156.3 331.990   1
  -1   6   4 11815.8 317.629   3
  -1   6   4 12078.4 332.890   2
  -1   6   4 11625.4 217.255   7
  -1   6   3 85.6792 60.5291   7
  -1   6   3 43.7791 68.5518   3
   1   6  -3 11.6342 92.0483   1
  -1   6   2 730.681 63.8576   7
  -1   6   2 762.858 88.8569   3
  -1  -6   2 639.325 60.2869   5
  -1   6   1 8880.46 183.729   3
   1   6  -1 10404.5 196.469   1
   1   6   0 239075. 3346.63   1
  -1   6   0 250357. 3249.79   1
  -1   6   0 249691. 3599.33   3
   1   6   0 247297. 2327.23   2
   1   6   1 561643. 3068.42   3
  -1   6  -1 529619. 4949.94   1
   1  -6   1 540529. 4716.21   2
  -1   6  -1 509401. 5880.08   0
   1   6   1 511558. 4779.35   2
   1  -6   2 34499.6 271.017   4
  -1   6  -2 34286.9 371.793   1
   1  -6   2 35068.4 341.913   2
   1  -6   3 3776.89 146.224   2
  -1   6  -3 3482.47 161.087   1
   1   6   3 3550.44 174.924   2
   1  -6   3 3570.86 113.559   4
   1   6   4 14972.9 366.589   2
  -1   6  -4 14965.0 352.999   1
   1  -6   4 15071.9 248.995   4
   1   6   5 1908.75 184.711   2
  -1   6  -5 1991.52 169.448   1
   1   6   6 1796.58 136.430  16
   1  -6   6 1918.31 141.561  16
   1   6   6 1702.12 133.153   9
   1   6   7 25.4163 92.5540  16
   1  -6   7 15.2716 94.0240  16
   1   6   7 63.8863 93.1048   9
   1  -6   8 7416.87 191.477  16
   1   6   8 7170.88 187.291  16
  -1   7   8 5829.97 158.957  16
  -1  -7   8 5546.82 162.286  16
  -1  -7   7 8041.94 229.042  16
  -1  -7   7 8158.26 223.857  23
  -1   7   7 8015.76 223.932  16
  -1   7   6 15531.5 317.395  12
  -1  -7   6 15239.7 303.419   7
  -1  -7   6 15516.6 316.656  16
  -1  -7   6 15558.8 309.927  23
  -1   7   6 15627.5 312.655  16
   1   7  -5 10048.3 348.017   1
  -1   7   5 10883.3 362.089   2
  -1   7   4 91811.7 596.915   7
  -1   7   4 94824.7 913.250   2
  -1   7   3 88062.5 753.132   3
   1   7  -3 88525.7 764.298   1
  -1   7   2 1097.65 70.7733   7
  -1  -7   2 836.563 62.6990   5
   1   7  -2 843.815 89.5770   1
  -1   7   2 841.471 91.3036   3
  -1   7   1 1889.06 107.266   3
   1   7  -1 3142.88 128.183   1
  -1   7   0 826.163 82.6392   3
   1   7   0 232.634 42.8798   2
  -1   7   0 278.546 71.9851   1
   1   7   0 602.065 86.7562   1
  -1   7  -1 26549.2 304.766   1
   1   7   1 25507.0 284.458   2
  -1   7  -1 26109.9 358.942   0
  -1   7  -2 168047. 858.570   1
   1   7   2 174884. 572.235   3
   1   7   2 163785. 868.802   2
   1  -7   2 170080. 2401.09   4
  -1  -7  -2 169505. 652.892   0
   1  -7   2 173265. 749.961   2
   1   7   3 7577.93 241.409   2
  -1   7  -3 7291.77 221.078   1
   1  -7   3 7712.69 158.977   4
   1  -7   3 8123.82 200.308   2
   1  -7   4 4647.64 148.578   4
  -1   7  -4 4488.98 205.699   1
   1   7   4 4419.97 216.904   2
  -1   7  -5 4478.45 235.983   1
   1   7   5 4400.26 252.232   2
   1   7   6 475.817 106.549   9
   1   7   6 548.740 96.5844  12
   1   7   6 434.549 106.529  16
   1  -7   7 5670.49 200.764  16
   1   7   7 5615.35 189.754   9
   1   7   7 5557.52 197.995  16
   1   7   8 279.214 83.9652  16
   1  -7   8 329.475 86.6318  16
   1   7   8 230.149 82.0870   9
  -1   8   8 2480.13 114.742  16
  -1  -8   8 2624.51 121.546  16
  -1  -8   7 3641.32 160.878  23
  -1   8   7 3630.42 162.464  16
  -1  -8   7 3613.63 165.250  16
  -1  -8   6 6046.65 201.233   7
  -1   8   6 6058.69 208.168  16
  -1  -8   6 6112.56 204.339  23
  -1   8   6 6053.43 207.844  12
  -1  -8   6 6211.17 214.310  16
  -1   8   5 58873.4 818.737   2
   1   8  -5 56241.7 806.377   1
  -1   8   4 104353. 978.033   2
   1   8  -4 99797.7 955.058   1
  -1   8   3 88.3663 69.7678   3
   1   8  -3 89.7368 77.5911   1
  -1  -8   2 23694.0 245.967   5
  -1   8   2 24321.5 356.096   3
   1   8  -2 24431.0 367.366   1
   1  -8  -1 26619.8 372.857   0
  -1  -8   1 26439.7 234.741   5
   1   8  -1 25659.7 337.227   1
  -1   8   1 25077.3 332.891   3
   1   8   0 6114.48 105.590   2
   1   8   0 6177.32 169.232   1
   1   8   0 6227.66 151.476   0
  -1   8   0 6309.33 167.252   1
   1  -8   0 6312.32 194.371   0
  -1   8   0 6205.46 169.694   3
   1   8   1 85164.4 409.317   8
  -1   8  -1 84298.3 662.908   0
   1   8   2 2673.33 138.637   2
   1  -8   2 2863.28 117.362   2
   1  -8   2 2800.56 95.0330   4
  -1   8  -2 2763.57 139.437   1
   1  -8   3 64450.6 444.978   4
  -1   8  -3 63446.0 641.299   1
   1   8   4 1296.22 147.966   2
  -1   8  -4 1031.09 133.390   1
   1  -8   4 1113.58 91.2050   4
   1  -8   5 981.054 103.666   4
  -1   8  -5 958.361 151.142   1
   1   8   5 955.682 150.085   2
   1  -8   6 3777.26 174.154  16
   1   8   6 3757.63 173.555  16
   1   8   6 3852.81 167.388  12
   1   8   6 3960.15 174.478   9
   1  -8   7 568.634 108.721  16
   1   8   7 504.289 104.215   9
   1   8   7 542.116 101.632  16
   1   8   8 3582.28 137.287  16
   1   8   8 3920.29 127.487   9
   1  -8   8 3965.81 145.968  16
  -1  -9   8 872.134 93.8551  16
   1  -9  -8 5755.96 140.681  20
   1   9  -8 4334.24 139.310  18
  -1   9   7 5278.21 185.199  16
  -1  -9   7 5518.35 194.409  16
  -1  -9   6 47744.6 520.278   7
  -1   9   6 50284.7 544.241  16
  -1   9   6 48574.0 551.847  12
  -1  -9   6 48754.2 545.733  16
  -1  -9   6 49702.9 545.011  23
   1   9  -5 4490.82 253.159   1
  -1   9   5 5579.49 286.217   2
  -1   9   4 3087.45 184.712   3
   1   9  -4 3142.78 202.551   1
  -1   9   4 2768.18 189.996   2
   1   9  -3 2483.78 155.994   1
  -1  -9   3 2450.20 102.272   5
  -1   9   3 2446.78 147.523   3
  -1  -9   2 2732.29 99.5701   5
  -1   9   2 2814.77 139.758   3
   1   9  -2 3072.35 148.081   1
   1   9  -1 43.9016 84.3410   1
   1  -9  -1 4.81323 76.2606   0
  -1  -9   1 4.85568 53.9048   5
  -1   9   1 12.6875 64.2960   3
  -1  -9   0 27414.2 247.086   5
  -1   9   0 26873.9 358.981   3
   1   9   0 27535.1 359.067   1
   1   9   0 29041.5 226.183   2
   1   9   0 26970.8 322.438   0
   1   9   0 27569.7 236.792   8
  -1   9   0 27781.6 346.797   1
   1  -9   0 28467.4 405.557   0
  -1   9  -1 8173.83 226.721   0
   1   9   1 7806.62 176.249   2
   1   9   1 7949.27 138.715   8
  -1   9  -1 8219.42 202.336   1
  -1   9  -2 30222.6 409.155   1
   1   9   2 30721.0 402.595   2
   1  -9   2 31670.4 278.946   4
   1  -9   2 31644.0 253.492   5
   1  -9   2 32846.3 339.115   2
  -1   9  -3 25712.3 427.325   1
   1   9   3 25500.8 434.088   2
   1  -9   3 25565.7 288.677   4
   1   9   4 5008.71 239.021   2
  -1   9  -4 4968.53 227.316   1
   1  -9   4 5406.92 162.274   4
   1  -9   5 2257.94 130.399   4
  -1   9  -5 2205.47 192.491   1
   1   9   5 2340.47 216.086   2
   1   9   6 2204.91 143.202   9
   1  -9   6 2523.86 151.274  16
   1   9   6 2260.38 137.893  12
   1   9   6 2157.43 144.333  16
   1   9   7 156.854 91.9864  16
   1   9   7 200.190 81.2958  12
   1   9   7 247.244 93.4964   9
   1  -9   7 366.370 100.523  16
   1   9   8 470.498 82.7254  16
   1  -9   8 511.602 87.0286  16
   1   9   8 539.726 79.5992   9
   1  10  -8 4178.18 130.757  18
  -1 -10   8 940.227 90.7182  16
  -1  10   8 971.230 84.0739  16
   1 -10  -8 4407.73 126.959  20
  -1 -10   7 1518.37 125.498  16
  -1  10   7 1542.99 119.245  16
  -1 -10   6 871.873 113.149   7
  -1 -10   6 916.634 119.763  16
  -1 -10   6 955.723 113.846  23
  -1  10   6 927.500 114.963  16
  -1  10   6 812.470 107.890  12
  -1  10   5 1650.35 191.065   2
   1  10  -5 1453.44 179.442   1
  -1  10   4 299.483 105.743   2
  -1  10   4 316.861 92.3076   3
   1  10  -4 444.325 114.467   1
   1  10  -3 16339.5 367.311   1
  -1  10   3 16890.1 354.619   3
  -1  10   2 28459.1 415.104   3
  -1 -10   2 28746.3 293.440   5
   1  10  -2 27681.3 422.685   1
  -1  10   1 44330.6 477.350   3
  -1 -10   1 43703.0 333.016   5
   1  10   0 40992.9 279.377   2
   1 -10   0 41002.5 289.822   4
   1 -10   0 40954.4 505.929   0
  -1 -10   0 38074.2 306.118   5
   1  10   0 38822.9 453.983   1
  -1  10   0 40176.8 440.181   1
  -1  10   0 39238.4 453.087   3
   1  10   0 38953.3 297.270   8
   1  10   0 40454.5 414.587   0
   1  10   1 10073.4 170.124   3
   1 -10   1 9449.02 148.307   4
   1  10   1 9494.59 161.606   8
   1  10   1 9831.51 198.527   2
  -1  10  -1 9028.00 224.732   1
  -1  10  -2 18206.6 335.218   1
   1  10   2 18222.9 323.178   2
   1 -10   2 18608.6 221.095   4
  -1  10  -3 77419.2 751.078   1
   1 -10   3 78467.5 508.558   4
   1  10   3 76710.9 753.023   2
   1 -10   4 20683.6 306.391   4
   1  10   4 19816.3 450.050   2
  -1  10  -4 20071.6 435.651   1
  -1  10  -5 76047.3 923.676   1
   1 -10   5 75318.6 644.275   4
   1  10   5 75536.4 951.772   2
   1  10   6 1756.84 128.190  12
   1  10   6 1891.71 136.252  16
   1 -10   6 1708.01 134.398  16
   1 -10   7 175.100 91.6778  16
   1  10   7 47.7011 77.5528  12
   1  10   7 57.8633 87.3949  16
   1  10   8 1954.00 98.6344   9
   1 -10   8 1945.65 112.039  16
   1  10   8 1834.03 105.630  16
  -1  11   8 324.483 69.0184  16
   1 -11  -8 3338.16 107.117  20
  -1 -11   8 335.991 77.3206  16
   1  11  -8 2934.05 112.901  18
  -1 -11   7 4066.77 169.538  16
  -1  11   7 3998.20 162.357  16
  -1  11   6 1029.20 112.087  12
  -1 -11   6 945.915 119.965  16
  -1 -11   6 929.229 110.393  23
  -1  11   6 1000.22 116.657  16
  -1 -11   6 872.049 110.717   7
  -1 -11   5 20429.1 346.926  16
  -1  11   5 20870.6 350.698  12
  -1 -11   5 20592.4 343.606  23
   1  11  -4 5393.76 255.559   1
  -1  11   4 5938.10 244.585   3
  -1  11   4 5532.91 259.774   2
  -1 -11   3 453.318 67.8258   5
  -1  11   3 454.356 92.9007   3
   1  11  -3 385.815 110.243   1
   1  11  -2 659.456 101.706   1
  -1 -11   2 704.073 73.4186   5
  -1  11   2 654.916 94.6064   3
   1  11  -1 257.818 103.501   1
  -1  11   1 112.421 80.3746   3
  -1 -11   1 202.755 61.3088   5
   1  11   0 8509.80 229.562   1
  -1 -11   0 8742.35 160.876   5
   1  11   0 8288.95 206.490   0
  -1  11   0 8848.04 144.137   8
  -1  11   0 8739.66 233.426   3
   1 -11   0 8715.72 144.729   4
   1  11   1 23194.7 309.300   2
   1 -11   1 23993.3 215.903   5
   1 -11   1 23501.9 233.785   4
   1  11   1 22601.3 248.482   8
  -1  11  -1 22381.6 361.875   1
   1  11   1 24432.7 281.215   3
   1  11   2 91903.1 720.762   2
   1 -11   2 92910.8 500.373   4
   1 -11   3 14386.1 227.370   4
   1  11   3 14631.7 345.065   2
   1 -11   4 18345.3 292.399   4
   1  11   4 17261.2 427.497   2
  -1  11  -4 17138.9 416.740   1
   1  11   5 164.383 135.523   2
  -1  11  -5 282.588 132.754   1
   1 -11   5 245.075 89.4529   4
   1 -11   6 1593.03 134.469  16
   1  11   6 1433.89 121.433  12
   1  11   7 152.579 89.6366   9
   1  11   7 44.8136 73.9446  12
   1  11   7 86.5204 87.1090  16
   1 -11   7 92.6797 91.4361  16
   1 -11   8 4538.20 144.407  16
   1  11   8 4202.99 134.218  16
   1  11   8 4553.78 127.160   9
   1 -12  -8 2209.52 93.8135  20
   1  12  -8 1930.68 94.5898  18
  -1  12   8-17.6186 57.1662  16
  -1 -12   8-5.82447 65.5631  16
  -1 -12   7 6011.27 193.730  16
  -1  12   7 5776.38 183.781  16
  -1 -12   6 9730.57 258.741  16
  -1  12   6 9963.05 252.213  16
  -1  12   6 9290.05 253.532  12
  -1  12   5 743.870 103.663  12
  -1 -12   5 868.764 111.159  23
  -1  12   4 31262.5 579.729   2
   1  12  -4 30067.3 577.963   1
   1  12  -3 1086.56 128.210   1
  -1 -12   3 957.228 82.6811   5
  -1  12   3 1054.20 118.124   3
  -1 -12   2 16307.0 239.096   5
  -1  12   2 15778.9 332.463   3
  -1  12   1 23996.4 385.511   3
  -1 -12   1 24249.6 272.905   5
   1  12  -1 24220.6 408.548   1
  -1  12   0 49331.2 553.661   3
  -1 -12   0 47896.2 375.438   5
   1 -12   0 50787.8 343.801   4
   1 -12   0 52224.5 328.970   5
   1  12   0 48816.3 508.680   0
   1  12   0 48390.7 549.121   1
  -1  12   0 50271.5 345.137   8
   1  12   1 11242.4 186.826   8
   1 -12   1 11724.6 174.463   4
  -1 -12  -1 10919.6 193.884   5
  -1  12  -1 11121.9 273.680   1
   1  12   1 11520.8 224.280   2
   1  12   1 11867.3 212.251   3
   1  12   2 42566.6 379.111   8
  -1  12  -2 42863.3 548.655   1
   1 -12   2 43281.6 331.129   5
   1  12   2 42215.8 509.162   2
   1 -12   2 44128.3 354.959   4
   1 -12   3 44162.3 397.166   4
   1  12   3 43481.5 596.005   2
  -1  12  -3 42727.5 593.909   1
  -1  12  -4 200.760 106.091   1
   1 -12   4 237.540 67.7307   4
   1  12   4 96.2390 123.648   2
   1 -12   5 37532.9 462.038  16
   1  12   5 38070.3 467.030  12
   1  12   6 131.306 82.5971  12
   1 -12   6 128.236 94.5971  16
   1 -12   7 1367.21 121.847  16
   1  12   7 1383.92 107.743  12
   1  12   7 1385.97 117.164  16
   1  12   7 1417.87 118.641   9
   1  12   8 465.352 74.9781  16
   1  12   8 481.748 74.0480   9
   1 -12   8 441.566 81.9059  16
   1  13  -8 1501.77 83.7921  18
  -1  13   7 436.275 89.0791  16
  -1 -13   7 469.461 98.4438  16
  -1 -13   6 406.101 104.475  16
  -1  13   6 357.671 97.9206  16
  -1  13   6 414.902 92.9020  12
  -1  13   5 42980.3 507.210  12
  -1 -13   5 44130.4 513.396  16
  -1 -13   5 43528.4 511.026  23
   1  13  -4 10521.4 352.902   1
  -1  13   4 10666.4 357.584   2
  -1  13   3 26225.1 467.953   3
   1  13  -3 24603.1 487.031   1
  -1  13   3 25213.8 478.850   2
  -1 -13   3 25102.7 329.133   5
   1  13  -2 4463.50 202.451   1
  -1 -13   2 4598.19 138.256   5
  -1  13   2 4592.64 196.685   3
  -1 -13   1 12128.3 203.977   5
  -1  13   1 12339.5 290.813   3
   1 -13  -1 13090.6 194.592   5
  -1  13   1 12868.7 201.947   8
   1  13  -1 12574.1 313.120   1
   1  13   0 19754.1 345.916   0
   1  13   0 19811.5 377.946   1
   1 -13   0 20500.7 221.257   5
  -1  13   0 19071.8 362.572   3
  -1  13   0 19669.6 229.724   8
  -1 -13   0 19203.3 252.417   5
   1 -13   0 20254.7 226.627   4
  -1 -13  -1 236387. 3570.35   5
   1  13   1 235994. 3438.28   8
   1  13   1 253639. 1045.03   2
   1 -13   1 248252. 3013.64   5
  -1  13  -1 253319. 1302.78   1
   1 -13   1 251901. 3199.12   4
   1 -13   2 80957.8 491.873   4
   1  13   2 79965.1 536.937   8
   1  13   2 80202.8 718.017   2
   1  13   3 131082. 1038.37   2
   1 -13   3 131103. 695.804   4
   1  13   4 8626.24 318.176   2
   1 -13   4 8558.13 208.674   4
  -1  13  -4 7963.80 303.113   1
   1 -13   5 2793.68 148.800   4
   1 -13   5 2701.18 150.408  16
   1  13   5 2632.53 148.698  12
   1  13   6 218.258 86.3859  12
   1 -13   6 441.668 103.276  16
   1  13   7 92.1369 72.0253  12
   1  13   7 103.144 85.4582   9
   1  13   7 42.5455 80.2937  16
   1 -13   7 66.1533 88.9034  16
   1  13   8 158.288 62.8966  16
   1  13   8 138.184 65.4373   9
   1 -13   8 149.633 68.5716  16
  -1 -14   7 1450.20 117.429  16
  -1  14   7 1322.65 107.139  16
  -1  14   6 4350.96 179.820  12
  -1 -14   6 4407.72 186.203  16
  -1  14   6 4843.76 184.432  16
  -1 -14   5 1290.33 126.936  16
  -1  14   5 835.443 107.140  12
  -1  14   4 5683.12 269.416   2
   1  14  -4 5586.38 268.592   1
  -1  14   3-13.7198 109.512   2
  -1 -14   3 43.5098 63.5888   5
  -1  14   3 158.192 86.6801   3
   1  14  -3 153.059 107.713   1
   1  14  -2 1286.63 137.440   1
  -1  14   2 1376.61 123.191   3
  -1 -14   1 100601. 597.750   5
  -1  14   1 102952. 851.265   3
   1  14  -1 101631. 890.672   1
  -1  14   0 917.414 70.5974   8
  -1  14   0 849.461 115.223   3
   1 -14   0 778.723 66.6365   5
   1 -14   0 710.805 66.0474   4
   1  14   0 802.629 113.603   1
  -1 -14   0 759.139 80.3525   5
   1  14   1 160615. 846.603   2
   1 -14   1 154955. 625.161   5
  -1 -14  -1 144519. 731.117   5
   1  14   1 147568. 2826.11   8
  -1  14  -1 148237. 1054.01   1
   1 -14   1 153979. 651.559   4
   1  14   2 16098.4 255.190   8
   1 -14   2 16574.9 235.310   4
   1 -14   2 16699.4 227.267   5
  -1  14  -2 15864.1 366.990   1
   1  14   2 16621.9 340.596   2
   1  14   3 171608. 1212.61   2
   1  14   3 169949. 872.231   8
  -1  14  -3 169162. 1250.00   1
   1  14   4 16274.9 430.733   2
   1 -14   4 16441.2 287.790   4
   1 -14   5 31971.2 437.105  16
   1  14   5 32190.0 441.359  12
   1 -14   5 32181.9 433.773   4
   1 -14   6 826.131 114.943  16
   1  14   6 775.568 102.689  12
   1  14   6 690.826 110.318   9
   1 -14   7 1625.34 124.657  16
   1  14   7 1362.99 111.976   9
   1  14   7 1437.18 105.889  12
   1  14   7 1451.17 114.581  16
   1  14   8-10.6770 62.1141   9
   1 -14   8 24.3533 60.4668  17
   1  14   8 16.4133 55.5877  16
   1 -14   8 9.11406 60.3653  16
  -1  15   7 3188.32 135.873  16
  -1 -15   7 2987.24 140.401  16
   1 -15  -7 7921.31 192.210  22
   1 -15  -7 6671.05 158.020  20
   1  15  -7 6497.88 174.858  18
  -1 -15   6 12374.1 283.807  16
  -1  15   6 12550.6 281.959  12
  -1 -15   5 13288.6 296.655  16
  -1  15   5 12760.1 287.811  12
   1  15  -4 118.658 116.236   1
  -1  15   4 227.601 114.880   2
   1  15  -3 24358.1 508.388   1
  -1 -15   3 25195.9 346.104   5
  -1  15   3 25213.6 501.326   2
   1  15  -2 23311.7 470.483   1
  -1 -15   2 22356.9 306.936   5
  -1 -15   1 12474.9 223.415   5
  -1  15   1 12232.9 315.050   3
  -1  15   1 12626.1 215.383   8
   1 -15  -1 12860.5 206.816   5
   1  15  -1 12297.5 332.261   1
  -1 -15   0 44972.2 412.030   5
  -1  15   0 46055.5 604.544   3
   1 -15   0 47215.7 365.656   5
   1  15   0 47785.5 621.557   1
   1 -15   0 48621.1 367.870   4
  -1  15   0 46286.5 380.242   8
   1 -15   1 205976. 3025.33   5
  -1 -15  -1 193597. 3474.35   5
  -1  15  -1 195233. 1243.90   1
   1 -15   1 207817. 773.724   4
   1  15   1 193890. 3352.92   8
   1  15   2 37779.7 397.082   8
   1  15   2 38901.0 523.555   2
   1 -15   2 39306.4 363.417   4
   1 -15   2 39375.8 355.046   5
  -1  15  -2 38934.4 586.928   1
   1  15   3 70095.8 791.470   2
   1  15   3 69507.8 570.402   8
   1 -15   3 71373.3 533.755   4
   1  15   4 21.1665 112.916   2
  -1  15  -4 10.1787 109.455   1
   1  15   4 52.3995 77.2949   8
   1 -15   4 8.57459 65.4345   4
   1 -15   5 10498.1 264.577  16
   1 -15   5 10350.6 253.791   4
   1  15   5 9915.90 248.528   8
   1 -15   6 1447.20 128.013  16
   1  15   6 1421.28 123.075  12
   1  15   6 1310.80 122.409   9
   1 -15   7 7910.61 207.437  16
   1  15   7 7961.47 196.285  12
   1  15   7 7876.25 202.142  16
   1  15   7 7552.37 194.901   9
  -1 -16   7 841.274 97.9504  16
  -1  16   7 789.374 89.6705  16
   1  16  -7 3633.50 134.679  18
   1 -16  -7 5038.22 155.904  22
   1 -16  -7 3685.77 124.758  20
  -1  16   6 3609.58 161.895  12
  -1 -16   6 3724.92 173.021  16
  -1  16   5 2836.84 154.582  12
  -1 -16   5 3078.34 166.373  16
   1  16  -4 3916.39 252.731   1
  -1  16   4 4253.65 250.141   2
  -1  16   3 14369.3 391.347   2
  -1 -16   3 14371.3 271.048   5
   1  16  -3 13894.9 400.434   1
  -1  16   3 15006.3 381.742   3
  -1 -16   2 10573.1 220.865   5
  -1  16   2 10931.3 223.923   8
  -1  16   1 197.050 87.0769   3
   1  16  -1 163.253 108.038   1
  -1 -16   1 142.460 59.0374   5
   1 -16  -1 176.425 61.4013   5
   1 -16   0 4051.58 121.269   5
  -1  16   0 3958.18 126.510   8
  -1 -16   0 3963.78 138.232   5
  -1  16   0 3754.15 190.464   3
   1  16   0 3884.78 172.557   3
   1 -16   0 4016.41 118.795   4
   1 -16   1 62175.3 434.540   5
   1  16   1 57332.7 477.019   8
  -1  16  -1 60835.3 725.670   1
   1 -16   1 64211.4 446.578   4
  -1 -16  -1 58439.9 499.143   5
  -1  16  -2 2532.87 182.425   1
   1  16   2 2968.73 168.969   2
   1 -16   2 2989.91 113.138   4
   1  16   2 2749.43 121.265   8
  -1 -16  -2 2589.52 132.541   5
   1 -16   2 3027.95 114.553   5
  -1  16  -3 25091.5 518.807   1
   1  16   3 25201.4 357.598   8
   1 -16   3 26663.7 334.543   4
   1  16   3 26221.4 497.495   2
   1  16   4 1866.54 180.969   2
  -1  16  -4 1520.12 171.112   1
   1  16   4 1638.73 119.901   8
   1 -16   4 1761.86 118.083   4
   1 -16   5 1915.38 140.931  16
   1  16   5 1846.58 127.598   8
   1  16   5 2197.48 138.288  12
   1 -16   6 360.296 103.357  16
   1  16   6 539.669 93.7754  12
   1  16   6 476.520 102.358   9
   1  16   7 91.4374 77.6787  16
   1 -16   7 113.159 86.5520  16
   1  16   7 63.7748 69.1737  12
   1  16   7 85.1423 82.3461   9
  -1  17   7 677.800 84.5202   9
  -1 -17   7 609.468 90.1222  16
  -1  17   7 614.280 81.0303  16
  -1  17   6 1026.32 109.737  12
  -1 -17   6 986.671 119.425  16
  -1 -17   5 315.194 105.107  16
  -1  17   5 252.534 85.0595  12
  -1 -17   4 23017.4 378.295  16
  -1  17   4 22782.3 358.019  12
  -1 -17   3 1849.29 113.894   5
  -1  17   3 1873.59 167.479   2
  -1  17   2 245.095 72.1954   8
  -1 -17   2 223.170 72.2512   5
   1 -17  -2 233.614 69.7173   5
  -1  17   2 287.537 93.4938   3
   1  17  -2 166.636 115.793   1
  -1  17   1 151.048 61.2576   8
   1  17  -1 159.869 102.585   1
  -1 -17   1 24.1569 59.0462   5
  -1  17   1 111.024 76.8006   3
  -1  17   0 5663.24 240.757   3
  -1 -17   0 5615.67 165.404   5
   1 -17   0 6287.44 151.726   5
   1  17   0 6325.00 220.236   3
   1  17   1 5256.92 161.410   8
   1 -17   1 5577.27 143.393   5
  -1  17  -1 5880.23 249.084   1
  -1  17  -1 5337.78 242.342   3
  -1 -17  -1 5622.66 169.679   5
   1  17   2 664.969 87.4943   8
  -1  17  -2 782.604 134.278   1
   1 -17   2 808.172 74.7536   4
   1 -17   3 513.825 78.8636   4
  -1  17  -3 680.218 143.692   1
   1  17   3 514.840 84.9567   8
   1  17   3 336.024 125.434   2
   1  17   4 993.376 102.768   8
   1 -17   4 1124.81 117.860  16
   1  17   4 1076.21 108.987  12
   1 -17   4 1093.70 102.268   4
   1  17   5 150.155 85.4667  12
   1  17   5 215.973 89.5747   8
   1 -17   5 149.964 99.8266  16
   1 -17   6 141.974 94.3733  16
   1  17   6 72.0914 89.7616   9
   1  17   6 210.796 79.5045  12
   1  17   7 1443.84 104.617  16
   1 -17   7 1416.54 109.278  16
   1  17   7 1286.79 93.1692  12
   1  17   7 1352.01 103.798   9
  -1 -18   7 261.803 78.5168  16
  -1 -18   7 190.598 71.9414  17
  -1  18   7 348.139 74.8956  16
  -1  18   7 172.086 72.1812   9
  -1  18   6 5290.25 185.173  12
  -1 -18   6 5380.37 191.529  16
  -1  18   5 31.8048 88.3523   8
  -1  18   5 104.639 75.6374  12
  -1 -18   5 84.7910 99.7104  16
  -1  18   4 208.147 85.0130   8
  -1 -18   4 165.797 101.139  16
  -1  18   4 253.519 85.4850  12
  -1  18   3 426.748 126.266   2
  -1  18   3 394.156 75.5820   8
  -1 -18   3 594.481 88.3142   5
   1  18  -3 579.678 144.880   1
  -1  18   2 599.749 118.902   3
  -1  18   2 760.413 89.6578   8
   1 -18  -2 676.067 85.5334   5
  -1 -18   2 750.974 87.9619   5
   1  18  -2 706.403 140.943   1
  -1  18   1 38944.8 597.118   3
  -1 -18   1 37145.6 417.123   5
   1 -18  -1 39508.9 392.976   5
   1  18  -1 37289.0 624.337   1
  -1  18   1 38089.1 406.295   8
  -1 -18   0 8547.65 206.849   5
   1 -18   0 9261.57 188.605   5
  -1  18   0 9098.37 303.506   3
  -1  18  -1 5245.44 247.932   1
   1 -18   1 5655.60 149.089   5
   1  18   1 5317.98 168.453   8
  -1 -18  -1 5058.45 170.591   5
  -1  18  -1 5034.75 243.652   3
  -1  18  -2 32.4749 96.3034   1
  -1 -18  -2 54.2476 67.1165   5
   1 -18   2 16.7934 56.7841   5
   1  18   2 20.1661 61.2032   8
  -1  18  -3 11760.5 383.215   1
   1  18   3 11125.5 253.047   8
   1  18   4 3520.24 157.280   8
   1 -18   4 3634.76 172.169  16
   1  18   4 3504.38 162.181  12
   1  18   5 1611.86 125.440  12
   1  18   5 1641.05 120.743   8
   1 -18   5 1790.99 139.692  16
   1 -18   6 449.994 102.384  16
   1  18   6 355.537 85.1216  12
   1  18   6 377.316 97.2230   9
   1 -18   7 2601.73 122.093  16
   1  18   7 2601.32 118.735  16
   1  18   7 2582.76 112.948  12
   1 -18   7 2559.95 119.431  17
   1  18   7 2479.30 116.539   9
  -1 -19   7 12860.0 208.362  16
  -1 -19   7 13399.9 191.220  17
  -1  19   7 12809.8 201.208   9
  -1  19   7 13211.5 193.653  16
   1 -19  -7 13122.4 202.788  22
  -1  19   6 50816.3 508.065  12
   1 -19  -6 49662.8 461.509  22
  -1 -19   6 50012.9 511.496  16
  -1 -19   5 11000.3 275.463  16
  -1  19   5 11100.0 263.217  12
  -1 -19   4 4828.68 198.720  16
  -1  19   4 4311.03 175.713   8
  -1  19   4 4939.68 182.213  12
   1  19  -3 33375.7 654.764   1
  -1 -19   3 32673.9 431.676   5
  -1  19   3 32353.6 425.535   8
  -1  19   2 258.034 78.0549   8
   1 -19  -2 596.787 86.0480   5
   1  19  -2 285.971 109.466   1
  -1  19   2 316.706 106.072   2
  -1 -19   2 293.448 82.0286   5
  -1  19   1 110.091 63.4389   8
   1  19  -1 69.5470 113.770   1
  -1  19   1 152.468 85.8245   3
  -1 -19   1 80.5371 62.2426   5
  -1 -19   0 1734.73 111.790   5
   1 -19   0 2043.35 104.722   5
  -1  19   0 1791.36 165.957   3
   1  19   1 1826.53 117.011   8
  -1  19  -1 1733.28 162.413   1
   1 -19   1 1902.91 101.154   5
  -1  19  -1 1660.55 165.744   3
  -1 -19  -1 1836.88 116.014   5
   1  19   2 10657.6 240.827   8
  -1 -19  -2 10355.4 246.445   5
  -1  19  -2 10576.4 354.937   1
   1 -19   2 11221.7 217.385   5
  -1  19  -3 277.162 136.656   1
  -1 -19  -3 194.565 86.4577   5
   1  19   3 220.467 74.0614   8
   1 -19   4 5642.76 188.897  24
   1  19   4 5099.87 188.293   8
   1 -19   4 5334.17 202.397  16
   1  19   4 5634.92 191.204  14
   1  19   4 5165.22 190.197  12
   1 -19   5 1670.08 132.751  16
   1  19   5 1477.31 119.632  12
   1  19   5 1650.44 121.070   8
   1  19   6 338.170 88.9142   9
   1 -19   6 292.353 93.9913  16
   1  19   6 261.073 78.6312  12
   1 -19   7 12976.7 216.543  17
   1  19   7 12910.9 214.269  16
   1 -19   7 12973.9 215.277  16
   1  19   7 12577.8 208.513  12
   1  19   7 12684.3 205.944   9
   1 -20  -7 10316.2 169.678  22
  -1  20   7 11012.1 162.938  16
  -1  20   7 10571.0 172.701   9
  -1 -20   7 10528.3 174.115  16
  -1  20   6 880.542 97.4608  12
  -1  20   6 806.118 97.0947  16
  -1 -20   6 942.260 98.3868  17
  -1 -20   6 1148.78 113.389  16
  -1  20   5 83413.8 684.654  12
  -1 -20   5 82811.5 701.984  16
  -1 -20   4 67826.2 648.725  16
  -1  20   4 67980.9 612.111  12
  -1 -20   4 69802.4 608.729  24
   1 -20  -3 121.063 83.8474   5
  -1 -20   3 262.703 76.7165   5
  -1 -20   3 228.254 99.9628  16
  -1  20   3 135.848 75.3164   8
  -1  20   3 30.9259 143.412   2
  -1 -20   2 961.777 99.2137   5
  -1  20   2 1000.61 98.2325   8
   1  20  -2 640.542 140.699   1
  -1  20   2 978.550 130.186   3
   1 -20  -2 1083.33 100.406   5
  -1  20   1 21519.6 322.697   8
  -1  20   1 21948.3 478.704   3
  -1 -20   1 21439.0 335.718   5
   1 -20  -1 22740.2 316.466   5
   1  20  -1 21160.5 496.881   1
  -1  20   0 14273.5 396.207   3
  -1 -20   0 13015.4 262.777   5
  -1 -20  -1 25746.2 372.796   5
  -1  20  -1 25518.1 538.624   3
   1  20   2 444.103 83.2560   8
  -1  20  -2 410.799 132.293   1
  -1 -20  -2 462.168 95.1190   5
   1 -20   3 5581.72 197.204  16
   1 -20   3 5036.93 191.154  17
   1 -20   3 5058.60 178.909  24
   1  20   3 4938.68 181.592   8
   1  20   3 5397.87 191.484  14
   1  20   3 5039.69 183.078  12
  -1  20  -3 5237.11 286.207   1
  -1 -20  -3 4874.37 189.836   5
   1  20   4 5738.55 191.639  14
   1 -20   4 5096.07 198.413  16
   1 -20   4 5682.43 189.548  24
   1  20   4 5199.98 192.541  12
  -1 -20  -4 4603.08 191.637   5
   1 -20   4 4821.61 190.304  17
   1  20   4 5430.72 193.034   8
   1 -20   5 1421.24 127.260  16
   1  20   5 1434.54 115.541  12
   1 -20   6-4.25509 79.7354  17
   1  20   6 30.7330 70.8904  12
   1  20   6 65.0516 81.2183   9
   1 -20   6 64.6237 84.8967  16
   1 -20   7 6753.33 150.555  16
   1  20   7 6374.76 147.379  16
   1  20   7 6813.58 147.206  12
   1 -20   7 6570.96 150.144  17
   1  20   7 6416.77 143.454   9
  -1  21   7 31828.7 261.814   9
  -1  21   6 31001.6 368.059  12
  -1  21   6 31703.0 357.246  16
  -1 -21   6 30857.7 369.335  16
  -1 -21   5 1144.89 127.240  16
  -1 -21   5 1100.12 116.939  24
  -1  21   5 1154.36 110.929  12
  -1  21   4 46498.4 521.124   8
  -1 -21   4 46684.3 539.805  16
  -1  21   4 49176.0 519.682  12
  -1 -21   4 48574.3 515.253  24
  -1 -21   3 94737.5 709.675  24
  -1  21   3 102153. 712.720  14
  -1 -21   3 95534.7 744.725   5
  -1  21   3 104178. 710.398  12
  -1  21   3 96450.6 739.774   8
   1 -21  -3 89211.4 667.545  22
  -1 -21   3 98800.6 763.495  16
   1  21  -2 2196.56 215.181   1
  -1  21   2 2410.84 132.420   8
  -1 -21   2 2181.32 130.075   5
  -1  21   1 22186.8 340.776   8
  -1  21   1 22364.5 495.318   3
  -1 -21   1 21706.6 344.470   5
  -1 -21   0 9059.94 227.681   5
  -1  21   0 9894.30 338.591   3
  -1  21  -1 4966.72 258.393   3
  -1 -21  -1 5262.20 187.999   5
   1  21   2 83.2875 70.2889   8
  -1  21  -2-10.7617 105.524   1
  -1  21  -2-20.2578 116.732   3
  -1 -21  -2 75.9430 87.1856   5
   1  21   3 5633.42 194.039  14
  -1 -21  -3 5523.18 201.788   5
   1 -21   3 5953.35 194.169  24
   1 -21   3 5869.59 204.249  16
   1  21   3 5727.46 193.515   8
   1  21   3 6086.44 198.823  12
   1 -21   3 6233.12 209.153  17
   1  21   4 15818.7 308.458   8
   1 -21   4 15333.8 311.082  17
   1 -21   4 16754.0 304.782  24
   1  21   4 16980.4 310.277  14
   1  21   4 15649.6 311.825  12
   1 -21   4 15991.7 320.033  16
  -1 -21  -4 15525.8 321.063   5
   1 -21   5 4408.46 175.389  17
   1  21   5 4927.20 171.693   9
   1 -21   5 4407.26 179.692  16
   1  21   5 4379.54 171.961  12
   1 -21   6-0.59845 74.9179  17
   1 -21   6-3.62491 78.1009  16
   1  21   6 41.3831 76.1572   9
   1  21   6 12.9471 66.2369  12
   1 -21   7 9581.95 160.255  17
   1  21   7 9559.56 161.132  16
   1  21   7 9556.58 157.959  12
   1 -21   7 9401.91 156.644  16
   1  21   7 9642.29 153.537   9
  -1  22   6 19681.3 280.403  12
   1 -22  -6 19747.5 278.845  22
  -1 -22   6 19405.1 283.903  16
  -1  22   5 76825.9 620.444  12
  -1 -22   5 79228.8 596.866  24
  -1  22   4 22947.0 366.787   8
  -1  22   4 24641.5 366.034  12
  -1 -22   4 23856.8 387.787  16
  -1 -22   4 23638.4 363.757  24
   1 -22  -4 25432.6 373.906  22
  -1 -22   3 31043.8 432.530   5
  -1  22   3 31456.5 413.540  14
   1 -22  -3 31419.0 414.389  22
  -1 -22   3 30677.6 434.684  16
  -1 -22   3 30181.2 410.619  24
  -1  22   3 30835.0 423.967   8
  -1  22   2 953.298 98.6345   8
   1  22  -2 1143.88 117.238  19
  -1 -22   2 856.059 111.392  16
  -1  22   2 1026.60 118.494  14
  -1 -22   2 1090.16 115.651  24
  -1 -22   2 936.215 104.304   5
  -1  22   1 49.7529 100.856   3
  -1 -22   1 0.37702 72.5944   5
  -1 -22   0 1337.99 112.256   5
  -1  22   0 1721.83 168.524   3
  -1 -22  -1 5654.86 192.276   5
  -1  22  -1 5715.84 276.512   3
   1 -22   2 1698.78 138.128  17
   1 -22   2 1644.88 127.117  24
  -1 -22  -2 1610.54 121.335   5
   1  22   2 1695.68 127.825  19
   1 -22   2 1569.31 127.295  16
   1  22   2 1745.84 124.030   8
   1  22   2 1571.18 130.896  14
   1 -22   3 117.254 93.9827  16
   1 -22   3 2.82773 83.3579  17
   1  22   3 35.3912 76.9233  12
   1  22   3 1.26919 87.5097  14
  -1 -22  -3-21.6082 88.9957   5
   1 -22   3 31.2233 92.6561  24
   1  22   3 44.2616 70.7445   8
   1 -22   4 4765.67 186.174  17
  -1 -22  -4 4624.20 186.752   5
   1  22   4 4728.26 182.539  14
   1 -22   4 4820.54 180.392  24
   1 -22   4 4534.55 184.262  16
   1  22   4 4640.66 179.487  12
   1  22   4 4900.27 180.422   8
   1  22   5 3014.50 146.753  12
   1 -22   5 3222.71 152.097  17
   1 -22   5 3167.04 153.621  16
   1  22   5 3378.39 143.087   9
   1  22   6 56.1149 66.3401  12
   1 -22   6 20.7642 76.1618  16
   1  22   6 50.7883 71.0303   9
   1 -22   6 43.8442 76.9242  17
  -1 -23   6 5817.70 155.910  16
  -1  23   6 6084.93 149.826  16
   1  23  -6 5813.58 155.555  19
  -1 -23   5 17733.6 307.088  16
   1 -23  -5 18889.1 303.610  22
  -1 -23   5 18532.2 289.312  24
  -1  23   5 18125.9 296.476  12
  -1 -23   4 38686.6 479.747  16
  -1 -23   4 38412.2 451.760  24
  -1 -23   3 5925.08 206.590  16
  -1 -23   3 5968.38 200.355   5
   1  23  -3 5946.84 204.854  19
  -1 -23   3 5677.64 194.093  24
  -1  23   3 5864.35 199.715  14
  -1  23   3 5952.03 197.624   8
  -1 -23   2 11012.7 251.319  24
  -1 -23   2 11204.6 267.629  16
   1  23  -2 11104.9 265.812  19
  -1  23   2 11173.9 258.693  14
  -1  23   2 11489.7 260.632   8
   1 -23  -2 11915.3 271.412  22
  -1 -23   2 11658.8 273.856   5
   1  23  -1 14535.7 295.774  19
  -1 -23   1 14236.4 292.274   5
  -1 -23   1 14277.1 278.463  24
  -1  23   0 4307.01 245.117   3
  -1 -23   0 4525.68 176.996   5
  -1 -23  -1 149.672 83.6835   5
   1  23   1 159.388 91.2324  19
   1  23   1 111.122 100.313  14
   1 -23   1 168.010 97.3534  24
  -1  23  -1 179.680 122.450   3
   1  23   2 17977.1 325.904  19
   1  23   2 19137.6 321.140  12
   1  23   2 18472.1 326.854  14
   1 -23   2 18693.0 331.839  16
   1 -23   2 18015.1 321.336  24
  -1 -23  -2 17951.5 337.511   5
   1 -23   2 19009.2 339.853  17
   1  23   3 1765.07 132.375  14
   1 -23   3 1694.52 133.555  17
   1 -23   3 1780.16 133.281  16
   1  23   3 1951.61 127.496  12
   1 -23   3 1666.32 128.652  24
   1  23   3 1666.13 125.081   8
  -1 -23  -3 2051.43 144.283   5
   1  23   4 336.884 88.2917  12
   1 -23   4 459.191 100.322  16
   1 -23   4 435.324 96.2661  24
   1 -23   4 425.034 99.1319  17
   1  23   4 370.726 101.587  14
   1 -23   5 2207.85 132.181  16
   1 -23   5 2179.16 132.123  17
   1  23   5 2435.26 125.602   9
   1  23   5 2282.71 126.106  12
   1  23   6 3655.29 129.181  12
   1 -23   6 3675.69 132.403  17
   1 -23   6 3640.91 131.754  16
  -1  24   6 5468.18 131.557  16
   1 -24  -6 5312.83 139.456  22
  -1  24   6 5322.78 131.070   9
   1  24  -6 5126.89 136.986  19
  -1 -24   5 16364.4 284.590  16
   1  24  -5 15993.4 278.084  19
   1 -24  -5 16892.0 278.083  22
  -1  24   5 16850.1 272.158  12
   1  24  -4 21.5958 88.1130  19
  -1 -24   4-20.3168 93.0736  16
  -1  24   4 118.101 74.3730  12
  -1 -24   4 76.6655 91.2814  24
  -1 -24   3 1098.76 120.753  16
  -1 -24   3 1183.66 121.666  24
  -1 -24   3 1341.25 118.910   5
  -1  24   3 1179.85 110.925   8
  -1  24   3 1225.76 121.798  14
   1  24  -3 1128.88 113.233  19
  -1 -24   2 9460.80 246.740   5
  -1  24   2 8775.33 234.806  14
  -1 -24   2 8642.36 231.052  24
   1  24  -2 9026.79 243.524  19
   1 -24  -2 9829.44 247.900  22
  -1  24   2 8799.13 230.632   8
  -1  24   1 3691.18 167.552  14
  -1 -24   1 3433.36 158.320  24
   1  24  -1 3204.11 160.764  19
   1 -24  -1 3685.79 161.923  17
  -1 -24   1 3417.15 161.895   5
  -1 -24   0 11405.9 268.783   5
   1  24   0 11513.5 254.132  14
   1 -24   0 11826.4 261.415  24
  -1 -24   0 11626.7 248.834  24
   1  24   0 11999.1 271.559  19
  -1 -24  -1 22733.7 371.994   5
   1  24   1 23595.5 371.485  19
   1 -24   1 22432.3 359.651  24
   1  24   1 23581.3 360.759  14
   1 -24   2 96.8675 87.3920  17
   1  24   2 102.203 89.4866  14
   1  24   2 108.597 75.8747  12
   1 -24   2 115.910 93.4141  24
  -1 -24  -2 186.634 94.5037   5
   1  24   2 120.383 82.1384  19
   1 -24   3 3745.34 168.561  17
   1 -24   3 3634.39 167.890  16
   1  24   3 3505.01 156.734  12
   1 -24   3 3531.94 161.094  24
   1  24   3 3461.72 162.603  14
   1  24   3 3950.63 166.550   8
  -1 -24  -3 3465.89 170.235   5
   1  24   4 236.748 82.5645  12
   1 -24   4 227.669 89.5421  16
   1 -24   4 183.283 86.1513  24
   1 -24   4 158.169 92.3054  17
   1  24   4 245.694 94.0910  14
   1 -24   5 3437.50 145.813  17
   1 -24   5 3172.41 140.562  16
   1  24   5 3313.12 141.082  12
   1  24   5 3654.65 135.077   9
   1  24   6 2197.50 102.038  12
   1  24   6 2332.73 96.3788   9
   1  24   6 2190.10 104.684  16
   1 -24   6 2258.03 105.001  17
   1 -24   6 2309.38 105.230  16
   1 -25  -6 40.6352 62.5643  22
  -1  25   6 80.2690 57.1409   9
   1  25  -6 54.9434 53.5355  19
  -1 -25   5 1614.57 112.173  16
  -1  25   5 1759.61 101.379  12
  -1 -25   5 1801.10 105.870  24
   1  25  -5 1599.12 106.346  19
  -1 -25   4 25745.1 375.163  16
   1  25  -4 26530.2 376.956  19
   1 -25  -4 26755.4 364.169  22
  -1 -25   4 26533.0 363.985  24
  -1 -25   3 996.688 107.305  24
  -1  25   3 886.577 116.867  14
  -1 -25   3 931.527 104.447   5
  -1  25   3 811.517 104.099   8
   1  25  -3 837.679 105.270  19
  -1 -25   2 2935.92 148.448   5
  -1  25   2 2570.46 149.383  14
  -1 -25   2 2626.21 142.754  24
   1 -25  -2 3072.99 165.937  22
   1  25  -2 2674.96 152.048  19
   1 -25  -1-12.9740 84.8658  17
  -1 -25   1 45.3784 82.0053  24
  -1 -25   1 181.207 81.1695   5
  -1  25   1 194.663 97.3874  14
   1  25   0 1991.29 132.917  19
   1  25   0 2363.31 140.641  14
  -1 -25   0 2263.10 136.385   5
  -1 -25   0 2350.56 134.691  24
   1 -25   0 2370.39 140.105  24
   1 -25   0 2273.28 140.347  17
   1  25   1 9388.43 242.348  19
   1  25   1 8986.81 236.486  14
   1 -25   1 9533.99 244.146  17
   1 -25   1 8603.69 232.206  24
  -1 -25  -1 8912.20 241.614   5
  -1 -25  -2 2723.21 150.728   5
   1  25   2 2843.08 138.001  12
   1 -25   2 2565.15 147.699  24
   1  25   2 2681.11 149.549  14
   1  25   2 2914.60 150.545  19
   1 -25   2 2805.88 150.164  17
  -1 -25  -3 271.554 100.439   5
   1  25   3 75.5400 95.2408  14
   1 -25   3 67.1765 84.1502  24
   1  25   3 82.4017 76.0891  12
   1 -25   3 45.3725 86.4203  17
   1 -25   4 2492.10 139.398  17
   1  25   4 2580.16 138.727  14
   1 -25   4 2782.09 143.293  16
   1 -25   4 2763.68 139.727  24
   1  25   4 2686.14 134.379  12
   1  25   5 398.131 76.3348  12
   1 -25   5 208.122 78.6428  16
   1 -25   5 333.065 83.5272  17
   1  25   6 129.249 53.4582  12
   1 -25   6 77.4248 60.9994  17
   1  25   6 99.2060 59.9063  16
  -1  26   5 570.743 69.5971  12
   1  26  -5 494.075 78.4900  19
  -1 -26   5 359.045 74.4395  24
   1 -26  -5 642.998 89.0912  22
  -1 -26   4 5190.71 173.993  24
   1  26  -4 4881.02 168.472  19
  -1  26   3 19972.3 324.206  14
   1  26  -3 19338.8 330.825  19
   1 -26  -3 19690.7 322.419  22
   1 -26  -2 1456.47 131.227  22
   1  26  -2 1403.91 121.413  19
  -1  26   2 1326.62 124.808  14
  -1 -26   2 1322.32 120.697  24
  -1 -26   2 1367.64 115.187   5
  -1 -26   1 9303.09 240.221   5
   1  26  -1 9128.06 239.450  19
  -1  26   1 8346.50 227.761  14
  -1 -26   1 8607.83 230.539  24
  -1 -26   0 351.709 91.0684   5
   1 -26   0 438.375 99.1088  17
   1 -26   0 410.752 98.2897  24
  -1  26   0 491.100 105.045  14
   1  26   0 305.574 98.8342  14
   1  26   0 353.169 89.9898  19
  -1 -26   0 256.442 94.1151  24
  -1  26  -1 804.693 117.670  14
   1 -26   1 509.942 100.694  17
  -1 -26  -1 507.773 95.4608   5
   1  26   1 439.536 92.8577  19
   1 -26   1 421.751 95.1595  24
   1  26   1 412.618 101.213  14
   1 -26   2 287.228 96.0245  24
   1 -26   2 329.401 95.7821  17
   1  26   2 225.527 88.3072  19
   1  26   2 294.586 100.276  14
  -1 -26  -2 229.289 82.2188   5
   1  26   2 256.963 76.7906  12
   1 -26   3 463.928 95.8842  24
   1  26   3 381.578 98.3181  14
   1 -26   3 497.098 99.2911  17
   1  26   3 509.389 83.9951  12
   1  26   4 1820.52 113.408  12
   1  26   4 1874.18 123.613  14
   1 -26   4 1825.98 119.645  24
   1 -26   4 1889.34 122.792  17
   1  26   5 1058.87 86.5278  12
   1 -26   5 1177.79 94.5926  17
   1  26   6 236.050 50.4928  12
   1  26   6 237.142 55.2597  16
   1 -27  -5 154.435 72.0149  22
  -1  27   5 262.094 55.2958  12
  -1 -27   5 276.530 69.1967  24
   1  27  -5 233.576 66.5320  19
   1 -27  -4 9671.88 210.316  22
  -1 -27   4 9672.67 215.632  24
   1  27  -4 9382.11 212.001  19
  -1  27   3 3746.13 159.462  14
  -1 -27   3 3510.77 157.762  24
   1  27  -3 3653.26 155.149  19
   1 -27  -3 3656.26 159.359  22
  -1  27   2 8381.90 227.943  14
  -1 -27   2 8075.38 222.344  24
   1  27  -2 8385.31 224.948  19
   1  27  -1 9197.75 238.352  19
  -1 -27   1 9642.60 243.107   5
  -1  27   1 9030.20 237.345  14
  -1 -27   1 8932.60 230.152  24
   1 -27   0 5827.37 195.849  24
  -1 -27   0 6010.94 192.370  24
  -1 -27   0 5927.36 199.358   5
   1  27   0 5354.40 189.583  14
  -1  27   0 5702.36 195.285  14
   1  27   0 5872.66 197.757  19
   1 -27   0 6405.38 198.778  17
  -1 -27  -1 1746.01 128.845   5
   1 -27   1 1798.99 129.861  24
  -1  27  -1 1855.86 132.225  14
   1  27   1 1905.61 133.916  14
   1  27   1 1797.87 128.247  19
   1 -27   1 2067.59 132.933  17
   1  27   2 7928.42 204.079  12
   1 -27   2 7375.83 217.253  24
   1  27   2 7100.27 214.174  14
   1 -27   2 8142.01 219.870  17
   1  27   2 7402.16 210.947  19
   1  27   3 1110.01 118.026  14
   1 -27   3 968.506 109.452  24
   1  27   3 1112.81 98.2208  12
   1 -27   3 1179.70 111.783  17
   1  27   4 1416.12 98.9763  12
   1 -27   4 1411.03 105.249  17
   1 -27   4 1355.47 110.699  24
   1  27   4 1540.45 111.533  14
   1  27   5 26.3385 57.1444  12
   1 -27   5 74.0739 66.3053  17
  -1 -27  -5 14.0586 50.6944  22
  -1 -28   5 790.097 69.5140  24
   1  28  -5 685.401 67.1137  19
   1  28  -4 179.867 71.1423  19
  -1 -28   4 198.068 80.9915  24
   1 -28  -4 181.304 77.9276  22
   1  28  -3 3391.33 146.637  19
   1 -28  -3 3218.92 144.930  22
  -1 -28   3 3312.78 147.134  24
  -1  28   3 3651.09 150.952  14
   1  28  -2 15547.5 289.394  19
  -1  28   2 15077.7 285.648  14
  -1 -28   2 14970.5 284.179  24
  -1 -28   1 8859.22 226.988  24
  -1  28   1 8600.90 228.294  14
   1  28  -1 9206.24 232.147  19
   1  28   0 4258.77 169.093  19
   1 -28   0 4197.43 171.549  24
   1  28   0 4270.04 169.859  14
  -1  28   0 4137.94 169.741  14
  -1 -28   0 4769.33 172.171  24
  -1 -28   0 4425.24 169.964   5
   1  28   1 176.472 93.8181  14
  -1  28  -1 178.414 93.1720  14
   1 -28   1 250.551 98.9498  24
   1  28   1 236.888 83.4297  19
   1 -28   1 190.449 86.6635  17
   1 -28   2 873.685 113.433  24
   1  28   2 904.578 114.057  14
   1 -28   2 875.945 107.010  17
   1 -28   3 1089.81 103.430  17
   1  28   3 1014.41 106.502  14
   1 -28   3 970.437 109.083  24
   1  28   3 1034.39 93.3409  12
   1 -28   4 4500.24 145.198  17
   1  28   4 4265.70 138.855  12
   1 -28   4 4395.64 145.900  24
   1  28   4 4540.91 147.833  14
   1 -28   5 6550.12 136.369  17
   1  28   5 5944.87 133.655  12
   1  29  -4 2004.96 100.924  19
  -1 -29   4 1981.37 107.446  24
   1 -29  -4 1783.95 95.9628  22
  -1  29   3 3153.57 135.555  14
   1  29  -3 2968.67 129.351  19
  -1 -29   3 2980.64 135.935  24
   1 -29  -3 3243.39 126.819  22
  -1 -29   2 551.640 94.1621  24
   1  29  -2 683.945 93.8221  19
  -1  29   2 567.250 98.4833  14
  -1  29   1 362.574 96.9365  14
  -1 -29   1 281.979 90.5961  24
   1  29  -1 405.955 87.2097  19
  -1 -29   0 3255.52 147.067  24
   1 -29   0 3143.04 152.305  24
  -1  29   0 3074.26 150.596  14
   1  29   0 2914.46 145.219  14
   1  29   0 3100.03 146.627  19
   1  29   1 7039.08 201.109  19
   1  29   1 6909.00 201.587  14
  -1  29  -1 7065.87 200.276  14
   1 -29   1 6814.82 203.809  24
   1  29   2 100743. 698.286  14
   1 -29   2 98923.3 702.738  24
   1  29   3 5226.99 169.410  14
   1  29   3 5608.54 154.463  12
   1 -29   3 5808.11 166.536  17
   1 -29   3 5329.52 171.980  24
   1 -29   4 23.5921 65.0181  17
   1 -29   4 139.916 72.1561  24
   1  29   4 61.6646 58.6195  12
   1  29   4 80.6157 74.2535  14
  -1 -30   4 27.6397 63.0783  24
   1 -30  -4 14.0782 50.9341  22
   1  30  -4 37.0314 56.7883  19
   1  30  -3 28.3580 64.9943  19
  -1  30   3 25.0812 74.3715  14
  -1 -30   3 7.13396 76.3254  24
  -1  30   2 342.650 90.7950  14
  -1 -30   2 463.435 84.8558  24
   1  30  -2 286.858 77.6714  19
  -1  30   1 4331.24 162.803  14
   1  30  -1 4259.48 155.985  19
  -1 -30   1 4240.85 157.955  24
   1  30   0 78.1529 88.5303  14
  -1  30   0 102.516 89.9631  14
   1 -30   0 120.021 85.1592  24
   1  30   0 122.576 79.8729  19
   1  30   1 292.489 90.2347  14
  -1  30  -1 298.563 90.7871  14
   1  30   1 301.843 83.3578  19
   1 -30   1 245.619 88.6911  24
   1  30   2 6230.77 187.302  14
   1 -30   2 6421.92 190.502  24
   1 -30   2 6510.19 174.928  17
   1 -30   3 230.757 71.4234  17
   1  30   3 352.293 87.2830  14
   1 -30   3 251.829 81.6560  24
   1 -30   4 17268.2 209.891  17
   1  30   4 16450.5 206.272  12
   1  30   4 17157.6 220.408  14
   1 -30   4 16265.6 220.916  24
  -1 -31   4 1000.25 73.3355  24
   1  31  -4 1004.76 63.0653  19
  -1  31   3 688.853 81.1288  14
  -1 -31   3 575.596 80.4774  24
   1  31  -3 684.567 73.3587  19
  -1 -31   2 2362.07 122.603  24
  -1  31   2 2408.06 124.195  14
   1  31  -2 2544.69 115.855  19
  -1 -31   1 31.6671 77.0468  24
  -1  31   1 52.0350 84.3964  14
   1  31  -1 15.4659 69.2095  19
   1 -31   0 9330.71 209.116  24
   1  31   0 8842.16 205.565  14
  -1  31   0 8703.68 209.698  14
   1  31   0 9022.59 206.470  19
   1  31   1 3134.81 142.286  14
  -1  31  -1 3176.81 136.431  14
   1  31   1 3157.12 132.368  19
   1 -31   1 3005.66 136.396  24
   1 -31   2 1598.31 110.053  24
   1  31   2 1596.42 110.754  14
   1 -31   3 78.7816 71.0952  24
   1  31   3 94.5360 73.6424  14
   1  31   4 1517.41 78.6979  14
  -1 -32   3 111.019 69.7728  24
  -1  32   3 132.410 63.8295  14
   1  32  -3 129.420 55.8401  19
  -1  32   2 4406.07 142.453  14
  -1 -32   2 4128.46 136.269  24
   1  32  -2 4598.05 134.028  19
   1  32  -1 1196.50 92.0817  19
  -1  32   1 1036.77 99.7397  14
  -1 -32   1 1029.74 92.5377  24
   1  32   0 3263.87 129.460  14
   1  32   0 3128.68 125.216  19
  -1  32   0 2988.73 131.097  14
   1  32   1 2789.17 127.377  14
  -1  32  -1 3089.33 124.737  14
   1 -32   1 2717.33 125.106  24
   1 -32   2 5479.64 157.795  24
   1  32   2 5779.08 160.903  14
   1 -32   3 8203.55 168.127  24
   1  32   3 8355.48 166.176  14
  -1 -33   3 44.0405 55.9077  24
  -1  33   2 632.429 78.0940  14
  -1 -33   2 640.813 76.4501  24
   1  33  -2 540.309 64.5890  19
  -1  33   1 628.252 81.5685  14
   1  33  -1 671.052 72.6356  19
  -1 -33   1 700.504 77.7844  24
   1  33   0 73.3524 70.2403  14
  -1  33   0 100.859 74.5295  14
   1  33   0 169.431 61.1485  19
   1  33   1 3586.71 129.019  14
  -1  33  -1 3561.19 121.654  14
   1  33   2 881.323 86.6621  14
   1 -33   2 819.155 84.0300  24
   1  33   3 703.550 68.4435  14
  -1 -34   2 2325.41 90.6786  24
  -1  34   2 2260.47 91.3032  14
   1  34  -2 2290.43 80.3479  19
  -1 -34   1 53.0607 58.4161  24
   1  34  -1 18.4647 52.6789  19
  -1  34   1 36.6794 67.5238  14
  -1  34   0 522.908 73.3759  14
   1  34   0 530.071 71.7388  14
   1  34   1 7826.37 158.838  14
  -1  34  -1 8605.90 151.126  14
   1  34   2 20.7341 57.9372  14
  -1  35   1 560.348 64.0613  14
  -1  35   0 2443.46 91.1291  14
   1  35   1 39.0330 53.2885  14
  -2   0   8 1115.17 83.4390  23
   2   0  -8 3632.94 122.213  20
  -2   0   7 12.2536 80.3537  23
  -2   0   7-24.9281 86.4183  16
  -2   0   6 494.250 102.892  16
  -2   0   6 570.794 94.9419  23
  -2   0   6 486.808 91.8332   7
  -2   0   5-3.92790 77.6997   7
   2   0  -5 37.3697 100.532   1
  -2   0   4 1606.33 95.0867   7
   2   0  -4 1743.35 149.206   1
   2   0  -3 82.0360 79.0920   1
  -2   0   3 281.635 93.1014   3
  -2   0   2 29517.6 384.553   3
   2   0  -1 6.54187 40.3780   1
  -2   0   1 26.4559 57.5633   3
  -2   0   0 56291.3 339.761   3
   2   0   0 55985.6 437.593   2
   2   0   1 131.521 84.2354   2
  -2   0  -1 143.923 36.5287   3
   2   0   2 84495.3 440.952   6
   2   0   2 81106.5 626.487   2
  -2   0  -2 88881.4 482.030   0
   2   0   2 85617.3 390.971   4
   2   0   3 31.6185 50.9373   4
   2   0   3 24.4817 86.2886   2
  -2   0  -3 125.563 71.5442   1
   2   0   4 952254. 7562.51   4
   2   0   4 915582. 11005.8   2
   2   0   5-20.7337 109.698   2
   2   0   6 18515.0 320.132   9
   2   0   6 18125.3 328.660  16
   2   0   7 36.1380 95.9585  16
   2   0   8 46564.7 423.015  16
   2  -1  -8 16038.0 216.546  20
   2   1  -8 16412.3 212.406  20
  -2  -1   7 32.7187 85.0188  16
  -2  -1   7 70.4999 82.3342  23
  -2   1   7-19.3496 82.2146  23
  -2   1   7 38.0427 86.4576  16
  -2   1   6 3372.54 160.776  16
  -2  -1   6 3373.72 159.287  16
  -2  -1   6 3102.20 152.544  23
  -2   1   6 3173.69 153.472  23
  -2   1   6 2848.43 149.995   7
  -2  -1   6 2717.83 144.676   7
  -2  -1   5 1100.58 101.001   7
  -2   1   5 976.296 98.5319   7
   2   1  -5 960.860 151.884   1
   2  -1  -5 1032.89 156.444   1
  -2   1   4 50400.0 441.082   7
   2   1  -4 51946.3 670.414   1
   2  -1  -4 52484.4 668.843   1
  -2   1   3 2135.70 139.374   3
   2   1  -3 2270.09 142.534   1
  -2  -1   3 2137.08 134.153   3
   2   1  -2 1656.93 101.679   1
  -2   1   2 1495.96 103.798   3
  -2  -1   2 1609.59 107.430   3
   2   1  -1 1815.51 75.6879   1
  -2  -1   1 1662.01 88.7208   3
  -2  -1   0 268864. 2749.49   3
  -2   1   0 274644. 3171.60   3
   2  -1   0 272396. 3854.07   2
   2   1   0 266742. 3670.31   2
   2  -1   1 2532.64 124.500   2
  -2  -1  -1 2446.91 55.5641   3
   2   1   1 2338.77 118.722   2
  -2   1  -1 2684.46 85.5594   3
   2  -1   2 134060. 507.107   4
   2  -1   2 128792. 789.215   2
   2   1   2 130738. 792.976   2
  -2   1  -2 137779. 661.580   0
  -2   1  -2 133418. 593.732   1
   2   1   2 131948. 2218.00   6
  -2  -1  -2 138786. 531.969   0
   2  -1   2 134479. 549.183   6
   2   1   2 135306. 473.490   4
   2   1   3 32200.3 288.925   4
   2   1   3 32993.6 465.523   2
   2  -1   3 31525.8 295.970   4
   2  -1   3 32967.9 461.090   2
  -2   1  -3 33011.2 397.265   1
   2  -1   4 38466.0 570.241   2
   2   1   4 37231.1 567.729   2
   2  -1   4 38282.6 387.289   4
  -2   1  -4 40016.6 534.025   1
  -2  -1  -4 39838.1 536.224   1
   2   1   4 38949.4 384.107   4
   2  -1   5 1614.93 170.274   2
   2   1   5 1280.83 158.042   2
   2   1   6 173180. 972.448  16
   2   1   6 176171. 943.873   9
   2   1   7 7950.05 225.327  16
   2  -1   7 8117.06 229.206  16
   2   1   8 4544.44 151.692  16
   2  -1   8 5253.35 177.947  16
   2   2  -8 1640.28 93.3697  18
  -2  -2   8 949.889 85.2890  23
  -2   2   7 838.964 111.877  16
  -2  -2   7 752.472 104.926  16
  -2  -2   7 1031.09 109.559  23
  -2  -2   6 356.348 85.2136   7
  -2   2   6 332.776 95.8542   7
  -2  -2   6 548.430 103.630  16
  -2   2   6 448.665 100.097  16
  -2   2   6 439.218 90.5157  23
  -2   2   5 57.7522 71.8998   7
   2   2  -5 36.6643 116.642   1
  -2  -2   5 192.822 78.4256   7
   2  -2  -5 95.4979 103.415   1
  -2   2   4 833.710 85.5546   7
  -2   2   4 926.163 128.486   3
   2  -2  -4 825.503 129.986   1
  -2   2   4 924.215 123.357   2
   2   2  -4 802.223 132.130   1
  -2   2   3 7318.47 150.459   7
  -2   2   3 7167.51 230.833   3
   2   2  -3 7622.53 228.056   1
   2   2  -2 5288.42 159.738   1
  -2   2   2 5018.46 171.211   3
  -2  -2   2 5093.10 168.253   3
   2   2  -1 202793. 2476.48   6
  -2   2   1 201620. 3413.11   3
   2   2  -1 203886. 2755.24   1
  -2   2   0 84288.6 474.108   3
   2   2   0 83973.2 506.936   2
  -2   2  -1 13490.7 192.170   3
   2   2   1 13160.3 235.468   2
  -2   2  -2 38450.9 325.977   1
   2  -2   2 39051.9 283.464   4
   2   2   2 37974.7 303.909   6
   2  -2   2 38869.1 297.076   6
   2  -2   2 37955.8 430.835   2
  -2   2  -2 39212.4 386.321   0
   2   2   3 347.526 55.8752   4
   2  -2   3 264.274 55.6598   4
  -2   2  -3 338.250 78.5315   1
   2   2   3 410.969 94.0501   2
   2  -2   3 413.616 104.746   2
   2  -2   4 375558. 1745.74   2
   2  -2   4 376641. 4834.88   4
   2   2   4 390713. 4682.13   4
  -2   2  -4 396043. 1647.95   1
   2   2   4 367253. 1762.71   2
   2   2   5 30860.7 586.347   2
   2  -2   5 33332.8 588.958   2
   2   2   6 285.446 109.517   9
   2   2   6 352.767 111.286  16
   2  -2   6 481.122 114.322  16
   2   2   7 9131.17 238.630  16
   2   2   7 9593.01 233.453   9
   2  -2   7 9510.43 245.724  16
   2  -2   8 1070.19 102.224  16
   2   2   8 960.514 100.728  16
   2   3  -8 16171.0 215.539  18
   2  -3  -8 16209.7 217.576  20
  -2  -3   7 1473.99 122.952  16
  -2   3   7 1329.51 124.234  16
  -2  -3   7 1266.32 114.455  23
  -2   3   7 1503.13 115.942  23
  -2  -3   6 84.4990 87.3237  16
  -2   3   6 66.6386 83.7409  16
  -2   3   6 90.8274 84.8480  23
  -2  -3   6 59.1598 78.5321   7
  -2   3   6 97.4316 82.0480   7
  -2  -3   6 52.3844 81.1492  23
  -2  -3   5 6933.69 203.064   7
   2   3  -5 6893.65 296.302   1
  -2   3   5 6803.01 199.551   7
   2  -3  -5 7410.28 311.099   1
  -2   3   4 5462.80 160.781   7
   2   3  -4 6129.03 245.240   1
  -2   3   4 5850.35 250.098   3
  -2   3   3 38649.2 525.470   3
  -2   3   3 37928.0 328.706   7
  -2   3   2 1599.04 72.3393   7
   2   3  -2 1447.38 103.988   1
  -2   3   2 1390.38 106.704   3
  -2  -3   1 155475. 698.892   3
  -2   3   1 156766. 781.236   3
   2   3  -1 157258. 2218.03   6
   2  -3   0 124432. 697.402   0
  -2  -3   0 128632. 440.634   3
  -2   3   0 126892. 620.152   3
   2   3   0 135135. 1807.60   1
   2   3   0 131158. 621.436   2
   2   3   1 68936.9 515.644   2
  -2   3  -1 75139.7 329.187   1
   2   3   1 72088.5 380.212   6
  -2   3  -1 73796.1 474.281   3
   2  -3   1 69260.2 527.603   2
   2   3   2 9580.94 160.276   6
   2   3   2 9088.11 227.333   2
   2  -3   2 9371.20 149.296   4
  -2   3  -2 10017.2 178.073   1
  -2   3  -2 9659.93 209.807   0
   2  -3   2 9298.16 228.123   2
  -2   3  -3 25169.9 351.399   1
   2   3   3 23840.0 405.066   2
   2  -3   3 23907.5 266.476   4
   2   3   3 24794.0 248.936   4
   2  -3   4 19885.5 413.082   2
   2  -3   4 19514.8 284.369   4
   2   3   4 18956.7 419.795   2
   2   3   5 39598.9 665.199   2
   2  -3   5 39920.2 460.020   4
   2  -3   6 5974.16 202.360  16
   2  -3   6 6414.64 204.180  10
   2   3   6 6052.31 200.108   9
   2   3   6 5923.98 205.392  16
   2  -3   7 285.492 101.088  16
   2   3   7 276.455 98.1654  16
   2   3   7 346.789 96.4119   9
   2   3   8 632.798 90.2108  16
   2  -3   8 779.098 95.0871  16
   2   4  -8 6081.86 145.925  18
   2  -4  -8 7574.00 157.781  20
  -2  -4   7 3449.65 159.562  16
  -2   4   7 3387.20 152.253  16
  -2  -4   7 3182.93 154.371  23
  -2   4   7 3274.09 147.304  23
  -2  -4   6 220.546 89.9145   7
  -2   4   6 156.221 83.2984   7
  -2   4   6 232.992 88.5062  16
  -2  -4   6 154.916 84.4800  23
  -2  -4   6 184.547 96.9839  16
  -2   4   6 204.598 82.2690  23
   2   4  -5 30.5919 100.858   1
  -2   4   5 82.0712 77.3347   7
  -2  -4   5 43.6408 81.1315   7
   2  -4  -5-24.3519 114.188   1
   2   4  -4 21436.3 443.402   1
  -2   4   4 20185.5 286.191   7
  -2   4   4 20556.2 450.062   3
  -2   4   3 38376.7 334.554   7
  -2   4   3 38120.4 524.920   3
   2   4  -3 37629.7 497.890   1
  -2   4   2 8133.51 132.314   7
   2   4  -2 8316.65 201.885   1
  -2   4   2 8104.47 222.536   3
  -2  -4   2 8117.60 136.297   5
  -2   4   1 11006.5 220.178   3
   2   4  -1 11025.9 158.649   6
   2   4  -1 11205.9 191.284   1
   2  -4   0 84788.5 605.041   0
   2   4   0 84387.3 420.875   1
   2   4   0 85790.6 496.928   2
   2   4   1 103868. 466.063   6
   2   4   1 103559. 628.339   2
  -2   4  -1 109139. 447.318   1
  -2   4  -1 106834. 610.453   3
   2  -4   1 105964. 1795.49   4
   2  -4   1 103389. 649.739   2
   2  -4   2 65080.0 565.951   2
   2   4   2 67824.4 412.334   6
  -2   4  -2 69312.6 467.152   1
   2   4   2 65816.1 581.122   2
  -2   4  -2 68634.6 572.040   0
   2  -4   2 68549.8 402.837   4
   2  -4   3 16016.1 327.989   2
   2   4   3 16490.5 203.796   4
   2   4   3 15679.7 338.846   2
   2  -4   3 15347.6 223.027   4
  -2   4  -3 16469.2 292.576   1
  -2   4  -4 119.493 126.749   1
   2  -4   4 194.274 72.4451   4
   2  -4   4 173.276 106.772   2
   2   4   4 241.563 107.478   2
   2   4   5 7281.34 308.256   2
   2  -4   5 7074.23 207.395   4
   2  -4   6 21668.3 358.149  16
   2   4   6 21332.6 356.958  16
   2  -4   6 22151.4 347.907  10
   2  -4   7 3017.30 156.201  16
   2   4   7 3051.92 151.521  16
   2   4   7 3041.56 150.376   9
   2   4   8 593.924 89.1057  16
   2  -4   8 614.175 88.4875  16
   2   5  -8 2273.59 105.990  18
   2  -5  -8 3783.71 127.360  20
  -2   5   7 4455.76 168.167  16
  -2  -5   7 4122.86 167.299  16
  -2   5   7 4210.01 159.969  23
  -2  -5   6 451.006 100.999   7
  -2   5   6 523.699 101.650  16
  -2  -5   6 514.183 98.2360  23
  -2  -5   6 520.607 103.595  16
  -2   5   6 613.889 95.3110  23
  -2   5   5 31831.2 587.772   2
   2  -5  -5 31080.3 601.830   1
   2   5  -5 30874.1 598.516   1
   2   5  -4-24.7598 101.282   1
  -2   5   4-35.2658 66.4001   7
  -2   5   4 95.9287 94.6531   2
  -2   5   3 50516.2 388.244   7
  -2   5   3 50640.7 612.342   3
  -2   5   2 13741.4 172.671   7
   2   5  -2 13385.5 258.777   1
  -2   5   2 13644.9 291.238   3
  -2  -5   2 13960.7 182.722   5
   2   5  -1 43843.2 312.726   6
  -2   5   1 42023.1 437.175   3
   2   5   0 123806. 571.400   1
  -2   5   0 124070. 689.012   3
   2   5   0 125466. 597.705   2
   2  -5   1 198.385 56.4149   4
   2  -5   1 156.198 77.1685   2
   2   5   1 98.7972 75.1080   2
   2   5   1 105.954 56.4964   6
  -2   5  -1 163.885 66.5479   3
  -2   5  -1 371.328 56.7670   1
   2   5   2 25777.1 373.707   2
   2   5   2 27356.0 267.363   6
   2  -5   2 27102.1 264.990   4
  -2   5  -2 28511.3 318.756   1
  -2   5  -2 27684.2 384.192   0
   2  -5   2 26208.2 364.094   2
   2   5   3 223922. 1241.20   2
   2  -5   3 230459. 1182.79   2
   2  -5   3 223760. 3345.89   4
   2  -5   4 640.691 112.407   2
  -2   5  -4 619.581 107.352   1
   2   5   4 664.846 128.301   2
   2  -5   4 568.701 80.1656   4
   2   5   5 8906.93 333.069   2
   2  -5   5 9765.97 239.852   4
   2  -5   6 13333.3 287.305  16
   2   5   6 12761.8 284.692  16
   2   5   6 12483.4 275.317   9
   2  -5   6 12763.7 272.975  10
   2  -5   7 2690.59 148.072  16
   2   5   7 2675.21 144.984  16
   2   5   7 2817.13 148.630   9
   2  -5   8 1868.60 109.554  16
   2   5   8 2064.05 113.774  16
   2   5   8 1959.61 104.356   9
   2  -6  -8 2742.61 113.859  20
   2   6  -8 1563.44 101.341  18
  -2  -6   7 3031.94 147.732  16
  -2   6   7 3236.14 145.495  16
  -2  -6   7 2922.36 150.105  23
  -2  -6   6 6459.34 206.777   7
  -2  -6   6 6519.60 210.258  16
  -2  -6   6 6199.36 207.250  23
  -2   6   6 6217.09 198.443  23
  -2   6   5 397.638 82.4575   7
  -2   6   5 250.906 133.657   2
   2   6  -5 380.472 133.527   1
  -2   6   4 44037.7 643.811   2
  -2   6   4 42959.2 654.066   3
  -2   6   4 42484.5 416.958   7
   2   6  -4 43062.1 631.998   1
  -2   6   3 3529.43 119.120   7
  -2   6   3 3761.39 187.742   3
   2   6  -3 3700.05 182.633   1
  -2   6   2 308991. 3222.92   7
  -2   6   2 301439. 5375.46   3
   2   6  -2 312478. 1248.20   1
  -2  -6   2 304074. 3380.92   5
   2   6  -1 172717. 2466.40   6
  -2  -6   1 180952. 2338.75   5
   2   6  -1 182667. 827.568   1
  -2   6   1 174291. 916.885   3
   2   6   0 39409.1 353.907   1
   2   6   0 37190.3 275.363   6
   2  -6   0 37372.8 445.855   0
   2   6   0 39001.3 332.340   2
  -2   6   0 37394.9 403.704   3
   2  -6   1 3844.76 103.596   4
   2   6   1 3636.05 137.028   2
   2   6   1 3952.89 105.070   6
  -2   6  -1 3559.71 140.837   3
   2  -6   1 3368.90 146.807   2
  -2   6  -2 5609.28 158.664   1
  -2   6  -2 5637.34 194.846   0
   2   6   2 5146.88 125.622   6
   2  -6   2 5424.88 131.614   4
   2   6   2 5059.50 180.026   2
   2  -6   2 5073.19 176.601   2
   2   6   3 2885.11 175.312   2
   2  -6   3 2668.93 155.414   2
  -2   6  -3 2888.26 144.145   1
   2  -6   3 2850.28 111.750   4
   2  -6   4 4710.42 211.784   2
   2   6   4 4685.23 232.120   2
  -2   6  -4 4503.19 201.740   1
   2  -6   4 4254.75 146.607   4
   2  -6   5 62.0375 78.1928   4
   2   6   5 108.075 116.820   2
   2  -6   6 4394.10 182.369  16
   2   6   6 4293.49 181.750  16
   2  -6   6 4244.99 175.901  10
   2   6   6 3906.74 174.562   9
   2   6   7 821.605 104.125  16
   2  -6   7 879.945 110.619  16
   2   6   7 854.516 109.150   9
   2   6   8 254.278 81.8436   9
   2  -6   8 290.971 80.5620  16
   2   6   8 344.736 80.6349  16
   2   7  -8 6836.65 151.945  18
   2  -7  -8 7864.53 158.176  20
  -2  -7   7 150.591 91.4454  16
  -2   7   7 56.7804 79.2511  16
  -2   7   7 92.3428 74.6285  23
  -2  -7   7 37.0250 82.5162  23
  -2  -7   6 758.073 108.363  23
  -2  -7   6 770.125 112.731  16
  -2   7   6 953.537 114.202  16
  -2   7   6 702.974 98.5056  23
  -2  -7   6 694.488 109.207   7
  -2   7   5 4174.92 246.658   2
   2   7  -5 4112.26 245.582   1
  -2   7   4 37544.2 613.765   3
  -2   7   4 38373.8 613.465   2
   2   7  -4 35568.7 586.836   1
  -2   7   4 35993.0 390.313   7
  -2   7   3 148832. 681.853   7
  -2   7   3 149127. 1093.25   3
   2   7  -3 151331. 1043.12   1
   2   7  -2 288684. 1254.32   1
  -2   7   2 294680. 3254.28   7
  -2  -7   2 297065. 3483.20   5
   2   7  -1 148189. 793.650   1
   2   7  -1 148338. 585.597   6
   2   7   0 8355.08 158.176   2
   2   7   0 8552.79 141.049   6
   2   7   0 8371.89 186.269   1
  -2  -7   0 8343.38 137.805   5
   2  -7   0 7950.45 222.544   0
  -2   7   0 8132.24 208.114   3
  -2   7  -1 2326.29 103.993   1
   2   7   1 2293.01 85.9122   6
  -2   7  -1 2080.52 120.716   3
   2   7   1 2246.37 118.860   2
   2   7   2 58369.2 357.770   8
   2   7   2 55251.1 385.608   6
  -2   7  -2 55816.2 491.737   1
   2  -7   2 54841.2 401.252   4
   2  -7   2 58775.3 547.623   2
   2  -7   3 1179.73 85.9574   4
   2  -7   3 1294.22 128.448   2
  -2   7  -3 1386.70 115.864   1
   2   7   3 1346.06 142.235   2
   2  -7   4 24236.4 330.272   4
   2   7   4 24072.4 485.844   2
   2  -7   5 12822.6 278.015   4
   2   7   5 12662.7 401.735   2
   2  -7   6 14502.5 299.479  16
   2   7   6 14958.3 303.786  16
   2   7   6 14196.1 295.202   9
   2  -7   6 13972.7 288.103  10
   2   7   7-9.01306 86.9166  16
   2  -7   7 85.0085 90.9347  16
   2   7   7 87.1086 91.3403   9
   2   7   8 239.619 79.7997   9
   2  -7   8 362.993 79.6481  16
   2   7   8 435.170 80.5692  16
   2   8  -8 1249.72 93.5960  18
   2  -8  -8 2173.50 100.312  20
  -2  -8   7 8182.58 212.847  16
  -2   8   7 8296.17 203.803  16
  -2   8   7 7803.54 197.631  23
  -2  -8   6 9230.26 249.553  23
  -2  -8   6 9515.78 246.796   7
  -2  -8   6 10440.8 257.842  16
  -2   8   6 10388.0 249.682  16
  -2   8   6 9536.36 240.472  23
  -2   8   5 27197.9 401.322  12
  -2   8   5 26758.1 571.642   2
  -2  -8   5 26821.8 388.135  23
  -2   8   5 28170.3 386.836  23
   2   8  -5 25793.7 566.902   1
  -2   8   4 35403.4 601.959   2
   2   8  -4 35738.2 597.145   1
  -2   8   4 36054.7 607.018   3
   2   8  -3 6475.34 237.668   1
  -2   8   3 6620.69 157.384   7
  -2   8   3 6481.50 242.603   3
  -2   8   2 234414. 1237.95   3
   2   8  -2 236392. 1182.58   1
  -2  -8   2 238501. 3268.88   5
   2   8  -1 64440.8 393.874   6
  -2   8   1 64953.0 609.075   3
   2   8   0 93928.5 509.845   2
  -2  -8   0 93992.1 462.743   5
   2   8   0 94659.3 447.600   6
   2   8   0 92087.2 625.289   1
   2  -8   0 91305.6 477.895   4
   2   8   1 11323.8 224.751   2
  -2   8  -1 10415.2 248.398   3
   2   8   1 11757.4 170.316   6
  -2   8  -1 11856.5 220.261   1
   2   8   1 11160.7 155.044   8
   2  -8   1 10838.9 173.747   4
   2   8   2 1002.22 113.537   2
   2   8   2 1195.48 76.9134   6
  -2   8  -2 1148.53 96.9589   1
   2  -8   2 1082.33 83.8802   4
   2   8   2 1065.15 69.8979   8
   2  -8   2 1073.64 117.434   2
   2   8   3 5954.71 230.893   2
   2  -8   3 6250.70 158.833   4
  -2   8  -3 6425.22 212.363   1
   2  -8   3 6057.54 210.228   2
   2  -8   4 29483.1 370.406   4
   2   8   4 29044.9 539.655   2
   2  -8   5 132.691 83.1818   4
   2   8   5 41.0903 151.650   2
   2   8   6 12100.2 277.840  16
   2  -8   6 12259.4 275.504  10
   2   8   6 12082.7 271.123   9
   2  -8   7 260.433 91.4594  16
   2   8   7 507.660 101.048   9
   2   8   7 250.129 91.7362  16
   2   8   8 396.091 81.2182   9
   2  -8   8 652.150 84.3845  16
   2   8   8 549.190 79.6221  16
   2   9  -8 575.051 78.8676  18
   2  -9  -8 1461.66 90.1627  20
  -2  -9   7 4858.71 176.671  23
  -2   9   7 5332.68 164.125  23
  -2  -9   7 5224.46 177.526  16
  -2  -9   6 5686.89 196.019   7
  -2  -9   6 6567.90 212.960  16
  -2   9   6 6387.32 200.734  16
  -2  -9   6 5697.02 204.184  23
  -2   9   6 6016.84 196.883  23
  -2  -9   5 7928.46 225.431  16
  -2  -9   5 7477.72 218.088  23
  -2   9   5 7340.23 211.905  23
  -2   9   5 7205.11 218.756  12
  -2   9   4 7348.86 288.749   3
  -2   9   4 7433.07 298.158   2
   2   9  -4 7721.40 296.388   1
  -2   9   3 17740.0 398.260   3
   2   9  -3 17927.3 387.005   1
  -2  -9   3 17954.0 264.306   5
   2   9  -2 127976. 899.966   1
  -2  -9   2 127559. 624.556   5
   2   9  -1 152411. 897.345   1
   2   9  -1 155345. 620.573   6
  -2  -9   1 154795. 2541.25   5
   2   9   0 14555.5 184.798   6
  -2   9   0 14588.0 301.068   3
   2  -9   0 14405.1 202.845   4
  -2  -9   0 13992.6 195.287   5
   2   9   0 14380.5 272.886   1
   2   9   1 10480.9 222.057   2
   2   9   1 11067.7 165.882   6
  -2  -9  -1 10668.0 181.632   5
  -2   9  -1 11044.3 227.728   1
  -2   9  -1 10117.8 255.158   3
   2  -9   1 9869.83 173.594   4
   2   9   1 10679.5 161.260   8
   2   9   2 1309.02 117.601   2
  -2   9  -2 1447.06 112.320   1
   2   9   2 1789.99 86.5904   6
   2  -9   2 1539.95 126.422   2
   2   9   2 1587.69 82.9982   8
   2  -9   2 1565.98 93.2830   4
   2   9   3 6249.15 237.966   2
  -2   9  -3 6920.71 227.717   1
   2  -9   3 6375.50 163.330   4
   2  -9   3 7109.33 225.930   2
   2  -9   4 25165.3 347.901   4
   2   9   4 25324.9 512.236   2
   2  -9   5 131.241 77.7167   4
   2   9   5 70.8921 134.442   2
   2  -9   6 4723.86 186.309  16
   2   9   6 4499.54 184.322  16
   2   9   6 4206.31 177.099   9
   2  -9   7 8092.72 218.825  16
   2   9   7 7803.24 211.732  16
   2  -9   7 8256.71 202.743  10
   2   9   7 8351.64 214.972   9
   2  -9   8 744.387 85.0951  16
   2   9   8 635.183 81.1164  16
   2   9   8 632.822 84.9086   9
   2  10  -8 388.938 71.4294  18
   2 -10  -8 996.883 78.5417  20
  -2  10   7 743.582 84.9810  23
  -2 -10   7 764.683 98.7337  16
  -2  10   6 749.873 105.085  16
  -2 -10   6 696.173 101.176   7
  -2  10   6 804.887 100.176  23
  -2 -10   6 735.502 109.197  16
  -2 -10   6 612.635 99.2811  23
  -2 -10   5 70.0763 96.9399  16
  -2 -10   5 30.7777 79.8095  23
  -2  10   5 66.4076 84.3019  12
  -2  10   5 9.67338 78.3503  23
   2  10  -4 53610.5 756.851   1
  -2  10   4 54504.8 765.814   3
  -2  10   4 54297.2 771.822   2
  -2 -10   3 64985.3 507.539   5
   2  10  -3 65377.8 748.554   1
   2  10  -2 642.557 76.8585   6
   2  10  -2 540.156 104.229   1
  -2  10   2 456.277 88.2277   3
  -2 -10   2 442.350 72.0206   5
   2  10  -1 8185.01 231.177   1
   2  10  -1 8781.62 159.957   6
  -2  10   1 8938.63 252.490   3
  -2 -10   1 8220.55 162.374   5
   2  10   0 24361.4 239.191   6
  -2 -10   0 24711.3 266.535   5
   2  10   0 23718.1 364.786   1
   2 -10   0 23142.2 262.680   4
  -2  10   0 23570.1 390.307   3
   2  10   1 11987.8 179.118   8
   2  10   1 12237.9 240.224   2
   2 -10   1 11312.2 191.367   4
  -2  10  -1 11250.8 281.069   3
   2  10   1 12620.4 177.761   6
  -2 -10  -1 11613.8 196.550   5
  -2  10  -1 12441.1 253.686   1
   2  10   2 2065.09 90.0143   6
   2  10   2 1713.26 136.413   2
   2 -10   2 1920.96 101.512   4
   2  10   2 1933.18 92.0509   8
  -2  10  -2 1968.74 130.840   1
   2  10   3 35044.1 354.271   8
   2  10   3 32940.5 518.842   2
  -2  10  -3 34105.7 496.303   1
   2 -10   3 32162.2 356.335   4
   2 -10   4 3979.48 153.393   4
   2  10   4 4124.52 234.152   2
   2 -10   5 2858.89 152.144   4
   2 -10   5 3325.58 159.795  16
   2  10   5 3244.49 153.849  12
   2  10   5 3226.47 156.454   9
   2 -10   6 3879.72 174.167  16
   2  10   6 3827.75 170.490  16
   2  10   6 4033.59 171.071   9
   2  10   6 3926.73 165.001  12
   2 -10   7 986.625 108.744  16
   2  10   7 918.455 104.017  16
   2  10   7 1094.61 107.907   9
   2 -10   7 1079.39 103.862  10
   2 -10   8 65.0375 69.5319  16
   2  10   8 28.5604 65.2810  16
   2  11  -8 269.260 65.0747  18
   2 -11  -8 463.590 68.9006  20
   2 -11  -7 5095.29 160.514  20
   2  11  -7 4622.75 166.518  18
  -2 -11   6 528.488 103.854  16
  -2  11   6 455.209 92.8900  23
  -2 -11   6 525.901 104.256  23
  -2  11   6 591.913 100.304  16
  -2 -11   5 931.315 107.650  23
  -2 -11   5 795.484 118.249  16
  -2  11   5 860.219 101.480  23
  -2  11   5 915.162 106.863  12
   2  11  -4 39290.2 662.844   1
  -2  11   4 40158.5 675.247   2
  -2 -11   3 3123.17 129.694   5
  -2  11   3 3098.18 186.312   3
   2  11  -3 2974.45 183.986   1
   2  11  -2 76091.7 749.665   1
  -2  11   2 76143.5 772.067   3
  -2 -11   2 75891.7 521.446   5
   2  11  -1 1822.63 136.303   1
   2  11  -1 1754.82 85.1944   6
  -2  11   1 1642.31 123.388   3
  -2 -11   1 1845.28 95.6450   5
   2  11   0 14938.2 190.669   6
  -2 -11   0 13801.3 211.832   5
  -2  11   0 13484.7 310.249   3
   2 -11   0 14427.1 216.300   4
   2  11   0 15148.8 306.384   1
  -2  11  -1 15601.5 337.274   3
   2  11   1 17721.1 288.217   2
  -2  11  -1 17297.9 314.741   1
   2  11   1 17223.3 207.161   6
  -2 -11  -1 15942.2 235.070   5
   2  11   1 16180.2 216.467   8
   2 -11   1 15900.6 229.391   4
  -2  11  -2 5382.92 198.310   1
   2  11   2 4885.94 192.902   2
   2 -11   2 5265.41 150.545   4
   2  11   2 5015.88 135.387   8
   2  11   3 435.442 68.9074   8
   2 -11   3 417.102 71.9645   4
  -2  11  -3 603.338 107.239   1
   2  11   3 417.695 119.182   2
   2 -11   4 20046.5 319.387   4
   2  11   4 19865.4 467.662   2
   2  11   5 424.673 94.3971  12
   2 -11   5 479.608 98.8693   4
   2 -11   5 524.857 104.499  16
   2  11   5 415.733 106.823   9
   2 -11   6 1796.69 134.904  16
   2  11   6 1727.70 132.426  16
   2  11   6 1829.55 132.335   9
   2  11   6 1827.41 125.014  12
   2 -11   7 274.890 90.8514  16
   2 -11   7 216.194 83.6143  10
   2  11   7 255.613 91.5440   9
   2  11   7 330.847 90.1324  16
   2 -11   8 223.627 69.6970  16
   2 -11   8 214.040 65.4567  17
   2  11   8 178.882 69.4156   9
   2  11   8 191.092 64.0458  16
   2  12  -7 3031.22 145.167  18
   2 -12  -7 3938.70 146.479  20
  -2  12   6 7522.20 210.565  16
  -2 -12   6 6726.00 217.950  23
  -2 -12   6 7426.26 221.133  16
  -2  12   6 7433.68 209.567  23
  -2 -12   5 3458.81 165.121  16
  -2  12   5 3206.58 149.857  23
  -2  12   5 3068.12 159.485  12
  -2 -12   5 3279.00 158.433  23
  -2  12   4 8568.40 316.440   3
   2  12  -4 8250.50 322.273   1
  -2  12   4 8457.88 330.706   2
   2  12  -3 5997.15 256.361   1
  -2  12   3 6202.38 257.396   3
  -2 -12   3 5853.50 172.230   5
   2  12  -2 46214.5 611.679   1
  -2  12   2 46828.4 624.011   3
  -2 -12   2 47587.9 426.079   5
   2  12  -1 44057.9 560.136   1
  -2 -12   1 43696.9 388.008   5
  -2 -12   0 7001.53 161.575   5
   2  12   0 7082.69 226.949   1
   2 -12   0 6791.80 156.600   4
  -2  12   0 6797.55 235.477   3
   2  12   1 237.547 60.5513   8
   2 -12   1 158.106 66.7421   4
   2  12   1 69.6416 69.4614   2
   2  12   1 37.1212 44.9391   6
  -2 -12  -1 129.596 65.0953   5
  -2  12  -1 83.9431 80.9936   1
  -2  12  -1 103.292 83.3957   3
   2  12   2 19.5761 55.2881   8
   2 -12   2 15.9143 56.8669   4
   2  12   2 31.5988 50.5457   6
  -2  12  -2 21.9284 81.6294   1
   2  12   3 36843.6 565.921   2
   2  12   3 36306.7 385.223   8
  -2  12  -3 37695.2 554.043   1
   2  12   4 76.8455 65.5796   8
   2 -12   4 257.972 77.6719   4
   2  12   4 150.504 119.292   2
   2 -12   5 2841.32 152.341  16
   2 -12   5 2791.47 155.363   4
   2  12   5 2829.26 149.941  12
   2  12   5 2881.34 153.170   9
   2 -12   6 4612.34 184.396  16
   2  12   6 4861.60 182.876  16
   2  12   6 4472.45 174.146  12
   2  12   6 4448.49 178.063   9
   2 -12   7 172.787 88.6216  16
   2  12   7 206.324 82.8207  16
   2 -12   7 149.308 80.2841  10
   2  12   7 175.558 86.7594   9
   2 -12   8 33.3085 57.5092  17
   2  12   8-24.4374 64.4551   9
   2  12   8 23.3897 57.2244  16
   2  13  -7 5247.33 162.119  18
   2 -13  -7 5748.75 155.966  20
  -2 -13   6 2700.75 154.259  16
  -2  13   6 2921.89 145.121  16
  -2  13   6 2764.29 142.020  23
   2 -13  -6 7564.04 231.284  22
   2 -13  -6 8861.73 213.002  20
  -2 -13   5 6601.61 214.472  23
  -2  13   5 7033.73 210.148  23
  -2  13   5 6286.98 208.618  12
  -2 -13   5 7152.82 221.666  16
  -2  13   4 611.443 129.293   3
  -2  13   4 516.760 145.887   2
   2  13  -4 709.397 134.090   1
   2  13  -3 9735.40 325.843   1
  -2  13   3 9506.40 317.769   3
  -2 -13   3 10122.7 224.821   5
   2  13  -2 8896.52 179.082   6
  -2  13   2 8201.57 277.724   3
  -2 -13   2 8677.37 195.602   5
   2  13  -2 8447.74 281.918   1
  -2 -13   1 9684.06 198.383   5
  -2  13   1 9898.66 290.858   3
  -2 -13   0 21832.9 285.097   5
   2  13   0 22293.0 405.079   1
  -2  13   0 22516.7 425.918   3
   2 -13   0 22434.8 277.991   4
  -2  13  -1 64952.0 727.355   3
  -2 -13  -1 66460.9 505.043   5
   2 -13   1 65303.7 476.294   4
  -2  13  -2 23247.9 419.495   1
   2  13   2 22341.5 288.890   8
   2  13   2 23343.4 406.864   2
   2 -13   2 22336.0 300.132   4
   2 -13   3 20479.3 304.996   4
  -2  13  -3 21464.3 435.023   1
   2  13   3 20938.4 440.205   2
   2  13   3 21573.7 306.257   8
   2  13   4 351.330 80.1483   8
   2 -13   4 360.132 82.4156   4
   2  13   4 159.263 130.927   2
   2 -13   5 60152.8 578.320  16
   2 -13   5 57848.7 593.440   4
   2  13   5 58247.5 566.131   9
   2  13   5 58628.6 586.876  12
   2  13   6 858.268 112.110   9
   2 -13   6 1063.46 116.775  16
   2  13   6 934.589 104.641  12
   2  13   6 970.142 113.850  16
   2 -13   7 8211.94 206.720  16
   2  13   7 7742.12 198.192  16
   2  13   7 8296.96 190.668  12
   2 -13   7 8218.12 191.771  10
   2  14  -7 1528.22 113.625  18
   2 -14  -7 2011.30 109.012  20
   2  14  -6 10696.2 247.285  18
  -2 -14   6 8595.93 234.147  16
   2 -14  -6 10706.0 227.907  20
  -2  14   6 8102.24 212.985  23
   2 -14  -6 12343.6 255.165  22
  -2 -14   5 776.985 110.006  16
  -2 -14   5 601.653 102.744  23
  -2  14   5 501.749 95.8878  12
   2  14  -4 18060.9 473.915   1
  -2  14   4 18263.9 486.430   2
  -2  14   4 18758.8 472.309   3
   2  14  -3 13286.9 386.613   1
  -2 -14   3 13816.4 264.633   5
  -2  14   3 13617.8 386.619   3
  -2 -14   2 2305.49 113.472   5
   2  14  -2 2204.34 172.486   1
  -2  14   2 2197.80 161.701   3
  -2  14   1 5653.49 231.283   3
  -2 -14   1 5311.13 156.041   5
  -2 -14   0 3202.05 128.657   5
   2 -14   0 3392.79 124.176   4
   2  14   1 1533.13 90.3334   8
  -2 -14  -1 1499.50 97.5349   5
  -2  14  -1 1440.37 142.522   3
  -2  14  -1 1487.32 130.957   1
   2 -14   1 1517.96 92.2707   4
   2  14   2 33134.1 362.722   8
   2  14   2 34081.6 493.436   2
   2 -14   2 32999.4 371.773   4
  -2 -14  -2 33350.8 393.443   5
  -2  14  -3 92910.0 920.282   1
   2  14   3 93757.2 643.493   8
   2 -14   4 4145.57 165.187   4
   2  14   4 4264.56 246.276   2
   2  14   4 4643.45 165.554   8
   2 -14   5 37488.4 465.111  16
   2 -14   5 35694.2 469.455   4
   2  14   5 37100.5 471.169  12
   2  14   5 35443.0 447.482   9
   2  14   6 143.047 97.3686   9
   2 -14   6 144.556 95.1002  16
   2  14   6 111.300 86.9951  16
   2  14   6 104.952 78.4959  12
   2 -14   7 11836.0 235.971  16
   2  14   7 11227.1 227.356  16
   2  14   7 11693.5 217.467  12
   2  14   7 11046.9 229.596   9
   2 -14   7 11721.1 216.994  10
   2  15  -7 1098.75 98.3412  18
   2 -15  -7 787.750 91.7587  22
   2  15  -6 3531.74 163.768  18
  -2 -15   6 290.440 98.8482  16
   2 -15  -6 4750.18 185.417  22
  -2  15   6 195.635 84.1748  23
   2 -15  -6 3560.65 160.759  20
  -2 -15   5 1371.61 127.479  16
  -2  15   5 1208.60 110.971  23
  -2  15   5 1164.53 112.501  12
  -2  15   4 7722.14 313.887   3
  -2  15   4 7830.37 217.273  12
  -2 -15   4 7304.49 215.662  23
  -2 -15   3 3733.86 152.398   5
   2  15  -3 3734.62 225.951   1
  -2  15   3 3808.86 220.433   3
   2  15  -2 8367.52 301.572   1
  -2  15   2 8497.59 298.475   3
  -2 -15   2 8342.16 202.646   5
  -2  15   1 5650.67 147.374   8
  -2  15   1 5711.38 239.660   3
  -2 -15   1 5449.31 163.670   5
   2  15  -1 5783.44 245.301   1
  -2 -15   0 5906.13 166.862   5
  -2  15   0 5969.10 241.417   3
   2 -15   0 6045.91 159.432   4
   2 -15   1 3.98434 57.8952   4
  -2 -15  -1 112.133 62.9990   5
  -2  15  -1 87.1892 87.2835   1
  -2  15  -1 27.7940 93.1151   3
  -2  15  -2 1981.53 156.863   1
   2  15   2 2182.25 110.184   8
  -2 -15  -2 2006.68 117.757   5
   2 -15   2 2073.58 114.666   4
   2 -15   3 25963.3 355.646   4
   2  15   3 26413.8 357.323   8
   2  15   3 26671.9 505.499   2
   2  15   4 2796.03 224.805   2
   2  15   4 2667.16 137.965   8
   2 -15   4 2439.00 133.825   4
   2  15   5 37494.8 458.430   9
   2 -15   5 39243.9 479.472  16
   2 -15   5 38346.7 482.766   4
   2  15   5 36585.4 472.700  12
   2 -15   6 200.507 96.4337  16
   2  15   6 158.777 91.6480   9
   2  15   6 103.169 81.3631  12
   2 -15   7 8985.66 205.138  17
   2 -15   7 9298.17 205.354  16
   2  15   7 8918.20 199.048  16
   2  15   7 9373.85 191.668  12
   2 -15   7 9278.07 190.960  10
   2 -16  -7 2409.08 105.376  20
  -2 -16   7 2013.88 101.700  16
   2 -16  -7 2347.03 107.978  22
   2  16  -7 2387.74 109.421  18
   2  16  -6 11477.2 237.601  18
  -2 -16   6 10521.3 246.855  16
  -2  16   6 10230.7 224.248  23
   2 -16  -6 11441.5 222.060  20
  -2 -16   5 2324.24 149.524  16
  -2  16   5 2293.89 139.055  12
   2  16  -5 4276.27 192.718  18
   2 -16  -5 5226.62 185.439  20
   2  16  -4 2883.20 164.589  18
  -2 -16   4 402.291 105.017  16
   2 -16  -4 2815.28 166.094  20
  -2  16   4 335.946 88.9737  12
   2  16  -3 16414.4 444.322   1
  -2  16   3 15798.6 424.221   3
  -2 -16   3 15337.2 294.264   5
  -2  16   2 56223.0 758.058   3
  -2 -16   2 54889.7 517.920   5
   2  16  -2 57405.4 774.250   1
  -2  16   2 58646.5 503.381   8
  -2 -16   1 43469.3 447.800   5
  -2  16   1 44493.4 653.854   3
   2 -16  -1 46203.4 434.906   4
   2  16  -1 46059.2 661.864   1
  -2 -16   0 7654.62 193.165   5
  -2  16   0 7306.09 273.292   3
   2 -16   0 7852.69 180.299   4
  -2  16  -1 6.05377 81.3621   3
   2 -16   1 12.0753 60.4052   4
   2  16   2 1341.96 95.0385   8
  -2  16  -2 1403.89 142.392   1
   2 -16   2 1536.49 103.515   4
  -2 -16  -2 1289.51 106.223   5
   2 -16   3 6568.48 187.543   4
   2  16   3 6551.81 188.789   8
   2  16   3 7114.87 279.134   2
   2  16   4 12641.8 265.100   8
   2 -16   4 12598.1 275.351  16
   2  16   4 12156.7 274.994  12
   2  16   4 12865.9 268.070  14
   2 -16   5 11905.7 274.998  16
   2 -16   5 11839.1 273.533   4
   2  16   5 11176.1 268.682  12
   2  16   5 11086.5 262.969   9
   2 -16   6 7918.04 221.913  16
   2  16   6 8069.94 218.577  12
   2  16   6 7950.38 216.386   9
   2 -16   7 3926.50 131.288  10
   2 -16   7 3787.28 138.985  16
   2  16   7 3588.59 133.126  16
   2  16   7 3817.20 127.788  12
   2 -16   7 3726.59 139.506  17
   2  16   7 3645.70 136.130   9
  -2 -17   7 40.7042 64.8348  16
   2  17  -7 124.488 70.7759  18
   2 -17  -7 72.1543 70.7374  22
   2  17  -6 1771.53 133.144  18
  -2 -17   6 632.393 100.071  16
   2 -17  -6 2497.16 123.931  20
  -2  17   6 675.870 87.2203  23
   2 -17  -6 2861.30 158.263  22
   2  17  -5 4131.11 173.774  18
   2 -17  -5 6486.87 211.053  22
  -2 -17   5 1427.77 129.524  16
  -2  17   5 1288.12 116.130  12
   2 -17  -5 4228.93 169.673  20
  -2  17   4 19163.1 330.214  12
  -2 -17   4 19560.6 348.710  16
   2  17  -4 18870.4 313.535  18
   2  17  -3 2925.84 210.060   1
  -2  17   3 3088.74 205.757   3
  -2 -17   3 3149.76 152.126   5
   2  17  -2 12020.3 373.805   1
  -2  17   2 11279.1 353.876   3
  -2 -17   2 11457.1 249.621   5
  -2  17   2 12421.3 243.717   8
  -2  17   1 22760.8 483.264   3
  -2 -17   1 22424.2 331.786   5
   2 -17  -1 23583.7 315.565   4
   2  17  -1 23156.0 490.804   1
  -2 -17   0 4420.69 158.559   5
  -2  17   0 4350.36 224.579   3
   2 -17   0 4772.70 147.987   4
   2 -17   1 161.897 66.7729   4
  -2  17  -1 216.256 105.725   3
  -2 -17  -1 141.125 66.1739   5
   2 -17   2 3043.65 130.713   4
   2  17   2 2767.32 127.216   8
  -2 -17  -2 2738.36 138.955   5
  -2  17  -2 2687.30 196.338   3
  -2  17  -2 3220.60 200.181   1
   2  17   3 8911.14 222.075   8
   2 -17   3 8725.93 215.494   4
  -2 -17  -3 8360.77 236.275   5
   2  17   4 653.283 106.273   9
   2  17   4 465.689 91.4405   8
   2 -17   4 567.279 110.537  16
   2 -17   4 570.935 96.1628   4
   2  17   4 573.033 114.010  14
   2  17   4 622.041 99.5588  12
   2 -17   5 8909.39 242.797  16
   2 -17   5 8734.77 235.735   4
   2  17   5 7914.68 231.849  12
   2  17   5 8244.90 227.984   9
   2 -17   6 1423.48 122.001  16
   2  17   6 1406.18 115.149   9
   2  17   6 1316.86 108.627  12
   2 -17   7 1512.42 101.847  17
   2 -17   7 1606.91 99.6885  16
   2  17   7 1550.21 97.6369  16
   2  17   7 1436.71 87.9318  12
   2 -17   7 1554.23 94.6295  10
   2  17   7 1483.88 101.467   9
   2 -18  -7 4624.96 120.327  22
   2  18  -7 4438.42 120.415  18
   2  18  -6 3849.83 148.618  18
   2 -18  -6 3774.25 136.968  20
  -2 -18   5 139.742 93.6750  16
  -2  18   5 126.528 83.3862  12
   2  18  -5 1530.16 139.741  18
   2 -18  -5 2327.43 143.951  20
   2 -18  -5 3735.51 188.005  22
  -2 -18   4 26928.4 409.269  16
  -2  18   4 27512.9 390.074  12
   2 -18  -4 28025.1 387.719  22
   2  18  -3 36881.7 682.886   1
  -2 -18   3 35186.7 453.926   5
  -2  18   3 36988.3 664.258   3
  -2  18   3 36362.3 442.653   8
  -2  18   2 238.282 73.7131   8
   2  18  -2 81.3091 113.937   1
  -2  18   2 260.611 109.684   3
  -2  18   1 4320.88 229.862   3
  -2 -18   1 4094.48 159.121   5
  -2  18   1 4630.67 148.516   8
   2 -18  -1 4495.13 150.276   4
   2  18  -1 4566.11 244.064   1
  -2 -18   0 13612.4 266.484   5
  -2  18   0 13873.8 390.424   3
   2 -18   0 14334.1 248.844   4
   2 -18   1 1072.00 92.5241   4
  -2 -18  -1 879.737 92.2731   5
  -2  18  -1 1084.29 139.271   3
   2 -18   2 2656.87 127.753   4
  -2 -18  -2 2597.46 139.454   5
  -2  18  -2 2584.64 201.352   3
   2  18   2 2698.60 129.981   8
   2  18   3 177.307 81.4999   8
  -2 -18  -3 179.350 82.3543   5
   2 -18   3 293.679 83.3012   4
   2  18   4 8367.69 223.704   8
   2 -18   4 8597.14 238.465  16
   2  18   4 8169.89 234.905  12
   2  18   4 8808.84 233.499  14
  -2 -18  -4 8271.78 241.142   5
   2  18   4 8622.03 222.847   9
   2 -18   4 8543.33 226.940   4
   2 -18   5 29.8858 94.0413  16
   2  18   5 78.6421 81.4065  12
  -2 -18  -5 73.7672 95.6737   5
   2  18   5 190.582 95.4430   9
   2 -18   6 3197.25 149.737  16
   2  18   6 3479.45 146.307   9
   2  18   6 3219.11 143.746  12
   2 -18   6 3227.49 152.469  17
   2  18   7 481.931 80.2081   9
   2 -18   7 662.580 77.7394  16
   2 -18   7 627.267 80.5095  17
   2  18   7 523.621 77.0393  16
   2  18   7 501.748 66.6734  12
   2 -18   7 450.810 72.1979  10
  -2  19   7 461.877 65.6557   9
   2  19  -7 437.108 64.9521  19
   2  19  -6 374.632 86.8310  18
  -2 -19   6 47.9670 79.9898  16
  -2 -19   5 2814.84 153.875  16
  -2  19   5 2603.54 135.766  23
  -2 -19   5 2737.91 147.101  24
  -2  19   5 2666.76 141.373  12
   2  19  -4 14076.1 273.106  18
  -2 -19   4 14902.6 310.065  16
   2 -19  -4 15768.1 306.789  22
  -2  19   4 15778.7 296.700  12
  -2  19   4 14380.1 294.240   8
  -2 -19   3 5880.91 203.330  16
  -2 -19   3 5486.39 193.946   5
  -2  19   3 5811.18 190.860   8
  -2 -19   2 3681.30 160.394   5
  -2  19   2 3375.72 221.675   3
   2  19  -2 3422.97 239.604   1
   2 -19  -2 3646.31 146.171   4
  -2  19   2 3549.17 147.804   8
   2 -19  -1 28814.6 359.032   4
  -2 -19   1 26131.1 375.284   5
  -2  19   1 25770.3 539.552   3
   2  19  -1 26626.9 552.188   1
  -2  19   1 28922.8 355.244   8
  -2 -19   0 3231.89 148.259   5
  -2  19   0 3228.35 200.612   3
   2 -19   0 3568.86 137.756   4
  -2 -19  -1 39683.4 468.087   5
  -2  19  -1 40176.9 680.803   3
   2  19   2 23800.8 357.636   8
  -2  19  -2 23249.6 533.957   3
   2 -19   2 24797.2 342.870   4
   2 -19   3 5528.00 179.109   4
   2 -19   3 6082.90 191.944  24
   2 -19   3 5318.81 197.773  17
   2  19   3 5330.87 180.379   8
   2 -19   3 6048.85 202.614  16
   2  19   3 5630.77 194.040  14
   2  19   3 5651.49 193.823  12
  -2 -19  -3 5271.48 196.519   5
   2 -19   4 518.970 106.717  17
   2  19   4 630.492 98.2646   8
   2 -19   4 585.418 110.590  16
   2 -19   4 497.751 90.1759   4
   2  19   4 601.001 107.798  14
   2  19   4 579.139 103.330   9
   2  19   4 517.541 99.9072  12
  -2 -19  -4 657.649 106.647   5
   2  19   5 3037.42 147.093   9
   2 -19   5 3087.66 161.232  17
   2 -19   5 2837.99 153.124  16
   2  19   5 2790.01 147.192  12
   2  19   6 87.5619 81.5236   9
   2 -19   6 36.1327 78.6987  17
   2 -19   6 26.7544 80.5446  16
   2  19   6 41.8513 70.1639  12
   2 -19   7 311.555 64.7992  16
   2  19   7 281.257 64.6276  16
   2 -19   7 281.779 63.8442  10
   2  19   7 191.268 71.3724   9
   2  19   7 264.087 58.6038  12
   2 -19   7 241.042 67.4519  17
   2  20  -6 3781.90 132.912  18
  -2 -20   6 3875.87 139.958  16
  -2 -20   5 64861.7 589.359  16
  -2 -20   5 66121.7 564.189  24
  -2  20   5 66149.8 556.072  23
  -2  20   5 64094.7 573.430  12
   2  20  -5 61653.4 516.041  18
   2 -20  -5 60497.0 553.861  22
  -2  20   4 57716.8 570.073   8
  -2 -20   4 59119.6 591.621  16
  -2  20   3 74.9809 83.5073   8
  -2 -20   3 95.6117 106.398  16
  -2 -20   3 9.24439 96.0429   5
  -2  20   2 50046.6 502.325   8
  -2  20   2 49947.6 766.114   3
   2  20  -2 49142.6 785.254   1
  -2 -20   1 59681.4 575.567   5
  -2  20   1 63833.5 855.026   3
  -2 -20   0 19537.8 334.444   5
  -2  20   0 18048.0 462.218   3
  -2 -20  -1 7626.73 218.840   5
  -2  20  -1 7718.39 316.386   3
   2 -20   2 6204.65 183.955   4
  -2 -20  -2 6116.91 203.467   5
  -2  20  -2 6286.61 292.441   3
   2 -20   3 8029.98 211.385   4
   2 -20   3 7771.62 221.904  16
   2  20   3 7291.19 218.414  12
   2  20   3 7400.45 217.069  14
   2 -20   3 7119.58 222.292  17
   2  20   3 7623.25 214.296   8
  -2 -20  -3 7293.03 230.095   5
   2 -20   3 7691.52 216.214  24
   2 -20   4 322.824 101.092  17
   2  20   4 356.584 84.3406   8
   2 -20   4 288.609 99.5634  16
   2  20   4 434.427 107.945  14
   2  20   4 319.411 92.7393  12
   2 -20   4 408.069 92.3113   4
  -2 -20  -4 412.889 105.355   5
   2 -20   5 144.238 90.0175  17
   2 -20   5 196.712 87.9612  16
   2  20   5 185.965 77.6570  12
   2  20   5 256.725 88.1507   9
   2 -20   6 2244.30 124.207  17
   2 -20   6 2320.33 120.665  16
   2  20   6 2253.24 120.115  12
   2  20   6 2410.53 121.223   9
   2 -20   7 3405.45 107.206  17
   2  20   7 3108.07 97.2055  16
   2  20   7 3223.20 102.952   9
  -2 -21   6 134.057 72.4685  16
   2  21  -6 21.7027 74.5157  18
  -2 -21   5 18593.2 311.482  16
  -2  21   5 18132.9 301.366  12
  -2 -21   5 18248.1 299.662  24
   2 -21  -5 17411.0 305.342  22
  -2  21   5 18332.6 289.918  23
  -2  21   4 46785.7 504.046   8
  -2 -21   4 46004.5 514.186  16
  -2  21   3 177690. 988.945   8
  -2 -21   3 184078. 1015.47  16
  -2 -21   3 169429. 1006.66   5
   2 -21  -3 164226. 943.563  22
   2 -21  -2 200349. 1051.04  17
  -2 -21   2 205375. 1049.27  16
   2 -21  -2 194140. 1008.91  22
  -2 -21   2 190496. 1064.70   5
  -2  21   2 204731. 1017.22   8
   2  21  -2 200253. 1080.50  19
  -2 -21   1 19518.7 342.189   5
  -2  21   1 21083.0 506.053   3
  -2 -21   0 30.6351 75.8071   5
  -2  21   0 172.754 112.119   3
  -2 -21  -1 24394.6 383.820   5
  -2  21  -1 24071.6 550.406   3
   2  21   2 3104.79 154.769  14
   2  21   2 2981.30 148.400  12
   2 -21   2 2933.04 152.485  24
  -2 -21  -2 2876.78 158.064   5
   2 -21   2 2980.48 153.432  17
   2  21   2 3006.89 156.386  19
   2 -21   3 199.391 96.8756  17
   2  21   3 369.729 89.7692   8
   2 -21   3 152.290 96.2972  24
   2 -21   3 204.749 94.2459  16
   2  21   3 198.891 78.4108  12
   2  21   3 143.854 96.7540  14
  -2 -21  -3 286.041 88.2623   5
   2 -21   4 3838.70 172.021  17
   2  21   4 4224.72 168.695   8
   2 -21   4 4104.45 172.605  16
   2  21   4 4369.77 177.449  14
  -2 -21  -4 3777.77 178.732   5
   2 -21   4 4658.71 176.560  24
   2  21   4 4001.80 174.682  12
   2 -21   5 274.076 87.9153  17
   2 -21   5 336.319 92.2611  16
   2  21   5 381.260 83.1914  12
   2  21   5 422.239 96.1953   9
   2 -21   6 66.1200 72.4697  17
   2 -21   6-12.6056 73.4108  16
   2  21   6 100.706 74.2966  16
   2  21   6 50.1982 74.0421   9
   2  21   6 18.8838 63.6809  12
   2 -22  -6 8288.25 178.417  22
   2  22  -6 8182.93 180.424  19
  -2 -22   5 24699.0 343.533  16
  -2 -22   5 24529.9 331.878  24
  -2  22   5 25068.0 335.902  12
   2 -22  -5 23768.4 338.821  22
  -2 -22   4 31542.1 421.007  16
  -2 -22   4 30705.7 412.007  24
  -2  22   3 289.602 92.7296   8
  -2 -22   3 353.515 107.476  16
  -2 -22   3 351.575 96.2592   5
   2  22  -3 291.581 102.506  19
   2 -22  -2 179108. 1000.82  17
   2  22  -2 177568. 1025.28  19
   2 -22  -2 175654. 976.228  22
  -2 -22   2 174369. 1027.45   5
   2 -22  -1 171820. 942.948  22
  -2 -22   1 161806. 975.676   5
   2  22  -1 163667. 966.838  19
   2 -22  -1 168040. 970.159  17
  -2 -22   0 664.715 104.198   5
  -2  22   0 484.735 137.827   3
   2 -22   1 45332.3 512.540  17
   2  22   1 42525.2 469.425  14
   2  22   1 43963.0 497.731  19
   2 -22   1 44168.0 490.024  24
  -2 -22  -1 41550.1 503.251   5
   2 -22   2 4451.30 188.774  17
  -2 -22  -2 3904.50 173.033   5
   2  22   2 4071.26 174.805  14
   2 -22   2 4514.74 181.059  24
   2  22   2 4581.59 176.198  12
   2  22   2 4351.21 179.333  19
   2 -22   3 4257.29 173.089  16
   2  22   3 4253.17 174.408  14
   2 -22   3 4066.00 173.640  24
   2 -22   3 4179.97 183.208  17
  -2 -22  -3 4053.95 178.357   5
   2  22   3 4223.48 173.050  12
   2 -22   4 3584.48 170.356  17
   2 -22   4 3472.14 159.807  16
   2  22   4 3851.40 170.759  14
   2 -22   4 4109.68 164.382  24
   2  22   4 3489.66 159.844  12
   2 -22   5 8938.44 226.673  17
   2 -22   5 9270.95 220.210  16
   2  22   5 8689.10 219.743  12
   2  22   6 1493.71 92.0908   9
   2 -22   6 1512.39 100.876  17
   2 -22   6 1503.15 93.2402  16
   2  22   6 1520.73 97.4290  16
   2  22   6 1496.13 95.2782  12
   2 -23  -6 3355.73 117.563  22
   2  23  -6 3703.23 121.503  19
   2  23  -5 2148.69 124.869  19
  -2 -23   5 2257.53 123.501  16
  -2  23   5 2406.18 113.007  23
  -2 -23   5 2214.06 121.895  24
  -2 -23   4 7508.63 214.736  16
  -2 -23   4 7351.25 210.642  24
   2  23  -4 7419.32 219.038  19
  -2  23   3 113421. 767.171   8
  -2 -23   3 110773. 787.124  16
   2  23  -3 106311. 797.537  19
  -2  23   3 117445. 757.257  14
  -2 -23   3 108378. 800.550   5
   2 -23  -3 105794. 764.721  22
  -2  23   2 978.147 102.905   8
  -2  23   2 1240.97 126.669  14
   2 -23  -2 808.070 130.554  22
  -2 -23   2 855.785 106.095   5
   2  23  -2 910.900 113.581  19
   2 -23  -1 12368.3 276.635  22
   2 -23  -1 12838.4 273.668  24
  -2 -23   1 12311.6 280.390   5
   2 -23  -1 12095.4 277.010  17
   2  23  -1 11753.4 277.717  19
   2  23   0 34469.6 414.676  12
   2 -23   0 33291.6 443.926  17
   2  23   0 34060.7 415.089  14
   2 -23   0 34315.8 439.391  24
   2  23   0 32578.1 441.407  19
  -2 -23   0 32688.0 454.348   5
   2  23   1 721.959 115.477  14
   2 -23   1 581.598 110.419  17
   2 -23   1 493.166 100.620  24
   2  23   1 638.942 103.708  19
  -2 -23  -1 701.488 109.645   5
   2  23   2 150.515 86.5741  19
   2 -23   2 151.810 87.4460  17
   2  23   2 135.376 97.6266  14
  -2 -23  -2 228.354 93.6990   5
   2  23   2 211.711 82.1522  12
   2 -23   2 219.288 90.3496  24
   2 -23   3 24046.6 385.687  17
   2  23   3 24387.7 373.744  14
   2 -23   3 24547.4 373.817  24
  -2 -23  -3 23472.7 391.712   5
   2  23   3 24370.0 381.888  12
   2 -23   4 3153.29 160.303  17
   2  23   4 3347.17 159.733  14
   2 -23   4 3339.77 153.052  16
   2 -23   4 3696.56 155.534  24
   2  23   4 3271.44 155.060  12
   2 -23   5 1723.28 121.732  17
   2 -23   5 1650.31 111.229  16
   2  23   5 1697.84 112.766  12
   2 -23   6 2471.53 113.293  17
   2  23   6 2502.17 105.972  16
   2  23   6 2547.26 106.072  12
   2  23   6 2457.13 94.1716   9
   2 -24  -6 658.185 69.2798  22
   2  24  -6 767.744 69.7026  19
   2 -24  -5 1679.51 113.039  22
  -2 -24   5 1621.89 105.658  24
   2  24  -5 1468.11 105.151  19
  -2 -24   4 1634.83 118.623  24
   2  24  -4 1555.38 121.749  19
   2  24  -3 19498.8 347.771  19
  -2 -24   3 20999.6 355.190   5
  -2  24   3 21795.4 338.421  14
  -2 -24   3 19006.7 329.498  24
   2 -24  -3 20140.2 342.785  22
  -2  24   2 15949.9 302.630  14
  -2 -24   2 15528.0 316.247   5
   2 -24  -2 15152.9 307.461  22
  -2 -24   2 15230.6 298.451  24
   2  24  -2 15213.4 314.614  19
   2 -24  -1 115.378 88.8141  22
   2  24  -1 130.793 87.6160  19
   2 -24  -1 155.103 99.1762  17
  -2 -24   1 145.321 89.7009  24
  -2 -24   1 136.149 91.3268   5
   2 -24   0 10550.1 262.102  17
  -2 -24   0 10275.6 264.399   5
   2  24   0 10624.5 248.413  14
   2 -24   0 10846.4 257.900  24
   2  24   0 10244.2 256.344  19
   2 -24   1 259.984 101.735  17
  -2 -24  -1 157.691 82.4574   5
   2  24   1 63.8982 99.4750  14
   2 -24   1 179.692 99.8319  24
   2  24   1 226.001 84.0882  12
   2  24   1 298.453 94.2456  19
   2 -24   2 666.732 109.854  17
   2  24   2 748.071 116.069  14
   2  24   2 677.243 96.6720  12
   2 -24   2 625.414 113.365  24
  -2 -24  -2 585.692 95.6217   5
   2  24   2 591.319 98.8893  19
   2 -24   3 1813.18 135.583  17
   2  24   3 1857.24 137.223  14
  -2 -24  -3 1768.03 136.674   5
   2 -24   3 1671.27 130.688  24
   2  24   3 1818.05 124.206  12
   2 -24   4 2125.45 135.926  17
   2 -24   4 2093.79 124.328  16
   2  24   4 2281.75 140.093  14
   2 -24   4 2374.49 132.873  24
   2  24   4 1930.05 123.223  12
   2 -24   5 2352.31 123.759  17
   2 -24   5 2368.57 117.969  16
   2  24   5 2349.33 121.035  12
   2 -24   6 1890.85 93.4646  17
   2  24   6 1736.21 87.6270  16
   2  24   6 1867.83 88.3309  12
   2 -25  -5 2791.90 123.738  22
   2  25  -5 3051.16 126.053  19
  -2 -25   5 3166.38 120.762  24
  -2 -25   4 8146.79 207.142  24
   2 -25  -4 8056.43 209.122  22
   2  25  -4 8018.48 213.618  19
   2  25  -3 451.307 97.6807  19
  -2  25   3 320.282 99.4674  14
  -2 -25   3 426.246 98.6982  24
   2 -25  -3 408.151 109.302  22
  -2  25   2 2704.82 151.037  14
  -2 -25   2 2558.43 146.054  24
  -2 -25   2 2508.93 143.129   5
   2 -25  -2 2264.92 147.113  22
   2  25  -2 2449.46 145.584  19
   2  25  -1 15983.1 317.088  19
  -2 -25   1 15565.4 295.192  24
  -2 -25   1 16700.1 325.052   5
   2 -25  -1 16852.0 318.034  17
   2 -25  -1 17085.7 308.179  22
   2 -25   0 408.370 103.977  17
   2  25   0 272.289 103.748  14
  -2 -25   0 400.227 97.8011   5
   2 -25   0 455.207 106.568  24
   2  25   0 410.861 98.9870  19
   2 -25   1 5014.06 189.618  17
   2  25   1 5178.56 175.834  12
   2  25   1 4466.01 177.883  14
   2 -25   1 4758.14 182.339  24
  -2 -25  -1 4645.02 183.089   5
   2  25   1 4526.06 180.671  19
   2  25   2 7477.02 223.655  19
   2 -25   2 7649.52 225.971  17
   2  25   2 7463.12 221.900  14
   2 -25   2 7398.92 218.926  24
  -2 -25  -2 7427.68 226.989   5
   2  25   2 7949.73 218.419  12
   2  25   3 2263.98 138.611  14
   2 -25   3 2154.01 139.879  17
   2  25   3 2230.16 130.920  12
   2 -25   3 2180.61 135.696  24
   2 -25   4 4475.97 162.261  24
   2 -25   4 4329.83 168.352  17
   2  25   4 4715.42 171.799  14
   2  25   4 4401.71 162.482  12
   2 -25   5 696.504 90.6142  17
   2  25   5 707.148 80.0119  12
   2 -25   6 542.348 63.6325  17
   2  25   6 614.518 58.2941  12
   2 -25   6 634.600 62.7634  10
   2 -26  -5 14201.6 219.625  22
   2  26  -5 14342.3 223.687  19
  -2 -26   4 441.873 89.9371  24
   2 -26  -4 305.550 90.5800  22
   2  26  -4 467.837 90.0499  19
  -2  26   3 210.457 91.1541  14
  -2 -26   3 215.456 94.3978  24
   2 -26  -3 40.2930 87.7032  22
   2  26  -3 171.115 84.2423  19
  -2  26   2 657.547 104.725  14
   2  26  -2 642.797 101.203  19
   2 -26  -2 555.538 96.0183  22
  -2 -26   2 654.269 106.789  24
  -2 -26   1 1116.76 108.287   5
   2 -26  -1 1236.57 111.450  22
  -2  26   1 1513.28 132.449  14
  -2 -26   1 1126.58 112.393  24
   2 -26  -1 1127.04 117.548  17
   2  26  -1 1086.35 114.533  19
   2 -26   0 4017.57 173.036  17
  -2 -26   0 3822.66 174.318   5
   2  26   0 3958.52 167.512  14
   2 -26   0 3784.43 167.799  24
   2  26   0 3902.25 170.541  19
   2 -26   1 2411.43 145.232  17
   2  26   1 2467.95 131.039  12
   2  26   1 2286.09 142.290  14
   2 -26   1 2479.88 148.252  24
  -2 -26  -1 2272.31 146.264   5
   2  26   1 2295.78 139.597  19
   2 -26   2 1467.28 121.410  17
   2  26   2 1348.58 120.617  14
   2 -26   2 1340.94 118.136  24
  -2 -26  -2 1374.61 118.007   5
   2  26   2 1370.52 116.591  19
   2  26   2 1317.69 107.702  12
   2 -26   3 35.1430 87.4970  17
   2  26   3 5.10766 89.3446  14
   2  26   3 10.2600 73.3854  12
   2 -26   3 7.85533 81.5614  24
   2 -26   4 9182.79 219.822  17
   2  26   4 9883.50 220.413  14
   2 -26   4 10107.3 216.360  24
   2  26   4 9375.67 216.003  12
   2  26   5 507.791 71.9542  12
   2 -26   5 576.178 78.7877  17
  -2 -27   5 1530.57 82.7680  24
   2 -27  -5 1454.76 80.2708  22
   2  27  -5 1411.44 83.6229  19
   2 -27  -4 1503.53 104.384  22
  -2 -27   4 1564.55 103.753  24
  -2  27   3 1837.16 118.997  14
   2 -27  -3 1553.09 114.480  22
  -2 -27   3 1625.78 120.445  24
   2  27  -3 1810.66 118.599  19
  -2  27   2 786.441 104.896  14
   2 -27  -2 871.399 96.6283  22
  -2 -27   2 736.612 106.199  24
   2  27  -2 889.171 105.029  19
  -2  27   1 6743.16 207.528  14
   2  27  -1 6761.08 211.512  19
  -2 -27   1 6697.75 199.664  24
   2 -27  -1 7070.04 199.857  22
   2 -27  -1 7306.50 212.036  17
   2 -27   0 6453.13 202.379  17
   2 -27   0 6653.98 206.101  24
   2  27   0 7002.68 203.208  14
  -2 -27   0 6427.97 209.795   5
   2  27   0 5976.15 199.393  19
   2  27   1 5679.58 194.332  19
   2 -27   1 6188.43 199.809  17
   2  27   1 5822.65 194.047  14
   2 -27   1 5862.25 200.738  24
   2  27   1 6364.58 185.085  12
   2 -27   2 2946.29 150.905  17
   2 -27   2 2877.27 148.407  24
   2  27   2 2914.56 145.688  19
   2  27   2 2994.07 155.431  14
   2  27   2 3021.93 138.936  12
   2 -27   3 537.605 96.3808  17
   2  27   3 563.687 105.672  14
   2 -27   3 491.079 93.1223  24
   2  27   3 586.069 86.0133  12
   2 -27   4 1733.93 109.729  17
   2  27   4 1869.32 117.554  14
   2  27   4 1850.54 106.781  12
   2 -27   4 1989.67 112.343  24
   2 -27   5 858.548 80.3658  17
   2  27   5 841.376 72.3247  12
   2 -28  -5 1485.36 70.8991  22
   2  28  -5 1570.35 74.5255  19
   2 -28  -4 4155.14 130.163  22
  -2 -28   4 4032.67 133.561  24
   2  28  -4 4201.75 139.205  19
  -2 -28   3 1017.70 100.964  24
  -2  28   3 840.910 94.1374  14
   2  28  -3 1026.23 98.9921  19
   2 -28  -3 968.449 90.9161  22
  -2 -28   2 697.014 101.408  24
   2 -28  -2 604.219 88.6477  22
  -2  28   2 593.936 100.849  14
   2  28  -2 467.845 93.3905  19
   2 -28  -1 4405.95 165.056  17
  -2  28   1 3956.11 163.936  14
  -2 -28   1 4143.71 161.596  24
   2  28  -1 4137.08 166.309  19
   2 -28   0 3063.26 149.932  17
   2  28   0 2811.78 142.728  14
  -2  28   0 2963.52 151.280  14
   2 -28   0 2938.99 151.304  24
   2  28   0 2592.93 140.524  19
   2 -28   1 2621.04 144.060  17
   2  28   1 2685.14 145.290  14
   2 -28   1 2624.30 147.175  24
   2  28   1 2393.90 136.206  19
   2  28   2 690.322 97.6298  19
   2 -28   2 790.225 104.047  17
  -2  28  -2 911.305 109.050  14
   2  28   2 751.704 105.058  14
   2 -28   2 689.305 101.719  24
   2  28   2 634.205 84.2680  12
   2 -28   3 2498.49 129.238  17
   2  28   3 2517.89 133.428  14
   2 -28   3 2447.22 129.166  24
   2  28   3 2591.09 123.584  12
   2 -28   4 23159.0 295.670  17
   2  28   4 22992.6 290.527  12
   2 -28   5 617.049 63.9476  17
   2  28   5 673.374 61.1593  12
   2 -29  -4 10694.9 177.518  22
  -2 -29   4 10936.1 189.686  24
   2  29  -4 10578.0 187.048  19
  -2  29   3 10721.1 200.430  14
  -2 -29   3 9927.47 207.517  24
   2 -29  -3 10380.9 201.266  22
   2  29  -3 9456.03 206.738  19
  -2  29   2 51.4123 84.0367  14
   2  29  -2 33.3811 76.1137  19
  -2 -29   2 20.8583 75.2172  24
   2 -29  -2 44.8364 69.1111  22
  -2  29   1 2546.96 139.048  14
   2  29  -1 2562.19 134.129  19
  -2 -29   1 2813.20 134.042  24
   2 -29   0 6807.73 195.704  17
   2  29   0 6878.23 192.026  14
  -2  29   0 6253.41 193.487  14
   2  29   0 6266.45 192.715  19
   2  29   1 7885.69 209.620  14
  -2  29  -1 8067.66 208.591  14
   2 -29   1 7776.97 213.775  24
   2 -29   1 8149.43 211.002  17
   2  29   1 7521.82 206.189  19
   2  29   2 319.546 88.4930  14
  -2  29  -2 422.542 88.8164  14
   2 -29   2 326.289 86.9380  24
   2  29   2 288.276 69.9990  12
   2 -29   2 454.664 87.5216  17
   2  29   3 118.074 64.1630  12
   2 -29   3 104.716 74.6742  17
   2  29   3 140.026 79.1875  14
   2 -29   3 160.877 80.3256  24
   2 -29   4 1333.89 89.6308  17
   2  29   4 1545.53 97.3925  14
   2  29   4 1286.03 81.3016  12
  -2 -30   4 6553.97 137.301  24
   2 -30  -4 6617.05 123.915  22
   2  30  -4 6670.44 135.123  19
   2  30  -3 31.3153 62.3266  19
   2 -30  -3 59.2084 60.1432  22
  -2  30   3 54.2814 68.1320  14
  -2 -30   3 23.3956 71.4251  24
  -2  30   2 5590.80 165.352  14
  -2 -30   2 5290.62 160.754  24
   2  30  -2 5470.00 163.184  19
  -2  30   1 2269.39 130.791  14
  -2 -30   1 2400.08 122.393  24
   2  30  -1 2242.86 124.902  19
   2  30   0 7016.56 194.240  19
   2  30   0 7680.85 191.689  14
  -2  30   0 6730.56 190.451  14
   2 -30   0 7357.33 190.323  17
   2  30   1 409.290 92.7050  14
  -2  30  -1 448.078 90.7041  14
   2 -30   1 506.091 91.9558  24
   2 -30   1 738.597 92.6238  17
   2  30   1 515.226 88.8889  19
   2 -30   2 907.716 92.3833  17
   2  30   2 845.896 97.9861  14
  -2  30  -2 925.038 93.9458  14
   2 -30   2 895.229 101.538  24
   2  30   2 951.524 81.5483  12
   2 -30   3 6927.49 166.232  17
   2  30   3 6836.98 171.392  14
   2  30   3 6844.49 155.640  12
   2 -30   4 17069.3 209.020  17
   2  30   4 16821.3 202.767  12
   2  31  -3 4132.10 122.491  19
  -2 -31   3 4095.66 128.113  24
  -2  31   2 51.5967 76.1991  14
   2  31  -2 11.8241 64.6198  19
  -2 -31   2 40.7991 68.3186  24
  -2  31   1 589.774 92.4501  14
  -2 -31   1 550.482 82.3352  24
   2  31  -1 449.839 78.5282  19
   2 -31   0 1438.44 99.4826  17
   2  31   0 1455.42 104.787  14
  -2  31   0 1305.58 103.954  14
   2  31   0 1275.37 96.8990  19
   2 -31   1 134.374 71.8455  17
   2  31   1 78.7975 77.4082  14
  -2  31  -1 113.322 78.7496  14
   2  31   1 171.808 70.6393  19
   2 -31   2 6402.18 160.441  17
   2  31   2 6232.62 169.174  14
  -2  31  -2 6562.37 152.111  14
   2 -31   3 4244.58 122.099  17
   2  31   3 4094.29 130.643  14
   2  31   3 4044.07 110.801  12
  -2 -32   3 172.949 58.0360  24
   2  32  -3 136.964 53.9340  19
  -2  32   2 538.129 75.3828  14
  -2 -32   2 485.316 71.1952  24
   2  32  -2 456.695 68.2466  19
  -2  32   1 3536.19 130.141  14
  -2 -32   1 3778.71 121.333  24
   2  32  -1 3523.54 126.506  19
   2  32   0 2117.79 106.515  14
  -2  32   0 1850.23 106.324  14
   2  32   0 1858.69 103.678  19
   2 -32   1 55.3622 65.7699  17
   2  32   1 45.5365 72.2304  14
  -2  32  -1 40.0975 71.2905  14
   2 -32   2 1127.64 80.4853  17
   2  32   2 1008.63 88.8032  14
   2  32   3 1119.21 79.6134  14
   2 -32   3 999.507 68.7114  17
  -2  33   2 2586.01 96.7902  14
  -2 -33   2 2570.86 94.8008  24
   2  33  -2 2513.33 93.4422  19
  -2  33   1 267.629 74.6950  14
  -2 -33   1 245.084 61.4758  24
   2  33  -1 216.959 61.0465  19
  -2  33   0 4650.01 134.358  14
   2  33   0 4693.45 131.187  19
   2 -33   1 188.801 58.6845  17
   2  33   1 175.701 67.4332  14
  -2  33  -1 129.954 66.2592  14
   2  33   2 659.667 76.1360  14
   2 -33   2 687.588 62.9559  17
  -2  34   1 2735.59 97.6151  14
   2  34  -1 2659.50 91.6824  19
  -2  34   0 7403.42 146.191  14
   2  34   0 7461.36 143.159  19
   2  34   1 806.841 70.1149  14
  -2  34  -1 849.915 69.7861  14
   2  34   2 47.9737 52.4109  14
  -3   0   8 11621.4 179.683  23
  -3   0   7 113.330 83.1564  23
   3   0  -7 2711.04 143.294  20
   3   0  -6 48389.8 468.881  18
  -3   0   6 49193.7 525.321   7
  -3   0   6 48159.7 533.783  23
  -3   0   5 103.743 76.3750   7
  -3   0   5 12.9838 75.4040  23
  -3   0   4 28070.9 348.302   7
   3   0  -4 30018.4 523.825   1
   3   0  -3 33.3664 77.7403   1
  -3   0   3 56.6585 86.8528   3
   3   0  -2 68626.3 471.871   6
  -3   0   2 70998.0 665.029   3
   3   0  -1 306.183 60.0097   6
  -3   0   1 331.665 71.4205   3
   3   0   0 3428.56 111.753   6
  -3   0   0 3479.95 113.945   3
   3   0   1 80.4105 49.0076   4
   3   0   1 139.305 62.3689   6
   3   0   1 49.7380 102.735   2
   3   0   2 87338.9 449.999   4
   3   0   2 86565.9 529.559   6
   3   0   3 57.3427 50.9130   4
   3   0   3 3.18469 95.4698   2
   3   0   4 20082.9 456.499   2
   3   0   4 22137.6 304.633   4
   3   0   5 49.6354 146.432   2
   3   0   6 20273.4 343.957  10
   3   0   6 19427.8 338.480   9
   3   0   7 99.1913 101.711   9
   3   0   7 28.8258 95.5763  16
   3   0   8 87458.5 542.893  25
  -3  -1   8 68758.3 420.868  23
  -3   1   8 69168.7 413.141  23
   3   1  -7 2096.84 124.797  18
   3   1  -7 2637.87 153.333  20
  -3   1   7 719.906 99.8421  23
   3  -1  -7 3284.89 163.863  20
  -3  -1   7 771.143 100.441  23
  -3  -1   6 4148.20 176.629   7
  -3   1   6 4124.39 177.182   7
  -3   1   6 4247.35 176.811  23
  -3  -1   6 4077.51 175.229  23
  -3  -1   5 5826.16 190.760   7
  -3   1   5 5471.70 185.978   7
  -3   1   5 6077.37 194.564  23
  -3  -1   5 5908.66 192.781  23
  -3  -1   4 249.626 68.0310   7
  -3   1   4 270.366 69.5465   7
   3   1  -4 153.345 103.695   1
   3  -1  -4 116.152 93.1972   1
  -3   1   3 7056.98 158.243   7
   3   1  -3 7268.10 229.790   1
  -3  -1   3 6955.30 251.561   3
  -3   1   3 6888.07 254.759   3
   3  -1  -3 7289.58 229.195   1
   3   1  -2 17627.5 247.627   6
   3  -1  -2 17214.9 238.724   6
  -3  -1   2 17892.4 336.763   3
  -3   1   2 16969.2 333.470   3
   3   1  -1 953.775 79.6606   6
   3  -1  -1 866.859 76.9634   6
  -3  -1   1 834.227 85.1174   3
  -3   1   1 922.827 90.0855   3
   3   1   0 40903.1 334.545   6
   3  -1   0 41295.8 331.241   6
  -3  -1   0 41897.6 347.850   3
  -3   1   0 42231.2 382.467   3
   3   1   1 14253.1 208.206   6
   3  -1   1 14065.8 203.667   6
   3   1   1 14233.9 295.267   2
   3  -1   1 14858.6 185.166   4
   3  -1   1 14135.9 296.209   2
   3  -1   2 20852.3 384.170   2
   3  -1   2 22859.7 244.034   4
   3   1   2 23072.0 227.561   4
   3   1   2 20974.6 379.831   2
   3   1   2 22097.9 275.740   6
   3  -1   2 21060.2 266.482   6
   3  -1   3 1441.87 148.565   2
   3   1   3 1456.23 136.964   2
   3  -1   3 1367.97 84.8246   4
   3   1   3 1460.48 81.8442   4
   3  -1   4 951.458 85.9679   4
   3   1   4 885.103 85.1821   4
   3  -1   4 831.389 142.678   2
   3   1   4 766.681 144.874   2
   3   1   5 2922.59 232.127   2
   3  -1   5 3136.45 144.175   4
   3  -1   5 3146.93 228.523   2
   3   1   6 151193. 897.363  10
   3  -1   6 149778. 907.371  10
   3   1   6 148637. 897.891   9
   3  -1   7 13424.8 259.658  16
   3   1   7 13642.5 262.966  16
   3  -1   7 13628.1 256.893  10
   3   1   7 13011.9 255.762   9
   3  -1   8 7067.40 183.679  25
   3   1   8 7064.15 179.664  25
   3   2  -7 27248.8 329.445  18
  -3  -2   7 27978.7 384.098  23
   3   2  -6 50300.3 481.825  18
  -3  -2   6 49895.9 532.260   7
  -3   2   6 48406.6 527.273   7
  -3   2   6 48841.6 535.667  23
  -3   2   5 34.3507 79.8238  23
  -3  -2   5 125.537 84.4960   7
  -3   2   5-1.51065 74.1184   7
  -3  -2   5-4.41092 83.6340  23
  -3   2   4 116.500 64.3299   7
  -3   2   4 133.480 107.432   3
   3   2  -4 121.145 106.815   1
   3  -2  -4-21.6814 98.0124   1
  -3   2   3 4826.01 133.411   7
  -3   2   3 4599.51 213.458   3
   3  -2  -3 4953.91 195.106   1
  -3  -2   2 20683.3 362.974   3
  -3   2   2 21252.8 219.860   7
   3   2  -2 19619.4 264.007   6
   3  -2  -2 21471.3 262.244   6
  -3   2   2 19885.0 368.048   3
   3   2  -1 147936. 662.264   6
   3  -2  -1 156689. 643.552   6
  -3  -2   1 149597. 793.636   3
  -3   2   1 156063. 878.695   3
   3  -2   0 5481.69 180.119   0
   3   2   0 4907.49 128.972   6
   3  -2   0 5094.41 124.914   6
  -3  -2   0 5263.41 123.014   3
  -3   2   0 4998.64 148.138   3
   3   2   0 5087.35 184.342   2
   3  -2   0 5312.83 123.220   4
   3   2   1 30737.2 303.366   6
   3  -2   1 31948.6 295.030   6
  -3   2  -1 32195.7 326.034   3
   3  -2   1 31170.7 435.387   2
   3  -2   1 31831.1 274.929   4
   3   2   1 30396.2 417.561   2
   3  -2   2 69325.0 434.308   4
   3   2   2 71270.7 377.314   4
   3   2   2 67959.7 672.331   2
   3   2   2 65932.2 471.841   6
   3  -2   2 66078.2 458.765   6
   3  -2   2 65124.0 660.886   2
   3   2   3 7922.96 270.394   2
   3  -2   3 8068.10 170.090   4
   3   2   3 7970.39 156.251   4
   3  -2   3 7697.41 263.702   2
   3   2   4 1118.83 156.815   2
   3  -2   4 1065.82 89.8823   4
   3   2   4 1149.08 88.4970   4
   3  -2   4 1045.19 153.636   2
   3  -2   5 9914.76 358.039   2
   3   2   5 9546.07 354.946   2
   3  -2   5 9951.83 240.889   4
   3   2   6 5608.73 190.634  16
   3   2   6 5095.58 199.005  10
   3  -2   6 5001.41 194.340  10
   3  -2   6 5437.12 198.213   9
   3   2   6 4904.34 194.644   9
   3  -2   7 10536.2 233.822  16
   3   2   7 10508.1 233.712  16
   3  -2   7 10588.7 230.902  10
   3   2   7 9985.69 230.996   9
   3   2   8 25135.6 295.990  25
   3  -2   8 23831.0 298.001  25
   3   3  -7 19220.6 282.795  18
  -3  -3   7 19226.3 321.618  23
  -3   3   7 18651.5 306.331  23
   3  -3  -7 18281.3 280.092  20
  -3  -3   6 12228.1 276.557   7
  -3   3   6 12351.8 273.805   7
  -3   3   6 11743.6 271.252  23
  -3  -3   6 12218.1 280.559  23
  -3  -3   5 3983.43 163.342   7
  -3   3   5 3618.94 154.638   7
  -3  -3   5 3768.70 159.512  23
  -3   3   5 4173.49 171.621  23
  -3   3   4 8316.00 195.524   7
  -3   3   4 7988.46 309.842   3
   3  -3  -4 9073.03 301.028   1
   3   3  -4 9217.30 303.125   1
  -3   3   3 254.142 61.4107   7
   3   3  -3 269.450 88.4468   1
  -3   3   3 219.163 83.3638   3
   3  -3  -3 380.810 86.3953   1
  -3   3   2 10268.5 157.808   7
   3   3  -2 9825.43 198.102   6
  -3   3   2 9632.63 264.359   3
  -3  -3   2 9795.32 254.911   3
   3   3  -1 82985.8 504.981   6
  -3  -3   1 84355.2 595.218   3
   3  -3   0 24368.1 369.893   0
   3  -3   0 24461.1 245.960   6
   3  -3   0 23821.1 249.469   4
  -3   3   0 24496.1 322.083   3
   3   3   0 24425.7 357.522   2
  -3   3  -1 102219. 614.490   3
   3  -3   1 94752.1 760.286   2
   3   3   1 94007.8 530.487   6
   3  -3   1 100166. 509.171   6
   3  -3   1 98850.1 499.853   4
   3   3   1 95279.0 729.234   2
   3  -3   2 76.0706 52.3683   4
   3   3   2 187.619 66.6731   6
   3  -3   2 111.886 59.1189   6
   3   3   2 82.8341 84.9371   2
   3  -3   3 15357.1 237.068   4
   3   3   3 14778.1 366.494   2
   3  -3   3 15125.7 364.098   2
   3  -3   4 412.127 78.0636   4
   3   3   4 394.538 70.5247   4
   3   3   4 355.683 111.322   2
   3  -3   4 267.521 105.864   2
   3  -3   5 423.958 92.6450   4
   3  -3   5 166.651 169.982   2
   3   3   5 249.260 157.597   2
   3  -3   6 29597.8 412.402  10
   3   3   6 29661.7 404.664  10
   3   3   6 28800.3 409.848   9
   3  -3   7 1384.22 117.143  16
   3   3   7 1330.33 116.520  16
   3   3   7 1197.19 119.494   9
   3  -3   7 1279.52 119.705  10
  -3   4   7 718.716 97.0343  23
  -3  -4   7 681.010 99.5698  23
  -3  -4   6 15803.2 309.223   7
  -3  -4   6 16251.9 321.247  23
  -3   4   6 15751.7 309.532  23
  -3  -4   5 197.540 85.8952   7
  -3   4   5 231.307 87.1331   7
  -3  -4   5 549.457 99.8180  23
  -3   4   5 505.522 96.1296  23
  -3   4   4 341.828 77.0531   7
   3   4  -4 190.059 95.1022   1
  -3   4   4 220.974 101.585   3
  -3   4   3 50902.4 406.124   7
   3   4  -3 51960.9 607.500   1
  -3   4   2 11118.7 164.294   7
   3   4  -2 11114.0 207.625   6
   3  -4  -2 11058.4 190.108   6
   3   4  -2 11421.0 242.874   1
  -3   4   2 10672.5 282.966   3
   3   4  -1 3625.63 122.844   6
  -3   4   1 3478.04 155.071   3
   3  -4   0 32424.5 444.247   0
   3   4   0 29987.6 298.923   6
   3  -4   0 33417.6 280.885   6
   3  -4   0 31085.1 293.597   4
  -3   4   0 32550.8 388.519   3
   3   4   0 31450.7 399.403   2
   3   4   1 34979.2 447.223   2
  -3   4  -1 35764.9 392.518   3
   3   4   1 34515.4 327.560   6
   3  -4   1 34166.5 467.095   2
   3  -4   1 35054.9 310.201   4
   3  -4   2 545.274 107.085   2
   3   4   2 426.929 64.4428   6
   3  -4   2 392.284 62.6369   6
   3  -4   2 620.180 73.0626   4
   3   4   2 395.466 102.753   2
   3  -4   3 1672.57 94.2394   4
   3   4   3 1462.03 140.216   2
   3  -4   4 1266.02 99.9618   4
   3   4   4 1517.23 165.101   2
   3  -4   4 1163.75 167.290   2
   3   4   5 14.5859 91.6026   9
   3  -4   5 10.9970 73.4727   4
   3  -4   5 84.9176 93.5333  22
   3   4   5 23.8337 95.9499  10
   3  -4   5 44.2314 88.8254  10
   3  -4   6 7688.94 226.218  10
   3   4   6 8283.72 236.872  10
   3   4   6 7857.43 228.656   9
   3   4   7 246.358 101.370   9
   3  -4   7 207.727 98.5928  16
   3   4   7 159.936 86.3169  16
   3  -4   7 333.178 93.5521  10
   3   4   8 334.495 77.1438   9
  -3  -5   7 146.198 86.3384  23
  -3   5   7 149.651 78.3116  23
   3   5  -6 9715.11 248.935  18
  -3  -5   6 6664.79 211.908   7
   3   5  -6 9827.48 273.581   6
  -3   5   6 6875.37 212.041  23
  -3  -5   6 6164.00 207.569  23
   3  -5  -6 12252.3 254.610  20
  -3  -5   5 12239.7 266.820   7
  -3   5   5 12352.2 264.324   7
  -3   5   5 12438.7 272.675  23
  -3  -5   5 11934.4 266.779  23
  -3   5   4 2333.70 118.280   7
  -3   5   4 2243.95 186.469   3
   3   5  -4 2358.40 174.434   1
  -3   5   3 14383.6 222.207   7
   3   5  -3 14904.5 334.145   1
  -3   5   2 108088. 496.805   7
   3   5  -2 97568.5 600.645   6
   3  -5  -2 108319. 561.971   6
  -3  -5   2 108808. 515.669   5
  -3   5   2 99924.9 855.186   3
   3   5  -2 107425. 746.513   1
   3   5  -1 61056.8 443.553   6
  -3   5   1 61143.3 604.034   3
   3   5   0 22017.7 263.969   6
   3  -5   0 22989.0 232.957   6
   3   5   0 23079.7 338.030   2
   3  -5   0 22192.6 256.532   4
  -3   5   0 23596.1 347.519   3
   3   5   1 28410.9 403.539   2
  -3   5  -1 29662.7 378.779   3
   3   5   1 28780.4 304.441   6
   3  -5   1 29404.6 272.270   6
   3  -5   1 27424.0 427.413   2
   3  -5   1 27975.0 286.020   4
   3   5   2 12730.0 217.733   6
   3  -5   2 13283.2 202.628   6
   3   5   2 13715.1 318.449   2
  -3   5  -2 14460.7 281.615   3
   3  -5   2 12544.3 305.514   2
   3  -5   2 13583.9 220.669   4
   3  -5   3 19631.2 279.557   4
   3   5   3 19891.4 421.786   2
   3  -5   3 19606.3 406.753   2
   3   5   4 24686.4 521.295   2
   3  -5   4 25315.4 348.919   4
   3  -5   4 25218.4 503.632   2
   3  -5   5 544.767 99.5540  10
   3   5   5 455.447 104.516   9
   3   5   5 620.666 116.995  10
   3  -5   5 462.618 88.9505   4
   3  -5   5 534.419 104.707  22
   3   5   6 655.030 110.662   9
   3   5   6 455.238 101.257  16
   3  -5   6 469.504 105.455  10
   3   5   7 637.615 107.567   9
   3  -5   7 698.535 99.8408  16
   3   5   7 734.682 101.351  16
   3  -5   7 748.750 99.4531  10
   3  -5   8 9686.68 194.997  25
   3   5   8 10371.1 182.671  25
  -3   6   7 1207.31 100.373  23
  -3  -6   7 1196.02 110.231  23
   3   6  -6 21654.2 337.218  18
  -3  -6   6 19012.0 344.649  23
   3  -6  -6 21131.4 320.253  20
  -3   6   6 19172.9 338.446  23
  -3   6   5 1510.08 118.102  23
  -3  -6   5 1469.65 116.453  23
   3   6  -4 31.6560 104.221   1
  -3   6   4 25.8089 63.3453   7
  -3   6   4 25.5043 107.888   3
  -3   6   3 3428.94 118.250   7
  -3   6   3 3123.30 185.402   3
  -3   6   2 1661.92 79.0598   7
   3   6  -2 1655.94 103.742   6
   3  -6  -2 1617.45 89.0279   6
  -3   6   2 1569.83 131.174   3
   3   6  -2 1548.70 117.895   1
  -3  -6   2 1579.71 79.9177   5
   3   6  -1 263324. 3659.94   6
   3  -6  -1 285551. 3266.83   6
  -3   6   1 270803. 5187.11   3
  -3  -6   1 287375. 3165.35   5
   3   6   0 58650.1 525.890   2
   3   6   0 56384.8 418.712   6
   3  -6   0 58813.2 359.569   6
  -3   6   0 56900.3 562.402   3
   3  -6   0 55074.0 410.143   4
  -3  -6   0 58526.4 350.677   5
   3   6   1 14864.5 299.978   2
  -3   6  -1 15367.0 292.400   3
   3   6   1 14658.5 224.711   6
   3  -6   1 15813.2 199.518   6
  -3  -6  -1 16533.9 200.860   5
   3  -6   1 14081.0 212.705   4
   3   6   2 23519.3 416.794   2
   3   6   2 24364.8 299.116   6
   3  -6   2 22902.8 263.431   6
  -3   6  -2 25065.4 383.163   3
   3  -6   2 24966.8 300.569   4
   3  -6   2 23124.5 414.107   2
   3   6   3 1186.31 146.441   2
   3  -6   3 1195.03 92.7636   4
   3  -6   3 1199.40 146.140   2
   3  -6   4 18865.5 308.269   4
   3   6   4 18410.7 456.061   2
   3  -6   5 33940.4 446.010   4
   3  -6   5 35525.1 448.221  22
   3   6   5 35013.3 426.801  10
   3  -6   5 34138.1 427.983  10
   3   6   5 33932.5 430.508   9
   3   6   6 2524.13 141.767  16
   3  -6   6 2436.43 147.119  10
   3   6   6 2647.16 147.012   9
   3  -6   7 139.717 88.2762  16
   3   6   7 47.7602 78.5549  16
   3   6   7 5.87129 94.3820   9
   3  -6   7 73.0098 82.8474  10
   3  -6   8 1068.60 105.624  25
   3   6   8 1627.24 92.1546   9
  -3  -7   7 26.1001 77.5681  23
  -3   7   7 33.0853 71.6745  23
   3   7  -6 4606.77 186.401  18
  -3  -7   6 550.042 103.245  23
   3  -7  -6 6577.03 206.034  20
  -3   7   5 1921.32 128.802  23
  -3  -7   5 1763.55 128.140  23
  -3   7   4 31625.2 378.809   7
  -3   7   4 31033.3 603.677   3
  -3   7   3 4581.91 135.666   7
   3   7  -3 4948.74 167.609   6
  -3   7   2 56499.4 671.071   3
  -3  -7   2 55678.4 403.781   5
   3   7  -1 19744.6 266.205   6
  -3   7   1 19981.8 374.331   3
   3   7   0 367700. 4270.45   6
  -3   7   0 376272. 5983.60   3
  -3  -7   0 390596. 3794.93   5
   3  -7   0 367063. 4347.85   4
   3   7   0 396420. 5361.96   2
   3   7   1 172459. 986.000   2
   3   7   1 174813. 3006.96   6
  -3   7  -1 171569. 1012.24   3
   3   7   2 2972.00 174.109   2
   3   7   2 3267.37 123.561   6
  -3   7  -2 3309.47 159.924   3
   3  -7   2 3267.30 188.235   2
   3  -7   2 2914.08 117.962   4
   3   7   3 9101.46 301.125   2
   3  -7   3 8273.10 193.542   4
   3  -7   3 8962.58 291.566   2
   3  -7   4 2694.57 133.863   4
   3   7   4 2707.65 203.628   2
   3  -7   4 2699.11 204.185   2
   3  -7   5 194.816 81.9012   4
   3  -7   5 288.568 97.3008  22
   3   7   5 242.831 104.271   9
   3   7   6 2143.90 132.414  16
   3  -7   6 1903.02 136.254  10
   3   7   6 1830.65 135.827   9
   3  -7   7 444.456 87.2289  16
   3   7   7 691.669 92.4647  16
   3   7   7 418.307 101.505   9
   3  -7   7 497.041 92.1761  10
   3  -7   8 336.994 89.4128  25
   3   7   8 547.301 76.1115   9
  -3  -8   7 1321.76 107.679  23
  -3   8   7 1251.94 98.3219  23
  -3   8   6 605.670 94.7129  23
  -3  -8   6 520.706 95.8217  23
   3   8  -6 4140.02 182.602  18
   3  -8  -6 5332.43 194.450  20
  -3  -8   5 9767.55 249.297  23
  -3   8   5 9660.46 245.035  23
  -3   8   4 5428.94 272.774   3
   3   8  -4 6713.63 277.916   1
   3   8  -3 19797.0 316.786   6
  -3   8   3 20531.7 462.028   3
   3   8  -2 176827. 828.638   6
   3   8  -2 192173. 1107.01   1
  -3   8   2 177956. 1217.46   3
  -3  -8   2 189130. 759.920   5
   3   8  -1 79097.6 518.859   6
  -3   8   1 81848.5 762.398   3
  -3   8   0 491593. 7077.77   3
   3   8   0 482635. 4945.37   6
   3   8   1 32019.2 433.415   2
   3   8   1 31680.9 328.242   6
  -3   8  -1 31975.1 457.988   3
   3   8   2 3198.53 177.597   2
   3   8   2 3445.61 127.841   6
  -3   8  -2 3260.55 166.676   3
   3  -8   2 3213.11 181.356   2
   3  -8   2 3290.03 127.618   4
   3  -8   3 4174.12 144.759   4
   3   8   3 4422.22 218.235   2
   3  -8   3 4636.74 220.470   2
   3  -8   4 4305.70 164.005   4
   3   8   4 4720.97 247.635   2
   3   8   5 99.5122 94.7951   9
   3  -8   5 136.272 82.3168   4
   3  -8   5 27.7666 87.1813  22
   3  -8   6 177.527 95.3426  10
   3   8   6 146.690 86.7347  16
   3   8   6 122.486 91.1918   9
   3  -8   7 1043.21 104.435  16
   3   8   7 974.360 98.6857  16
   3  -8   7 931.246 101.387  10
   3   8   7 748.084 107.332   9
   3   8   8 156.801 68.5204   9
   3  -8   8 2.62501 82.6518  25
  -3   9   7 790.735 86.1220  23
  -3  -9   7 807.804 95.8084  23
   3   9  -6 7954.82 225.232  18
  -3  -9   6 5810.24 202.441  23
  -3   9   6 5584.88 190.375  23
   3  -9  -6 9023.55 222.715  20
   3   9  -5 10618.7 252.048  18
   3   9  -5 8159.42 245.816   6
  -3   9   5 5940.82 198.253  23
  -3  -9   5 5865.40 201.572  23
   3  -9  -5 9790.49 244.672  20
  -3   9   4 1811.61 175.381   3
   3   9  -4 1886.35 175.111   1
   3   9  -3 14944.0 277.361   6
  -3   9   3 14191.3 388.957   3
   3   9  -2 68108.6 524.338   6
   3   9  -2 68308.0 686.985   1
  -3  -9   2 67616.7 476.941   5
   3   9  -1 569.033 78.2005   6
  -3  -9   1 471.482 62.9807   5
  -3   9   1 434.890 88.1211   3
  -3  -9   0 239699. 3304.24   5
   3   9   0 233612. 3477.32   6
  -3   9   0 233334. 1268.24   3
   3  -9   0 231084. 3595.27   4
   3   9   1 47437.3 400.928   6
   3   9   1 46885.4 521.965   2
  -3  -9  -1 46630.3 382.758   5
  -3   9  -2 30619.0 479.698   3
   3   9   2 29947.1 478.285   2
   3   9   2 31146.0 343.623   6
   3   9   3 1263.93 153.860   2
   3  -9   3 1254.99 100.695   4
   3  -9   3 1581.91 167.982   2
   3  -9   4 6613.10 195.006   4
   3   9   4 6594.09 295.597   2
   3  -9   5 7093.91 219.330   4
   3  -9   5 7812.95 221.337  22
   3   9   5 7325.05 219.277   9
   3   9   6 29.2298 86.9434  16
   3   9   6 51.9433 93.7465   9
   3  -9   6 77.6982 89.7011  10
   3   9   7 1172.29 102.139  16
   3  -9   7 1064.64 101.417  10
   3   9   7 1102.81 114.037   9
   3   9   8 339.752 68.9448   9
   3  10  -7 3587.75 138.801  18
   3 -10  -7 3975.68 144.239  20
  -3  10   6 111.192 80.8591  23
  -3 -10   6 26.4069 81.1532  23
   3  10  -5 7292.50 218.997  18
   3  10  -5 5538.30 211.974   6
  -3  10   5 3300.30 156.034  23
  -3 -10   5 3113.55 154.662  23
   3 -10  -5 7836.67 207.809  20
   3  10  -4 15544.7 306.805   6
  -3  10   4 15069.2 435.429   3
   3  10  -4 14882.7 416.321   1
   3  10  -3 6469.32 194.455   6
   3  10  -3 6893.68 263.937   1
   3  10  -2 75011.0 554.234   6
  -3 -10   2 75894.1 524.332   5
   3  10  -1 294.165 68.4017   6
  -3 -10   1 179.278 56.2994   5
  -3  10   1 282.465 89.5022   3
   3  10   0 44453.7 386.798   6
  -3 -10   0 44093.8 374.392   5
  -3  10   0 43559.3 570.970   3
   3 -10   1 71.5406 66.3462   4
   3  10   1 242.527 70.0553   6
   3  10   1 30.6182 81.8071   2
  -3  10  -1 58.8075 84.0969   3
  -3 -10  -1 123.350 62.2129   5
   3  10   2 2990.59 177.057   2
  -3  10  -2 3282.89 179.518   3
   3  10   2 3320.47 127.637   6
   3 -10   2 3255.68 133.052   4
   3  10   3 1678.57 156.807   2
   3 -10   3 1497.74 106.456   4
   3 -10   4 4316.78 167.543   4
   3  10   4 4494.20 254.208   2
   3 -10   5 1909.29 135.058   4
   3 -10   5 1989.91 134.962  22
   3  10   5 1862.92 134.427   9
   3  10   6 97.9982 91.4837   9
   3  10   6 12.7274 82.3032  16
   3 -10   6 36.4112 88.6452  10
   3  10   7-10.0937 73.9954  16
   3 -10   7 59.2571 78.3880  10
   3  10   7 7.37680 90.5347   9
   3  11  -7 349.241 86.8681  18
  -3  11   7 81.6629 64.9463  23
   3  11  -6 3873.13 172.642  18
  -3  11   6 1508.05 118.000  23
  -3 -11   6 1340.79 123.471  23
   3 -11  -6 4090.21 176.626  20
  -3 -11   5 35.6252 83.8914  23
  -3  11   5 26.5179 74.0129  23
  -3  11   4 7980.52 327.657   3
   3  11  -4 8684.98 327.429   1
   3  11  -3 2879.55 142.688   6
   3  11  -3 2700.51 187.869   1
  -3  11   3 2316.00 185.274   3
  -3 -11   3 2475.62 120.894   5
   3  11  -2 2174.56 114.715   6
  -3  11   2 2142.04 161.185   3
  -3 -11   2 2140.60 106.276   5
   3  11  -1 6263.42 220.020   1
   3  11  -1 5762.21 155.635   6
  -3 -11   1 5815.60 150.757   5
   3  11   0 26749.4 305.226   6
  -3 -11   0 26338.6 301.968   5
   3 -11   0 26307.5 323.594   4
   3 -11   1 35319.3 377.751   4
   3  11   1 39958.5 375.306   6
  -3  11  -1 37237.5 551.649   3
  -3 -11  -1 38013.2 376.270   5
   3  11   2 22579.4 428.124   2
  -3 -11  -2 22089.2 306.874   5
  -3  11  -2 21436.4 435.674   3
   3 -11   2 21723.2 314.852   4
   3  11   3 12893.8 363.447   2
   3 -11   3 12455.9 251.926   4
   3 -11   4 1955.55 128.045   4
   3  11   4 2056.64 192.095   2
   3  11   5 97.9443 91.2682   9
   3 -11   5 148.898 83.2605   4
   3  11   6 65.4049 82.3480  16
   3  11   6 258.087 97.2756   9
   3 -11   6 141.309 92.3307  10
   3 -11   7 250.688 80.7737  17
   3  11   7 281.144 74.8708  16
   3  11   7 299.065 92.5672   9
   3 -11   7 305.635 81.5308  10
   3  12  -7 1171.63 100.517  18
   3 -12  -7 1378.66 100.644  20
   3  12  -6 4223.86 175.716  18
  -3  12   6 2884.49 141.106  23
   3 -12  -6 5231.87 176.364  20
  -3 -12   6 2586.04 144.687  23
   3  12  -5 5113.38 198.985  18
   3  12  -5 2718.24 162.277   6
  -3  12   5 2191.15 135.478  23
  -3 -12   5 2404.42 145.495  23
   3 -12  -5 4486.43 186.230  22
   3 -12  -5 6084.55 188.730  20
   3  12  -4 20736.2 330.780  18
   3  12  -4 21367.0 355.662   6
  -3  12   4 22337.4 354.734  12
   3 -12  -4 22253.7 342.129  22
   3 -12  -4 20301.3 307.172  20
  -3 -12   4 22053.6 351.353  23
   3  12  -3 9668.13 231.263   6
  -3  12   3 9642.34 343.383   3
  -3 -12   3 9941.28 224.029   5
  -3 -12   2 22949.1 315.571   5
   3  12  -2 22729.3 317.430   6
  -3  12   1 2435.00 166.813   3
   3  12  -1 2671.16 116.267   6
   3  12  -1 2685.00 160.757   1
   3  12   0 4635.79 136.540   6
  -3  12   0 4439.11 207.630   3
  -3 -12   0 4380.29 139.939   5
   3 -12   0 4245.68 143.090   4
   3 -12   1 164.993 61.1388   4
  -3  12  -1 129.958 90.5299   3
   3  12   1 180.092 60.8845   6
  -3 -12  -1 240.408 68.6491   5
   3  12   2 42284.7 581.127   2
   3  12   2 43640.6 410.244   6
  -3 -12  -2 41598.4 430.496   5
  -3  12  -2 40326.7 608.735   3
   3 -12   2 38564.7 429.453   4
   3  12   3 5990.78 261.403   2
   3 -12   3 5414.16 178.211   4
  -3  12  -3 5794.57 252.342   3
   3 -12   4 162.279 85.4959   4
   3  12   4 108.052 137.071   2
   3 -12   5 6120.87 206.684   4
   3  12   5 6016.01 204.205   9
   3  12   6 21.8541 90.2072   9
   3  12   6 7.04786 81.4046  16
   3 -12   6 34.6240 86.1295  10
   3 -12   7 9652.40 200.769  17
   3  12   7 9847.12 194.274  16
   3 -12   7 9547.74 206.212  25
   3 -12   7 9793.02 203.918  10
   3  12   7 9342.58 212.907   9
   3  13  -7 9220.23 186.632  18
   3 -13  -7 8610.75 176.742  20
   3 -13  -6 2488.55 137.627  20
   3  13  -6 1849.03 132.845  18
   3  13  -5 3868.92 185.071  18
   3  13  -5 2416.67 148.617   6
  -3 -13   5 2092.41 138.637  23
  -3  13   5 2092.49 136.120  23
   3 -13  -5 4422.56 185.717  22
   3 -13  -5 4655.40 177.960  20
   3  13  -4 3213.57 169.095  18
  -3 -13   4 1441.97 122.252  23
  -3  13   4 1447.62 116.907  12
   3  13  -4 1974.39 133.525   6
   3 -13  -4 3893.84 180.641  22
   3 -13  -4 3513.32 166.121  20
   3  13  -3 1815.46 168.175   1
   3  13  -3 1857.88 119.896   6
  -3  13   3 1688.89 161.076   3
  -3 -13   3 1928.32 113.592   5
   3  13  -2 1810.32 157.171   1
   3  13  -2 1962.60 111.763   6
  -3  13   2 1687.15 161.004   3
  -3 -13   2 1983.39 112.548   5
   3  13  -1 542.985 74.1594   6
  -3  13   1 522.810 109.581   3
  -3 -13   0 16106.3 257.201   5
  -3  13   0 15553.5 378.813   3
   3 -13   0 15650.5 263.080   4
  -3 -13  -1 6077.32 169.786   5
   3 -13   1 5548.51 164.707   4
   3  13   1 6290.70 157.559   6
  -3  13  -1 5348.95 235.072   3
   3 -13   2 15394.4 279.737   4
  -3 -13  -2 15609.7 276.166   5
  -3  13  -2 15394.9 391.874   3
   3 -13   3 61.0422 70.4556   4
   3  13   3 128.861 120.953   2
  -3  13  -3 118.835 101.151   3
   3  13   4 260.509 97.2995   9
   3 -13   4 18.9481 79.7633   4
   3  13   4 23.3484 99.8514  14
   3  13   4 82.3116 85.8688  12
   3  13   5 16280.9 311.595  12
   3  13   5 15827.9 308.545   9
   3  13   6 3017.36 143.512  16
   3  13   6 2447.93 147.058   9
   3 -13   6 2685.85 157.992  25
   3 -13   6 2703.73 144.543  10
   3 -13   7 8267.85 184.630  17
   3  13   7 8465.43 175.314  16
   3 -13   7 8309.27 185.970  25
   3 -13   7 8130.11 184.180  10
   3  13   7 7812.95 191.559   9
   3  14  -7 5554.40 146.821  18
  -3  14   7 5932.08 134.788  23
   3 -14  -7 5602.80 143.277  20
   3  14  -6 2971.12 150.653  18
   3 -14  -6 3576.27 148.761  20
   3  14  -5 7865.23 226.177  18
   3  14  -5 6790.74 215.121   6
  -3 -14   5 6214.82 210.233  23
  -3  14   5 6010.81 198.795  23
   3 -14  -5 8516.19 230.631  22
   3 -14  -5 7824.81 213.760  20
   3  14  -4 2405.50 155.174  18
  -3 -14   4 1591.61 120.786  23
   3  14  -4 2462.96 142.186   6
  -3  14   4 1528.43 118.884  12
   3 -14  -4 3145.92 162.601  20
   3 -14  -4 3797.03 180.614  22
   3  14  -3 12537.8 382.182   1
   3  14  -3 12528.3 264.435   6
  -3  14   3 11577.5 386.921   3
  -3 -14   3 12151.1 259.326   5
   3  14  -2 7527.16 282.055   1
   3  14  -2 7815.03 194.955   6
  -3  14   2 6993.31 286.861   3
  -3 -14   2 7319.72 193.994   5
   3  14  -1 5784.29 160.418   6
  -3  14   1 4700.94 234.730   3
   3 -14  -1 5124.36 170.744   4
   3  14  -1 5730.90 235.520   1
  -3 -14   0 8363.43 197.728   5
  -3  14   0 7786.57 281.100   3
   3 -14   0 8105.59 196.641   4
   3 -14   1 119.344 69.0725   4
  -3 -14  -1 113.463 68.7339   5
  -3  14  -1 105.764 98.5627   3
  -3 -14  -2 766.028 88.2960   5
  -3  14  -2 660.661 118.148   3
   3 -14   2 591.075 81.4731   4
   3  14   3 11947.2 358.253   2
  -3 -14  -3 11511.8 260.741   5
  -3  14  -3 10998.3 356.211   3
   3  14   4 10596.6 256.719  12
   3  14   4 10790.0 247.800   9
   3 -14   5 5608.54 202.575   4
   3  14   5 5635.90 195.496  12
   3  14   5 5519.93 196.376   9
   3 -14   6 2715.21 146.490  17
   3  14   6 3062.49 143.812  16
   3  14   6 3133.44 138.469  12
   3 -14   6 3178.06 151.533  10
   3  14   6 3120.33 149.956   9
   3 -14   7 16549.7 242.207  17
   3  14   7 16856.6 228.459  16
   3 -14   7 16388.1 244.108  10
   3  14   7 15994.9 250.484   9
   3  15  -7 12970.7 199.639  18
   3 -15  -7 12837.3 192.375  20
   3  15  -6 1513.79 121.277  18
  -3  15   6 1089.94 97.9918  23
   3 -15  -6 1526.38 112.339  20
   3 -15  -6 1173.52 114.114  22
   3  15  -5 6075.70 202.504  18
  -3  15   5 5225.33 186.613  23
   3 -15  -5 6557.74 196.104  20
   3 -15  -5 7353.41 219.863  22
   3  15  -4 2010.96 149.188  18
   3  15  -4 1646.00 123.716   6
  -3  15   4 1816.23 126.462  12
  -3 -15   4 1572.76 125.721  23
   3  15  -3 1377.75 166.842   1
   3  15  -3 1897.68 122.014   6
  -3  15   3 1856.50 176.966   3
  -3 -15   3 1677.88 118.292   5
   3  15  -2 14800.7 397.221   1
  -3 -15   2 14111.1 273.801   5
  -3  15   1 4071.20 227.199   3
  -3 -15   1 4214.25 152.899   5
   3 -15  -1 4214.82 156.439   4
  -3 -15   0 57484.6 513.400   5
   3 -15   0 56414.5 509.741   4
   3 -15   1 519.121 83.2315   4
  -3 -15  -1 511.432 77.9874   5
  -3  15  -1 434.286 113.835   3
  -3  15  -2 1755.38 158.881   3
  -3 -15  -2 2132.38 126.005   5
   3 -15   2 1892.72 119.474   4
   3 -15   3 2000.76 123.241   4
  -3  15  -3 1887.35 168.763   3
  -3 -15  -3 2121.86 134.819   5
   3 -15   4 858.772 110.410   4
   3 -15   4 826.508 110.127  17
   3  15   4 1029.67 121.285  14
  -3 -15  -4 1131.40 115.544   5
   3  15   4 858.397 112.188   9
   3  15   4 743.079 105.295  12
   3 -15   5 16856.1 321.066  17
   3 -15   5 16637.9 320.388   4
   3  15   5 16824.4 318.688  12
   3  15   5 16814.8 314.066   9
   3 -15   6 1579.97 121.856  17
   3  15   6 2136.50 123.448  16
   3  15   6 1737.69 122.855   9
   3  15   6 1898.30 116.802  12
   3 -15   6 2028.53 128.852  10
   3 -15   7 2745.74 115.021  10
   3 -15   7 2781.17 113.470  17
   3  15   7 2707.85 123.486   9
   3 -16  -7 7314.56 136.403  20
   3  16  -7 7203.75 144.338  18
   3  16  -6 117.895 85.9707  18
   3 -16  -6 163.127 85.6401  22
  -3  16   6 21.7812 67.2464  23
   3 -16  -6 153.735 86.3719  20
   3  16  -5 1269.88 125.125  18
   3 -16  -5 1344.41 118.612  20
   3 -16  -5 1267.20 139.494  22
  -3  16   4 2172.51 134.140  12
   3  16  -4 2327.89 150.064  18
   3 -16  -4 2665.18 154.573  20
  -3 -16   3 3734.58 162.534   5
   3 -16  -3 5118.68 192.512  22
  -3  16   2 296.385 117.422   3
  -3 -16   2 317.618 77.7493   5
   3  16  -2 471.783 129.383   1
  -3 -16   1 7360.46 200.288   5
  -3  16   1 7775.74 307.674   3
   3 -16  -1 7566.97 201.658   4
  -3 -16   0 21647.0 329.377   5
  -3  16   0 21640.2 486.128   3
   3 -16   0 21364.7 322.790   4
   3 -16   1-1.52531 64.4868   4
  -3  16  -1 216.666 102.406   3
  -3 -16  -1 284.461 83.4635   5
   3 -16   2 15932.8 296.142   4
  -3  16  -2 16067.0 432.276   3
  -3 -16  -2 17006.2 310.503   5
   3 -16   3 596.231 91.4690   4
  -3  16  -3 487.474 141.363   3
  -3 -16  -3 474.549 88.5902   5
   3 -16   4 4220.76 181.999  17
   3  16   4 4664.02 182.660  14
  -3 -16  -4 4358.38 183.179   5
   3  16   4 4407.11 177.936  12
   3  16   4 4637.69 179.779   9
   3 -16   4 4077.66 172.933   4
   3  16   5 228.563 97.7585   9
   3 -16   5 241.072 96.8474  17
   3  16   5 324.315 89.7644  12
   3 -16   6 4884.52 171.174  17
   3  16   6 4908.51 160.035  16
   3  16   6 4924.04 163.859  12
   3 -16   6 4878.32 168.478  10
   3  16   6 5035.09 170.227   9
   3 -16   7 14804.5 211.615  17
   3 -16   7 14805.1 215.780  10
   3  16   7 14775.1 221.032   9
   3  17  -6 3629.50 139.948  18
  -3  17   6 3771.98 137.082  23
   3 -17  -6 3577.96 138.353  20
   3 -17  -6 3936.16 145.548  22
   3  17  -5 9050.51 230.529  18
  -3  17   5 9082.31 230.636  23
   3 -17  -5 9565.22 223.180  20
   3 -17  -5 9784.91 238.799  22
  -3  17   4 16721.3 306.402  12
   3 -17  -4 16353.1 292.048  20
   3 -17  -4 16920.8 313.453  22
   3 -17  -3 4813.22 186.647  20
  -3 -17   3 4647.10 181.937   5
   3  17  -3 4860.83 187.852  18
  -3  17   2 4925.12 267.235   3
  -3 -17   2 4862.21 175.720   5
  -3 -17   1 4765.69 169.911   5
  -3  17   1 4742.22 247.057   3
   3 -17  -1 4864.90 169.689   4
  -3 -17   0 1206.26 101.791   5
  -3  17   0 1263.24 153.912   3
   3 -17   0 1289.48 105.623   4
  -3 -17  -1 5850.14 188.428   5
  -3  17  -1 5682.10 266.970   3
   3 -17   1 6223.66 188.666   4
   3 -17   2 22908.4 356.813   4
  -3 -17  -2 23444.3 370.578   5
  -3  17  -2 22517.7 518.380   3
   3 -17   3 1164.63 110.038   4
   3 -17   3 1480.15 133.958  17
   3  17   3 1247.40 117.571  12
   3  17   3 1325.42 125.112  14
  -3 -17  -3 1354.38 121.089   5
   3 -17   4 4285.07 184.851  17
   3 -17   4 4169.50 171.482   4
   3  17   4 4450.15 182.519  14
  -3 -17  -4 4564.67 185.127   5
   3  17   4 4297.40 178.808  12
   3  17   4 4927.39 180.339   9
   3  17   5 197.469 94.0939   9
   3 -17   5 126.657 94.4692  17
   3  17   5 141.109 81.6014  12
   3 -17   6 736.038 96.8431  10
   3 -17   6 659.036 94.5400  17
   3  17   6 720.860 90.2071  16
   3  17   6 700.098 87.7811  12
   3  17   6 848.149 99.8829   9
   3 -17   7 5321.11 129.904  17
   3 -17   7 5108.89 128.669  10
   3  17   7 4991.65 131.509   9
   3 -18  -6 175.023 80.1600  22
   3  18  -6 162.101 78.8568  18
  -3  18   6 304.505 71.4358  23
   3 -18  -6 102.822 84.6212  20
  -3  18   5 91.5196 76.4100  23
   3  18  -5 85.7327 94.7946  18
   3 -18  -5 0.43138 95.8547  20
   3  18  -4 799.327 117.666  18
   3 -18  -4 308.371 108.798  20
   3  18  -3 302.275 112.048  18
  -3 -18   3 374.433 96.0877   5
  -3  18   2 83878.1 1015.17   3
  -3 -18   2 86006.4 697.992   5
   3 -18  -2 85213.3 682.614   4
  -3 -18   1 3240.45 148.410   5
  -3  18   1 2975.46 210.093   3
   3 -18  -1 3366.74 146.744   4
   3 -18   0 30410.9 397.400   4
  -3 -18   0 30080.5 407.465   5
  -3 -18  -1 11874.2 264.395   5
   3 -18   1 12430.6 263.645   4
   3 -18   2 4241.34 169.766   4
  -3  18  -2 4221.18 254.665   3
  -3 -18  -2 4134.86 173.734   5
   3 -18   3 1231.41 108.222   4
   3 -18   3 1350.11 129.794  17
  -3 -18  -3 1356.64 122.060   5
   3  18   3 1498.27 132.365  14
   3 -18   3 1306.73 117.334  24
   3  18   3 1378.93 118.795  12
   3 -18   4 29.8939 94.4616  17
   3 -18   4 33.8117 74.3330   4
   3  18   4 107.726 86.6774  12
  -3 -18  -4 31.9050 91.5298   5
   3 -18   5 12077.3 272.825  17
   3  18   5 12835.5 275.049  12
   3  18   6 76.2514 80.9249   9
   3 -18   6 68.2502 81.2268  17
   3  18   6 78.1663 71.9452  16
   3  18   6 72.9898 65.8219  12
   3 -18   6 46.8373 77.2581  10
   3 -18   7 758.742 68.6254  10
   3  18   7 633.922 73.7125   9
   3 -19  -6 4447.64 124.727  20
   3 -19  -6 4423.40 139.109  22
  -3  19   6 4525.40 131.983  23
   3  19  -6 4176.43 136.443  18
   3  19  -5 483.006 99.4354  18
  -3  19   5 597.455 88.8455  23
   3 -19  -5 314.396 96.6317  20
   3  19  -4 154.017 96.9914  18
   3 -19  -4 842.546 121.044  22
   3  19  -3 31080.1 406.196  18
  -3 -19   3 30961.3 433.062   5
   3 -19  -3 30425.5 418.624  22
   3 -19  -2 80286.6 680.896  17
   3 -19  -2 81623.8 671.525   4
  -3 -19   2 78330.8 676.496   5
   3  19  -2 84034.4 693.283  19
   3 -19  -2 77106.5 660.540  22
  -3 -19   1 2660.27 141.043   5
   3 -19  -1 2671.08 139.479   4
  -3  19   0 25994.5 562.596   3
  -3 -19   0 27276.3 400.993   5
   3 -19   0 27036.5 382.143   4
  -3  19  -1 8504.24 335.000   3
  -3 -19  -1 7971.37 227.162   5
   3 -19   1 8846.76 229.636   4
   3 -19   2 1001.06 103.048   4
   3 -19   2 1032.66 118.249  17
   3  19   2 1022.50 111.923  14
  -3 -19  -2 1005.37 111.559   5
   3 -19   2 1043.60 113.771  24
   3  19   2 1027.80 117.139  19
   3  19   2 1105.49 108.741  12
   3 -19   3 12.0608 94.0896  17
   3 -19   3 7.50028 77.3591   4
   3  19   3 97.9314 98.9693  14
  -3 -19  -3-1.53893 76.7337   5
   3 -19   3 296.495 98.2666  24
   3  19   3 17.5193 80.4377  12
   3 -19   4 2660.44 152.550  17
   3 -19   4 3109.05 151.502   4
   3  19   4 3096.66 159.762  14
   3  19   4 2688.46 153.891  12
  -3 -19  -4 2918.54 154.478   5
   3 -19   5 1240.09 114.417  17
   3  19   5 1227.52 110.082  12
   3  19   5 993.843 106.217   9
   3 -19   6 3971.27 144.060  17
   3  19   6 4165.52 135.066  16
   3 -19   6 4199.77 146.260  10
   3  19   6 3669.28 133.008  12
   3  19   6 3721.78 138.993   9
  -3  20   6 2014.86 91.1451  23
   3 -20  -6 1881.14 95.1048  22
   3  20  -6 1767.67 99.8604  19
   3  20  -6 1945.91 95.2056  18
   3  20  -5 4294.68 156.226  18
  -3  20   5 4616.39 156.899  23
   3 -20  -5 4128.39 161.717  22
   3  20  -4 2395.87 143.010  18
   3 -20  -4 3235.98 161.381  22
  -3 -20   3 6741.21 215.137   5
   3 -20  -3 6742.56 219.347  22
   3  20  -3 6516.98 218.318  19
   3 -20  -2 21913.7 365.134  22
   3 -20  -2 23078.4 379.220  17
  -3 -20   2 21418.9 365.516   5
   3 -20  -2 23363.7 362.351   4
   3  20  -2 22708.6 378.158  19
   3 -20  -1 59101.6 587.781  17
   3 -20  -1 59229.5 561.568   4
  -3 -20   1 56959.7 578.620   5
   3 -20  -1 60825.5 575.447  22
   3  20  -1 62589.1 593.092  19
  -3 -20   0 89676.4 728.043   5
  -3  20   0 89597.7 1047.49   3
   3 -20   1 30609.1 430.413  17
   3  20   1 30332.2 396.263  14
   3 -20   1 31167.7 416.478  24
  -3 -20  -1 30594.4 431.043   5
   3  20   1 31315.3 418.583  19
   3  20   1 31824.0 423.833  12
   3 -20   1 32036.3 423.336   4
   3 -20   2 5447.57 185.857   4
   3 -20   2 4900.93 192.870  17
   3  20   2 4791.65 189.530  19
   3  20   2 4809.15 186.625  14
   3 -20   2 5081.53 188.670  24
   3  20   2 4857.66 185.095  12
  -3 -20  -2 4887.88 187.723   5
   3 -20   3 33764.2 437.161   4
   3 -20   3 33435.8 453.540  17
  -3 -20  -3 34016.2 464.852   5
   3  20   3 34377.0 459.119  12
   3  20   3 33720.0 439.228  14
   3  20   4 6665.78 212.252  14
   3  20   4 6342.02 210.479  12
   3 -20   4 6142.41 209.090  17
   3 -20   5 1177.93 114.048  17
   3  20   5 1193.13 105.077  12
   3  20   5 1472.40 109.680   9
   3  20   6 411.068 83.7753   9
   3 -20   6 586.188 83.7243  17
   3  20   6 601.986 79.0938  16
   3  20   6 417.365 73.6593  12
   3 -20   6 536.503 83.7111  10
   3 -21  -6 1835.10 86.7458  22
   3  21  -6 1878.95 96.0875  19
   3  21  -6 1812.78 85.2550  18
  -3 -21   5 3182.07 137.151  24
   3 -21  -5 2894.31 139.211  22
  -3  21   5 3345.84 133.795  23
   3  21  -5 3049.99 138.675  19
   3  21  -5 3066.43 130.043  18
   3 -21  -4 7763.75 220.050  22
   3  21  -4 7271.69 216.319  19
   3  21  -4 7468.61 206.129  18
  -3 -21   3 92577.0 738.294   5
   3  21  -3 91087.6 738.370  19
  -3 -21   2 25047.4 393.896   5
   3 -21  -2 26155.6 379.142   4
   3  21  -2 26064.4 401.242  19
   3 -21  -1 8465.03 251.377  17
   3 -21  -1 8634.35 238.165  22
  -3 -21   1 8139.86 236.321   5
   3  21  -1 8870.49 246.598  19
   3 -21  -1 8636.92 234.225   4
   3 -21   0 187732. 1043.38  17
   3  21   0 192815. 947.992  14
   3 -21   0 194302. 1013.88  22
  -3 -21   0 182518. 1050.89   5
   3  21   0 192186. 1014.20  12
   3  21   0 188453. 1024.29  19
   3 -21   0 188032. 992.106   4
   3 -21   1 179359. 1023.36  17
   3  21   1 177354. 947.046  14
   3 -21   1 175791. 984.675  24
  -3 -21  -1 178379. 1031.28   5
   3  21   1 177486. 1006.21  12
   3 -21   1 188157. 979.618  22
   3  21   1 180116. 1001.57  19
   3 -21   1 192286. 1028.58   4
   3 -21   2 23665.2 363.963   4
   3 -21   2 22476.3 374.540  17
   3  21   2 23352.0 361.312  14
   3 -21   2 23178.8 367.209  24
  -3 -21  -2 22833.4 380.380   5
   3  21   2 23902.6 378.758  12
   3  21   2 22635.4 368.464  19
   3 -21   3 21723.6 346.437   4
   3 -21   3 20341.2 359.172  17
   3  21   3 19699.9 344.116  14
  -3 -21  -3 20646.9 361.718   5
   3 -21   3 22629.0 354.430  24
   3  21   3 21006.5 360.394  12
   3  21   4 87.7148 95.0031  14
   3  21   4-13.0695 79.0744  12
   3 -21   4 41.4356 90.6899  17
   3 -21   5 112.564 82.3206  17
   3  21   5 30.0570 70.1011  12
   3  21   6 129.503 60.5660  16
   3 -21   6 166.921 70.7412  10
   3  21   6 226.262 65.0864  12
   3 -21   6 199.554 70.6976  17
   3  21   6 33.6346 75.4415   9
   3 -22  -6 9626.56 151.542  22
   3  22  -6 9749.40 161.803  19
   3 -22  -5 78.6755 79.9189  22
  -3 -22   5 164.267 75.7590  24
   3  22  -5 215.966 72.9652  18
  -3  22   5 169.445 67.0426  23
   3  22  -5 219.017 76.7209  19
   3 -22  -4 6888.13 206.104  22
   3  22  -4 7346.74 211.430  19
  -3 -22   3 27647.9 405.265   5
   3  22  -3 27618.3 408.184  19
  -3 -22   2 21089.4 362.096   5
   3  22  -2 21067.3 361.078  19
   3 -22  -1 319734. 1367.36  17
   3 -22  -1 318294. 1325.81  22
  -3 -22   1 316628. 1375.64   5
   3  22  -1 317866. 1352.43  19
   3 -22   0 116201. 828.908  17
   3  22   0 119723. 759.497  14
  -3 -22   0 115396. 840.638   5
   3  22   0 115913. 795.753  12
   3 -22   0 116112. 797.620  22
   3 -22   0 118795. 785.846   4
   3  22   0 114737. 808.978  19
   3 -22   1 33028.9 452.100  17
   3  22   1 32432.3 422.089  14
   3 -22   1 32471.9 432.969  24
  -3 -22  -1 33937.7 460.050   5
   3  22   1 33876.3 442.279  12
   3 -22   1 34801.0 431.995  22
   3  22   1 33397.8 443.762  19
   3 -22   1 34471.5 438.042   4
   3 -22   2 16877.0 306.964   4
   3 -22   2 16557.7 328.701  17
   3  22   2 16200.1 309.836  14
   3 -22   2 16097.4 313.624  24
  -3 -22  -2 16149.4 323.494   5
   3  22   2 16372.8 319.156  12
   3  22   2 15490.3 310.952  19
   3 -22   3 8095.98 216.310   4
   3 -22   3 7709.95 231.844  17
   3  22   3 8040.71 228.430  14
   3 -22   3 8225.01 225.166  24
   3  22   3 8716.04 239.136  12
  -3 -22  -3 8044.21 233.982   5
   3 -22   4 5455.95 190.908  17
   3  22   4 5568.37 191.284  14
   3  22   4 5436.00 190.744  12
   3 -22   5 4349.96 158.593  17
   3  22   5 4493.67 156.832  12
   3  22   6 3865.47 116.174  12
   3 -22   6 3908.74 121.394  17
   3 -22   6 3898.68 122.895  10
  -3  23   5 6849.49 161.338  23
  -3 -23   5 6716.37 164.756  24
   3 -23  -5 6330.05 167.820  22
   3  23  -5 6540.40 169.826  19
   3 -23  -4 3468.86 152.213  22
   3  23  -4 3418.57 152.127  19
   3  23  -3 68.2852 89.5250  19
   3 -23  -3 22.3873 89.4824  22
  -3 -23   2 19327.1 343.904   5
   3 -23  -2 18225.1 329.810  22
   3  23  -2 18905.7 342.734  19
   3  23  -1 562.418 95.3378  12
   3 -23  -1 270.849 101.674  17
  -3 -23   1 241.036 94.6546   5
   3  23  -1 297.444 96.5165  19
   3 -23  -1 287.042 95.4414  22
   3 -23   0 58907.3 567.390  22
   3  23   0 61751.7 554.110  14
   3  23   0 57010.4 578.847  19
   3  23   0 59528.6 570.954  12
  -3 -23   0 56219.9 588.394   5
   3 -23   1 63124.4 622.377  17
   3  23   1 62038.6 577.658  14
   3 -23   1 66840.9 619.024  24
  -3 -23  -1 66058.6 636.709   5
   3  23   1 64791.4 605.718  12
   3  23   1 63521.9 609.368  19
   3 -23   2 47.9499 98.6897  17
   3  23   2 160.726 94.7782  14
  -3 -23  -2 99.7091 91.7988   5
   3 -23   2 71.2577 97.0358  24
   3  23   2 116.571 77.6369  12
   3  23   2 106.455 91.4751  19
   3 -23   3 4581.74 181.322  17
   3  23   3 4370.72 178.656  14
   3  23   3 4398.45 175.944  12
   3 -23   3 4365.82 169.878  24
   3 -23   4 17.9643 81.6098  17
   3  23   4 143.883 92.3737  14
   3  23   4 103.732 77.0213  12
   3 -23   5 162.147 80.4517  17
   3  23   5 118.945 66.4762  12
   3 -23   6 714.785 70.4877  17
   3  23   6 705.985 62.6284  12
   3 -23   6 657.748 67.6565  10
   3  24  -5 119.333 65.6774  19
  -3 -24   5 134.862 69.3882  24
  -3  24   5 128.160 57.1212  23
   3 -24  -5 131.332 64.9384  22
  -3 -24   4 2697.77 132.523  24
   3 -24  -4 2547.98 132.088  22
   3  24  -4 2874.93 139.340  19
   3  24  -3 13087.7 276.010  19
   3 -24  -3 12757.1 266.945  22
  -3 -24   2 5408.82 192.828   5
   3 -24  -2 5031.84 182.670  22
   3  24  -2 5165.28 187.946  19
   3 -24  -1 188.738 97.6310  17
   3  24  -1 256.133 78.9600  12
  -3 -24   1 402.323 90.3808   5
   3 -24  -1 387.294 94.2425  22
   3  24  -1 171.759 91.2272  19
  -3 -24   0 5645.91 202.993   5
   3 -24   0 5984.53 205.717  17
   3  24   0 6195.07 196.323  14
   3  24   0 5866.28 190.197  12
   3 -24   0 5941.70 195.842  22
   3  24   0 5827.09 199.877  19
   3 -24   1 4801.59 189.164  17
   3  24   1 5025.61 185.079  14
   3 -24   1 4697.82 182.858  24
  -3 -24  -1 4972.64 193.561   5
   3  24   1 4962.99 181.482  12
   3  24   1 4882.93 186.421  19
   3 -24   2 5933.70 202.215  17
   3  24   2 5281.51 189.830  14
   3 -24   2 5648.66 195.050  24
  -3 -24  -2 5381.57 191.477   5
   3  24   2 5284.98 186.335  12
   3  24   2 5340.96 192.527  19
   3 -24   3 882.493 114.503  17
   3  24   3 979.356 114.457  14
   3 -24   3 1041.96 109.475  24
   3  24   3 1015.19 106.135  12
   3 -24   4 7526.38 207.731  17
   3  24   4 8062.23 207.232  14
   3  24   4 7635.15 205.104  12
   3 -24   5 7022.59 174.541  17
   3  24   5 7215.75 172.402  12
   3  25  -5-17.1398 59.6196  19
  -3 -25   5 38.6309 62.2715  24
  -3  25   5 2.19336 49.3990  23
   3 -25  -5 43.3598 56.6547  22
   3 -25  -4 12260.7 231.874  22
  -3 -25   4 12644.3 236.240  24
   3  25  -4 12933.8 244.617  19
  -3 -25   3 6301.24 193.930  24
   3 -25  -3 6479.84 189.880  22
   3  25  -3 6740.17 198.308  19
  -3  25   2 3160.14 154.599  14
  -3 -25   2 2931.48 144.605  24
   3 -25  -2 2900.91 144.312  22
   3  25  -2 3075.40 155.825  19
   3 -25  -1 12687.6 279.637  17
  -3 -25   1 13526.9 292.650   5
   3  25  -1 12724.0 279.053  19
   3 -25  -1 12939.3 271.779  22
  -3 -25   1 12996.0 267.692  24
   3  25   0 865.415 104.064  19
   3 -25   0 1006.05 112.138  17
   3 -25   0 995.562 108.746  22
   3  25   0 1320.83 117.953  14
  -3 -25   0 975.147 113.466   5
   3  25   0 1055.21 100.034  12
   3 -25   1 1205.48 120.653  17
   3  25   1 1110.73 111.440  19
   3  25   1 1248.74 122.308  14
  -3 -25  -1 997.065 115.076   5
   3  25   1 1029.99 105.115  12
   3 -25   2 18882.4 333.544  17
   3  25   2 19366.7 330.763  12
   3  25   2 18359.7 321.737  14
   3 -25   2 18128.5 321.053  24
   3  25   2 18283.3 324.583  19
   3 -25   3 3630.02 159.279  17
   3  25   3 3862.26 166.739  14
   3  25   3 3613.92 154.802  12
   3 -25   4 9.96877 81.4979  17
   3  25   4 44.9214 85.9825  14
   3  25   4 31.2509 67.1984  12
   3 -25   5 401.750 71.8590  17
   3  25   5 414.136 66.2228  12
  -3 -26   5 2640.32 90.1779  24
   3 -26  -5 2498.28 89.4205  22
   3  26  -5 2618.69 91.6738  19
   3 -26  -4 265.412 69.7975  22
  -3 -26   4 279.196 81.7253  24
   3  26  -4 273.496 72.8615  19
  -3 -26   3 1971.35 122.264  24
   3 -26  -3 2223.34 120.312  22
   3  26  -3 2112.18 124.959  19
  -3  26   2 5672.39 184.138  14
  -3 -26   2 5400.01 180.544  24
   3  26  -2 5680.32 187.855  19
   3 -26  -2 5401.90 178.409  22
   3 -26  -1 1553.80 123.509  17
  -3 -26   1 1166.18 110.585  24
   3 -26  -1 1304.84 112.615  22
   3  26  -1 1168.59 113.622  19
   3 -26   0 138.027 86.3268  17
   3  26   0 59.4879 88.7500  14
   3  26   0 52.2349 72.7485  12
   3 -26   0 360.144 87.0146  22
   3  26   0 69.3761 79.8445  19
   3 -26   1 9253.24 242.241  17
   3  26   1 9863.41 238.685  14
   3  26   1 9620.76 232.153  12
   3  26   1 9569.35 240.716  19
   3 -26   2 3139.80 154.850  17
   3  26   2 3075.72 154.905  14
   3  26   2 3464.94 149.387  12
   3  26   2 3196.44 152.001  19
   3 -26   3 19286.0 312.947  17
   3  26   3 19620.9 316.167  14
   3  26   3 19671.3 314.520  12
   3 -26   4 4724.67 155.032  17
   3  26   4 4861.71 157.366  14
   3  26   4 4611.35 149.262  12
   3 -26   5 1027.92 80.2359  17
   3  26   5 1013.99 74.2737  12
   3  27  -4 2851.50 114.349  19
  -3 -27   4 2703.61 112.279  24
   3 -27  -4 2800.21 109.843  22
  -3 -27   3 1497.07 105.791  24
   3 -27  -3 1488.20 102.125  22
   3  27  -3 1594.07 107.981  19
  -3  27   2 273.015 90.6620  14
  -3 -27   2 82.1812 82.3611  24
   3 -27  -2 13.2205 71.6384  22
   3  27  -2 91.5645 77.1213  19
   3 -27  -1 1389.94 114.768  17
   3  27  -1 1319.51 111.414  19
  -3 -27   1 1477.58 113.021  24
   3 -27  -1 1484.18 109.948  22
   3 -27   0 176.440 92.0338  17
   3  27   0 233.613 89.3281  14
   3  27   0 166.783 73.3154  12
   3 -27   0 325.388 82.6250  22
   3 -27   1 2004.28 129.741  17
   3  27   1 2020.73 131.201  14
   3  27   1 2086.49 120.079  12
   3  27   1 2060.38 130.774  19
   3 -27   2 43.9330 81.4301  17
   3  27   2 12.1111 88.8552  14
   3  27   2 82.4998 71.5557  12
   3 -27   3 3155.86 142.347  17
   3  27   3 3244.87 142.428  14
   3  27   3 3136.87 133.353  12
   3 -27   4 63.9990 70.1915  17
   3  27   4 38.3693 60.4007  12
   3 -27   5 1547.39 78.1994  17
   3  27   5 1503.16 73.0201  12
   3 -27   5 1456.12 74.3843  10
  -3 -28   4 1648.55 92.7730  24
  -3  28   4 1503.44 78.1980  23
   3 -28  -4 1571.96 82.9271  22
   3  28  -4 1686.37 87.3929  19
  -3 -28   3 75.5603 77.4449  24
   3 -28  -3 62.2974 63.0120  22
   3  28  -3 55.7789 66.1967  19
  -3  28   2 73.5718 78.7415  14
  -3 -28   2 79.6766 74.5574  24
   3 -28  -2 66.5375 68.1381  22
   3  28  -2 77.6082 77.2836  19
  -3  28   1 8513.31 212.180  14
  -3 -28   1 9178.73 207.772  24
   3 -28  -1 9152.31 207.110  22
   3  28  -1 8657.83 216.524  19
   3 -28   0 1047.13 108.450  17
   3  28   0 1287.63 108.558  14
   3  28   0 1142.37 93.8931  12
   3  28   0 1135.84 107.751  19
   3 -28   1 1678.56 121.034  17
   3  28   1 1561.95 118.332  14
   3  28   1 1797.72 108.578  12
   3  28   1 1640.36 115.954  19
   3 -28   2 932.684 99.2154  17
   3  28   2 1013.43 107.920  14
   3  28   2 1128.76 95.2788  12
   3  28   3 364.379 73.1726  12
   3 -28   3 225.839 78.1816  17
   3  28   3 231.649 87.8893  14
   3 -28   4 32.5111 61.9745  17
   3  28   4 20.6400 53.9753  12
   3  29  -4 690.202 62.2128  19
  -3 -29   4 680.826 66.2506  24
   3 -29  -4 659.301 59.3233  22
  -3 -29   3 916.815 85.5098  24
   3  29  -3 838.279 79.6313  19
   3 -29  -3 951.986 76.3254  22
  -3  29   2 182.603 75.2546  14
  -3 -29   2 182.637 74.5177  24
   3 -29  -2 253.022 69.0417  22
   3  29  -2 271.929 76.2964  19
  -3  29   1 784.152 99.8748  14
   3 -29  -1 708.012 81.5442  22
  -3 -29   1 870.088 90.4870  24
   3  29  -1 741.160 93.0675  19
   3 -29   0 3933.29 150.595  17
  -3  29   0 4090.48 157.105  14
   3  29   0 4142.31 153.031  19
   3 -29   1 7302.00 192.841  17
   3  29   1 7711.27 182.236  12
   3  29   1 7386.32 189.579  14
   3 -29   2 432.584 81.8735  17
   3  29   2 402.532 72.0116  12
   3  29   2 376.506 86.6243  14
   3 -29   3 1075.25 88.1646  17
   3  29   3 1190.33 98.9365  14
   3  29   3 1162.44 82.3921  12
   3 -29   4 299.673 61.4869  17
   3  29   4 229.797 51.8855  12
  -3 -30   3 206.371 68.4524  24
   3 -30  -3 129.432 55.8709  22
   3  30  -3 144.952 57.6135  19
  -3  30   2 17788.2 241.722  14
  -3 -30   2 17590.8 243.368  24
   3 -30  -2 17694.5 233.129  22
   3  30  -2 16903.5 249.571  19
  -3  30   1 25.6075 78.5821  14
  -3 -30   1 10.7178 67.6066  24
   3 -30  -1 72.6480 58.8713  22
   3  30  -1 159.443 70.4189  19
   3 -30   0 638.428 84.4375  17
  -3  30   0 692.794 90.7080  14
   3  30   0 647.232 86.1240  19
   3 -30   1 30.7323 67.7859  17
   3  30   1 31.9857 76.4115  14
  -3  30  -1 233.269 80.9874  14
   3  30   1 92.8610 57.9029  12
   3  30   1 56.4005 68.2066  19
   3 -30   2 6098.00 161.074  17
   3  30   2 6466.80 168.962  14
  -3  30  -2 6303.46 154.202  14
   3  30   2 6285.01 152.221  12
   3 -30   3 3222.80 113.520  17
   3  30   3 3428.59 120.781  14
   3  30   3 3312.79 108.062  12
  -3 -31   3 5507.57 119.134  24
   3  31  -3 5577.93 119.819  19
  -3  31   2 303.733 68.1463  14
  -3 -31   2 207.043 65.2035  24
   3 -31  -2 145.191 52.4106  22
   3  31  -2 186.035 65.2106  19
  -3  31   1 34.9652 66.8540  14
   3  31  -1 68.1361 65.5807  19
  -3  31   0 2105.54 112.419  14
   3  31   0 2048.01 108.484  19
   3 -31   1 12324.6 212.109  17
   3  31   1 12982.9 212.044  14
  -3  31  -1 12370.7 208.695  14
   3 -31   2 1291.02 85.7569  17
   3  31   2 1287.23 91.4251  14
  -3  31  -2 1207.92 83.6860  14
   3  31   2 1226.39 74.8740  12
   3 -31   3 915.000 70.5529  17
   3  31   3 898.971 61.3097  12
  -3  32   2 1847.17 79.5497  14
  -3 -32   2 1858.86 79.0906  24
   3  32  -2 1641.45 80.8504  19
  -3  32   1 2223.39 100.561  14
   3  32  -1 2093.18 95.0297  19
  -3  32   0 1050.08 84.9334  14
   3  32   0 1057.58 79.7552  19
   3 -32   1 58.6692 57.9652  17
   3  32   1 33.6486 64.5454  14
  -3  32  -1 33.9624 64.0474  14
   3 -32   2 422.833 62.0061  17
   3  32   2 454.868 68.9591  14
  -3  33   1 330.071 60.2912  14
   3  33  -1 267.072 54.6289  19
  -3  33   0 4956.28 122.680  14
   3  33   0 4638.80 117.190  19
  -3  33  -1 21.8407 54.6981  14
  -4   0   7 41.9838 71.7064  23
   4   0  -6 175920. 876.275  20
  -4   0   6 186356. 1009.67  23
   4   0  -5 397.232 135.957   6
   4   0  -5 729.055 158.422  20
  -4   0   4 6322.39 186.258   7
   4   0  -4 6924.33 222.033   6
   4   0  -3 89.4467 72.4194   6
  -4   0   3 65.8348 92.5675   3
   4   0  -2 1430.91 99.3360   6
  -4   0   2 658.085 102.387   3
   4   0  -1 1.07280 61.7733   6
  -4   0   1 58.4414 61.0649   3
   4   0   0 49971.8 436.644   6
   4   0   0 54151.5 387.998   4
   4   0   1 48.7030 52.1371   4
   4   0   1 12.1955 66.4291   6
   4   0   1 89.3441 121.542   2
   4   0   2 50837.4 468.779   6
   4   0   2 49932.9 672.838   2
   4   0   3 72.1012 56.0671   4
   4   0   3 63.8237 114.664   2
   4   0   4 14637.9 434.012   2
   4   0   5-3.18766 104.875   9
   4   0   5 61.4254 93.8072  10
   4   0   6 6985.24 214.852  10
   4   0   6 6492.19 205.641   9
   4   0   7 452.820 95.9235   9
  -4  -1   7 5236.30 162.398  23
   4  -1  -7 5412.64 153.048  20
  -4   1   7 5226.30 162.124  23
  -4  -1   6 2818.02 153.013  23
  -4   1   6 2553.18 147.512  23
   4  -1  -6 3271.92 158.711  20
   4   1  -6 3112.21 151.680  20
   4   1  -5 1264.06 141.005  18
  -4  -1   5 726.878 103.074   7
  -4   1   5 866.405 103.912   7
   4   1  -5 1290.13 148.796   6
   4  -1  -5 978.436 135.587   6
  -4  -1   5 660.532 97.7487  23
   4   1  -5 1720.60 161.263  20
  -4   1   5 574.619 96.7801  23
   4  -1  -5 1578.32 169.470  20
  -4  -1   4 170173. 876.403   7
  -4   1   4 170362. 873.808   7
   4   1  -4 165097. 976.004   6
   4  -1  -4 164812. 964.101   6
   4   1  -3 6976.61 199.508   6
   4  -1  -3 7299.83 202.032   6
  -4   1   3 7313.67 283.666   3
   4   1  -2 11512.6 232.810   6
   4  -1  -2 11705.1 233.710   6
  -4  -1   2 11889.3 310.954   3
  -4   1   2 11965.8 316.519   3
   4   1  -1 24679.8 317.337   6
   4  -1  -1 25320.9 315.865   6
   4   1   0 40266.5 393.417   6
   4  -1   0 41573.1 390.981   6
   4  -1   1 21615.0 430.880   2
   4   1   1 21902.1 298.792   6
   4  -1   1 21762.0 292.798   6
   4   1   1 23933.2 448.912   2
   4  -1   1 23693.2 265.320   4
   4  -1   2 6996.98 158.232   4
   4  -1   2 6231.75 253.753   2
   4   1   2 6657.79 180.503   6
   4  -1   2 6840.18 178.996   6
   4   1   2 6387.61 265.096   2
   4  -1   3 5113.34 148.263   4
   4  -1   3 4415.83 241.399   2
   4   1   3 4563.87 250.882   2
   4   1   4 20463.5 503.040   2
   4  -1   4 19358.8 484.722   2
   4   1   5 4491.86 182.538  10
   4  -1   5 4346.45 178.586  10
   4  -1   5 4320.72 180.509   9
   4   1   5 4358.63 183.734   9
   4  -1   6 1522.36 129.218  10
   4   1   6 1557.61 138.225  10
   4  -1   6 1427.97 134.109   9
   4   1   6 1338.55 127.135   9
   4   1   7 920.410 128.641  25
   4  -1   7 1061.81 127.776  25
   4  -1   7 2189.13 119.630   9
   4   1   7 1819.71 116.438   9
  -4   2   7 6868.35 178.967  23
  -4  -2   7 6668.51 180.081  23
   4   2  -6 73665.7 568.068  18
  -4  -2   6 74744.4 641.863  23
   4   2  -5 43665.7 462.071  18
  -4  -2   5 43207.6 478.085   7
  -4   2   5 45638.6 484.658   7
   4   2  -5 43982.0 527.180   6
   4  -2  -5 45628.6 524.772   6
  -4   2   5 43290.5 499.855  23
  -4  -2   5 42797.0 497.650  23
  -4  -2   4 2491.78 133.802   7
  -4   2   4 2678.87 133.927   7
   4  -2  -4 2811.04 152.787   6
   4   2  -3 19155.7 320.740   6
   4  -2  -3 19614.6 314.902   6
  -4   2   3 19686.1 455.877   3
   4   2  -2 27390.7 356.040   6
   4  -2  -2 28847.2 351.398   6
  -4  -2   2 28734.4 475.713   3
  -4   2   2 28100.7 485.196   3
   4   2  -1 1782.26 106.643   6
   4  -2  -1 1959.14 106.707   6
  -4   2   1 1849.29 127.155   3
   4  -2   0 105.187 57.1795   4
   4  -2   0 103.025 63.8592   6
   4   2   1 63285.3 510.395   6
   4  -2   1 64605.0 493.294   6
   4  -2   1 63681.0 732.275   2
   4   2   1 63486.1 712.719   2
   4  -2   2 7855.52 173.225   4
   4   2   2 7006.28 188.052   6
   4  -2   2 7685.14 187.810   6
   4  -2   2 7007.13 269.358   2
   4   2   2 7283.41 272.816   2
   4   2   3 20220.3 464.631   2
   4   2   3 20259.1 320.198   6
   4  -2   3 20730.2 471.302   2
   4  -2   4 665.050 87.1280   4
   4  -2   4 558.174 151.584   2
   4   2   4 662.713 169.572   2
   4  -2   5 7116.11 209.692   4
   4  -2   5 6376.62 207.339  10
   4   2   5 6395.78 211.745  10
   4  -2   5 6417.12 206.222   9
   4  -2   5 6337.70 213.766  21
   4   2   5 6188.39 211.161   9
   4  -2   6 741.814 114.336   9
   4   2   6 579.259 111.508   9
   4  -2   6 637.967 103.369  10
   4   2   7 1565.36 136.261  25
   4  -2   7 1355.59 139.006  25
   4   2   7 2179.88 124.654   9
   4  -2   7 2557.28 139.533  10
  -4  -3   7 6490.63 178.394  23
  -4   3   7 6864.14 177.782  23
   4  -3  -7 6463.81 164.584  20
   4   3  -6 3310.17 155.975  18
  -4  -3   6 3485.78 161.973  23
  -4   3   6 3444.08 158.922  23
  -4  -3   5 20524.8 336.252   7
  -4   3   5 20594.3 331.895   7
   4   3  -5 20786.6 371.802   6
   4  -3  -5 21215.6 359.354   6
   4   3  -5 20909.8 333.900  18
  -4  -3   5 20611.6 348.732  23
  -4   3   5 20572.7 350.900  23
   4  -3  -5 19738.8 324.956  20
  -4  -3   4 24547.0 345.033   7
  -4   3   4 25135.2 340.724   7
   4   3  -4 22901.7 377.774   6
   4  -3  -4 24444.0 374.038   6
  -4   3   4 23143.4 542.309   3
   4   3  -3 174.335 87.4980   6
  -4   3   3 33.7056 98.0220   3
   4   3  -2 159.684 72.1392   6
   4  -3  -2 85.5737 61.8859   6
  -4   3   2 125.380 86.7257   3
   4   3  -1 6421.22 174.839   6
   4  -3  -1 6305.55 164.397   6
  -4   3   1 6586.75 219.742   3
   4   3   0 7256.48 181.578   6
   4  -3   0 7425.10 170.707   6
   4  -3   0 7851.51 169.449   4
   4  -3   1 40412.3 386.222   6
   4   3   1 40302.5 569.225   2
   4  -3   1 40351.1 368.039   4
   4  -3   2 4249.88 138.067   4
   4   3   2 4264.52 152.827   6
   4  -3   2 3987.92 140.359   6
   4  -3   2 3926.18 216.030   2
   4   3   2 3853.32 217.856   2
   4  -3   3 1352.18 94.3557   4
   4   3   3 1108.61 171.355   2
   4   3   3 1180.24 105.741   6
   4  -3   3 970.901 147.325   2
   4   3   4 3896.62 235.197   2
   4  -3   4 4201.82 157.197   4
   4  -3   4 4010.73 248.251   2
   4  -3   5 3705.34 162.503   4
   4  -3   5 3377.13 161.822  22
   4  -3   5 3222.37 160.344  21
   4   3   5 3752.11 175.135  10
   4  -3   5 3332.47 160.536  10
   4  -3   5 3394.52 162.434   9
   4   3   5 3411.14 169.538   9
   4  -3   6 230.671 106.978   9
   4   3   6 21.6215 103.359   9
   4  -3   6 85.3666 88.2564  10
   4   3   7 3294.81 160.664  25
   4  -3   7 3638.17 164.996  25
   4  -3   7 4618.28 158.732  10
   4   3   7 4117.36 150.246   9
   4   4  -7 2742.35 113.716  18
   4  -4  -7 2912.41 125.418  20
  -4   4   7 2947.27 125.667  23
  -4  -4   7 3113.82 133.803  23
  -4  -4   6 67.4643 84.8370  23
  -4   4   6 64.0441 84.8826  23
   4   4  -5 7729.91 222.572  18
  -4  -4   5 7506.16 214.431   7
  -4   4   5 7730.40 212.187   7
   4   4  -5 7952.67 244.869   6
   4  -4  -5 8290.40 231.861   6
  -4  -4   5 7378.09 217.891  23
  -4   4   5 7204.39 216.919  23
   4  -4  -5 7917.13 230.249  20
   4   4  -4 36516.7 421.988  18
  -4  -4   4 38378.9 433.913   7
  -4   4   4 39993.9 425.839   7
   4   4  -4 37846.9 481.912   6
   4  -4  -4 40982.4 470.160   6
  -4   4   4 39718.0 457.922  23
  -4  -4   4 40029.8 448.387  23
   4  -4  -4 34358.8 413.673  20
   4   4  -3 9951.01 240.460   6
  -4   4   3 9911.79 334.562   3
   4   4  -2 3952.06 151.471   6
   4  -4  -2 4151.93 141.172   6
  -4   4   2 4171.43 203.064   3
   4   4  -1 1070.06 87.4475   6
   4  -4  -1 1265.57 88.5024   6
  -4   4   1 1227.26 115.508   3
   4  -4   0 45919.6 395.439   6
  -4   4   0 45994.4 520.402   3
   4  -4   0 44614.8 398.834   4
   4   4   1 13056.3 241.710   6
   4  -4   1 13540.5 227.336   6
   4   4   1 13243.3 337.149   2
   4  -4   1 13529.1 223.629   4
   4  -4   2 4605.70 238.577   2
   4   4   2 4685.85 158.104   6
   4  -4   2 4766.43 150.277   6
   4   4   2 4254.09 221.941   2
   4  -4   2 5064.68 151.794   4
   4   4   3 8519.62 315.020   2
   4  -4   3 8876.27 201.818   4
   4   4   3 8442.01 215.787   6
   4  -4   3 8547.92 317.222   2
   4  -4   4 644.452 88.0884   4
   4  -4   4 438.491 163.877   2
   4   4   4 486.500 141.850   2
   4  -4   5 3.45967 102.523   9
   4   4   5-9.76952 102.579   9
   4  -4   5 57.1572 87.8370  22
   4  -4   5 101.271 90.4170  21
   4   4   5 295.982 108.480  10
   4  -4   5 50.5303 91.1789  10
   4   4   6 2194.08 160.622  25
   4  -4   6 2687.57 147.389   9
   4   4   6 2275.30 146.542   9
   4   4   7 144.098 88.8320   9
   4  -4   7 366.472 99.0183  10
   4   5  -7 2864.13 115.515  18
  -4  -5   7 3036.75 131.541  23
  -4   5   7 2902.71 122.677  23
   4  -5  -7 2678.80 120.992  20
   4   5  -6 1910.67 133.237  18
  -4  -5   6 1657.95 124.942  23
  -4  -5   5 5254.54 183.856   7
   4   5  -5 5376.60 200.952   6
  -4   5   5 5332.75 193.941  23
  -4  -5   5 5222.57 188.730  23
   4   5  -4 1542.86 140.291  18
   4   5  -4 1277.58 124.889   6
   4  -5  -4 1018.12 108.679   6
  -4   5   4 872.456 105.998  23
   4   5  -4 744.277 116.322  15
  -4  -5   4 827.114 100.439  23
   4  -5  -4 1784.39 156.023  20
   4   5  -3 6234.15 197.677   6
   4  -5  -3 6713.77 186.746   6
  -4   5   3 6403.93 274.715   3
   4   5  -2 1411.52 105.563   6
   4  -5  -2 1442.19 97.7302   6
  -4   5   2 1415.62 138.932   3
   4   5  -1 15217.7 266.370   6
  -4   5   1 15769.0 350.086   3
   4   5   0 1207.93 90.2142   6
   4  -5   0 1408.22 88.7056   6
  -4   5   0 1435.02 113.262   3
   4   5   1 4017.58 145.980   6
   4  -5   1 4160.09 130.687   6
   4  -5   1 3907.46 135.316   4
   4   5   1 3973.00 202.880   2
   4  -5   2 98.7214 65.6141   4
   4   5   2 110.956 67.2972   6
   4  -5   2 147.387 65.3033   6
   4  -5   2 336.004 147.760   2
   4   5   2 21.0887 119.912   2
   4   5   3 1466.34 166.637   2
   4  -5   3 1417.96 99.7574   4
   4   5   3 1486.48 111.379   6
   4  -5   3 1878.05 198.432   2
   4  -5   4 550.724 92.6631   4
   4  -5   4 388.040 178.040   2
   4   5   4 358.502 131.374   2
   4  -5   5 192.488 109.371   9
   4  -5   5 71.5074 83.6522   4
   4   5   5 219.055 107.421   9
   4  -5   5 167.695 92.1002  22
   4  -5   5 103.594 93.7689  10
   4  -5   5 108.664 89.1105  21
   4   5   6 575.821 114.954   9
   4   5   6 287.092 124.445  25
   4  -5   6 311.555 125.742  25
   4  -5   6 600.801 104.668  10
   4  -5   7 5491.72 166.091  10
   4   5   7 4796.84 169.329  25
   4  -5   7 4455.02 174.145  25
   4   5   7 5302.55 162.023   9
   4   6  -7 4700.94 136.913  18
  -4  -6   7 5057.66 154.251  23
  -4   6   7 4837.77 146.484  23
   4  -6  -7 4578.12 144.633  20
   4   6  -6 11757.0 249.881  18
  -4  -6   6 12799.3 274.325  23
  -4   6   6 12330.0 265.557  23
   4  -6  -6 12533.1 254.426  20
  -4  -6   5 2363.87 137.325   7
   4   6  -5 2490.17 153.962   6
   4   6  -5 2358.24 143.343  15
  -4  -6   5 2420.13 142.802  23
  -4   6   5 2428.39 140.373  23
   4   6  -4 1905.51 143.637  18
   4   6  -4 1765.31 137.625   6
   4   6  -4 1501.23 124.606  15
  -4  -6   4 1385.34 111.037  23
  -4   6   4 1421.24 120.130  23
   4   6  -3 32961.0 428.899   6
  -4   6   3 33818.8 612.041   3
   4   6  -2 56273.8 530.219   6
  -4   6   2 61149.2 760.578   3
   4   6  -1 11234.2 230.052   6
  -4   6   1 11469.6 309.723   3
   4   6   0 52103.3 469.593   6
   4  -6   0 50935.5 447.012   4
   4   6   1 4493.09 155.318   6
   4  -6   1 4945.81 141.560   6
   4  -6   1 5098.73 153.362   4
   4   6   1 4752.07 218.138   2
   4   6   2 53412.8 502.060   6
   4  -6   2 53292.3 453.924   6
   4  -6   2 55125.4 494.143   4
   4   6   2 53319.4 694.450   2
   4   6   3 37225.0 628.482   2
   4   6   3 36863.9 439.141   6
   4  -6   3 37145.4 418.199   4
   4  -6   3 36027.7 618.667   2
   4  -6   4 4276.41 166.050   4
   4   6   4 4114.80 250.810   2
   4  -6   4 4163.34 260.422   2
   4  -6   5 8204.15 229.890   4
   4  -6   5 7864.21 231.134  22
   4  -6   5 7771.76 231.953  21
   4  -6   5 7760.47 223.373  10
   4  -6   5 8227.42 222.972   9
   4   6   5 7804.06 233.630   9
   4   6   6 556.980 110.480   9
   4   6   6 528.626 126.018  25
   4  -6   6 275.366 123.528  25
   4  -6   6 658.848 108.113  10
   4  -6   7 1159.68 127.658  25
   4  -6   7 1418.18 110.662  10
   4   6   7 1340.67 123.886  25
   4   6   7 1192.92 106.884   9
  -4  -7   7 2936.47 123.273  23
  -4   7   7 2937.27 116.897  23
   4  -7  -7 2796.70 122.275  20
   4   7  -7 2951.55 116.056  18
   4   7  -6 299.573 98.4431  18
  -4   7   6 53.8807 79.8381  23
  -4  -7   6 54.0287 78.6906  23
   4   7  -5 672.097 124.195  18
  -4  -7   5 9.17513 88.7545   7
   4   7  -5 24.6486 96.1423  15
   4   7  -5 670.040 113.803   6
  -4   7   5 31.3856 84.2783  23
  -4  -7   5 200.481 87.6450  23
   4   7  -4 23414.9 386.475   6
   4   7  -4 23102.0 357.258  15
  -4   7   4 22929.1 360.769  23
  -4  -7   4 23758.9 356.640  23
   4   7  -3 11176.0 258.477   6
  -4   7   3 11102.9 365.904   3
   4   7  -2 2706.27 133.375   6
  -4   7   2 2843.80 183.914   3
   4   7  -1 4054.30 147.284   6
  -4   7   1 4289.87 204.265   3
   4   7   0 60342.1 508.955   6
   4  -7   0 58677.7 494.208   4
   4   7   1 116713. 718.297   6
   4   7   1 119481. 958.356   2
   4   7   2 123542. 1056.52   2
   4   7   2 123141. 771.019   6
   4  -7   2 125369. 756.164   4
   4   7   3 1912.61 186.172   2
   4  -7   3 2134.58 121.528   4
   4   7   3 2272.83 129.368   6
   4   7   4 3511.01 245.989   2
   4  -7   4 3835.71 162.601   4
   4  -7   4 3632.32 164.568  22
   4  -7   4 3696.56 166.714  21
   4  -7   4 3895.85 164.708  10
   4  -7   4 4262.89 272.669   2
   4  -7   5 8722.34 238.346   4
   4  -7   5 8527.69 239.255  22
   4   7   5 8574.68 254.154  25
   4  -7   5 8328.00 238.609  21
   4  -7   5 8863.58 238.995  10
   4   7   5 8361.90 237.851   9
   4   7   6 8007.42 229.234  25
   4  -7   6 7432.35 212.901  10
   4   7   6 7438.07 219.378   9
   4  -7   7 1093.31 121.050  25
   4  -7   7 1273.86 105.875  10
   4   7   7 1048.94 105.024   9
   4   8  -7 25.1048 72.8576  18
  -4   8   7 205.270 66.6549  23
   4  -8  -7-2.74074 76.4932  20
   4   8  -6 5186.51 177.550  18
  -4   8   6 5149.21 178.338  23
  -4  -8   6 5339.32 187.104  23
   4  -8  -6 5782.45 180.987  20
   4   8  -5 7297.42 218.379  18
  -4  -8   5 7150.89 210.357   7
   4   8  -5 6643.67 219.543   6
  -4   8   5 6841.04 212.349  23
  -4  -8   5 7449.35 221.780  23
   4  -8  -5 7761.11 216.485  20
   4   8  -4 353.073 94.1546  15
   4   8  -4 512.678 104.842   6
  -4  -8   4 329.552 90.0462  23
  -4   8   4 373.740 88.6456  23
  -4   8   3-4.81326 87.6865   3
   4   8  -3 121.111 80.5456   6
   4   8  -2 8971.74 222.249   6
  -4   8   2 9920.00 329.293   3
   4   8  -1 714.194 82.6488   6
  -4   8   1 856.964 114.930   3
   4   8   0 39333.7 415.861   6
  -4   8   0 40398.5 560.703   3
   4  -8   0 39049.1 413.469   4
   4   8   1 16640.9 280.010   6
  -4   8  -1 17370.6 361.750   3
   4  -8   1 16140.7 270.648   4
   4   8   1 17890.7 385.128   2
   4   8   2 170357. 902.672   6
   4  -8   2 168417. 893.148   4
   4  -8   3 94089.5 685.107   4
   4   8   3 96142.5 1008.34   2
   4  -8   4 17874.2 320.102   4
   4  -8   4 17894.2 337.120  25
   4  -8   4 18106.9 324.951  22
   4   8   4 20007.9 334.470  11
   4  -8   4 19368.4 334.681  11
   4  -8   4 18935.9 337.924  21
   4  -8   4 18319.7 317.181  10
   4   8   4 18773.7 326.369   9
   4  -8   5 4873.14 187.906   4
   4   8   5 5657.15 189.823  13
   4  -8   5 4068.89 200.396  25
   4  -8   5 4756.07 186.977  22
   4  -8   5 5188.83 190.109  10
   4  -8   5 4882.22 190.957  21
   4   8   5 4646.26 193.052   9
   4  -8   6 4286.96 191.009  25
   4  -8   6 4588.91 175.494  10
   4   8   6 4480.76 182.241   9
   4  -8   7 1376.62 104.569  10
   4  -8   7 1363.18 122.519  25
   4   8   7 1495.01 109.109   9
   4   9  -7 89.2850 71.4694  18
  -4   9   7 197.641 65.3158  23
   4  -9  -7 39.4561 76.1607  20
   4   9  -6 8048.73 211.551  18
  -4  -9   6 8517.19 224.339  23
  -4   9   6 8323.86 216.803  23
   4  -9  -6 8238.07 208.585  20
  -4  -9   5 1545.95 120.707   7
   4   9  -5 1509.44 125.573   6
  -4   9   5 1461.75 119.604  23
  -4  -9   5 1444.56 124.387  23
   4   9  -4 1844.28 137.259  18
  -4   9   4 669.992 94.6322  23
   4   9  -4 709.787 104.849   6
   4   9  -4 670.735 109.807  15
  -4  -9   4 700.981 99.6060  23
   4  -9  -4 1744.53 142.184  20
   4   9  -3 6913.94 214.231   6
  -4   9   3 7256.25 306.834   3
   4   9  -2 29296.0 393.208   6
  -4   9   2 30296.5 566.847   3
   4   9  -1 7168.80 193.905   6
  -4   9   1 7685.48 274.958   3
   4  -9   0 489.691 79.8566   4
   4   9   0 490.562 76.7532   6
  -4   9   0 542.409 105.512   3
   4   9   1 5304.67 167.397   6
  -4   9  -1 5420.73 218.376   3
   4  -9   1 5071.16 166.009   4
   4   9   2 23485.5 343.612   6
   4  -9   2 23723.3 350.652   4
   4  -9   3 9022.61 226.950   4
   4   9   3 9785.84 342.779   2
   4  -9   4 7594.70 219.530   4
   4  -9   4 7573.07 244.988  25
   4  -9   4 7531.44 220.665  22
   4  -9   4 8005.52 227.163  21
   4  -9   4 8346.12 225.488  11
   4   9   4 8496.38 225.306  11
   4   9   4 7901.40 225.243   9
   4   9   5 3.28739 102.860   9
   4  -9   5-7.82896 77.5058   4
   4  -9   5 53.9578 86.4547  21
   4  -9   5 41.3723 84.9023  22
   4   9   5 77.6500 101.007  13
   4  -9   5-4.82457 87.8459  10
   4  -9   6 1044.65 138.177  25
   4  -9   6 1199.65 115.623  10
   4   9   6 1138.10 124.749   9
   4  -9   7 918.040 95.2867  10
   4  -9   7 925.706 112.096  25
   4   9   7 823.222 95.3913   9
  -4  10   7 5374.43 137.040  23
   4 -10  -7 5377.05 140.988  20
   4  10  -7 5604.86 137.808  18
   4  10  -6 80.5939 87.6495  18
  -4 -10   6 214.218 83.5762  23
  -4  10   6 79.6854 75.9100  23
   4 -10  -6 327.736 97.8346  20
   4  10  -5 2281.92 143.465  18
  -4  10   5 1980.11 129.260  23
  -4 -10   5 2094.34 136.132  23
   4  10  -4 9908.79 243.709  18
   4  10  -4 10065.2 257.874   6
   4  10  -4 9852.86 246.256  15
  -4 -10   4 10564.4 250.299  23
   4 -10  -4 9820.84 239.377  20
   4  10  -3 38.2456 77.9162   6
  -4  10   3-48.6899 118.002   3
   4  10  -2 6818.08 202.152   6
  -4  10   2 7088.52 291.573   3
   4  10  -1 10904.2 240.910   6
  -4  10   1 11429.5 337.462   3
   4 -10  -1 11282.2 243.169   4
   4  10   0 872.856 90.0164   6
  -4  10   0 847.447 121.941   3
   4 -10   0 887.336 89.7701   4
   4 -10   1 267.349 70.5576   4
   4  10   1 406.234 77.6463   6
  -4  10  -1 261.939 90.3890   3
   4  10   2 18152.5 423.336   2
   4  10   2 17931.1 301.723   6
   4 -10   2 17473.8 307.453   4
   4 -10   3 13561.5 276.551   4
   4  10   3 15761.9 427.779   2
   4  10   4 779.669 114.460   9
   4 -10   4 580.651 90.7037   4
   4 -10   4 498.879 137.742  25
   4 -10   4 852.527 111.242  22
   4 -10   5 418.800 98.9533   4
   4 -10   5 279.711 128.195  25
   4 -10   5 437.172 99.9141  22
   4 -10   5 564.161 102.963  21
   4  10   5 509.437 110.558  13
   4 -10   5 479.902 99.6175  10
   4 -10   6 2565.13 158.633  25
   4 -10   6 2827.58 144.281  10
   4  10   6 2590.28 151.301   9
   4 -10   7 735.205 86.7687  10
   4  10   7 782.950 92.2271   9
   4  11  -7 479.967 69.1880  18
  -4  11   7 428.477 65.0245  23
   4 -11  -7 405.738 72.0822  20
   4  11  -6 11869.8 244.520  18
  -4  11   6 11964.3 245.528  23
   4 -11  -6 11953.8 241.830  20
   4  11  -5 3039.37 155.084  18
  -4 -11   5 2978.92 150.318  23
  -4  11   5 2624.98 141.087  23
   4  11  -4 3922.81 172.067  18
   4  11  -4 3349.51 164.908  15
   4  11  -4 3888.16 172.353   6
   4 -11  -4 4009.99 170.619  20
  -4 -11   4 3682.72 161.928  23
   4  11  -3 2345.75 142.738   6
  -4  11   3 1986.48 197.703   3
   4  11  -2 35579.4 433.326   6
  -4  11   2 33112.7 614.245   3
   4  11  -1 3919.65 151.110   6
  -4  11   1 3698.70 209.125   3
   4 -11  -1 3753.02 154.495   4
  -4  11   0 36294.8 583.146   3
   4 -11   0 36838.1 422.524   4
   4  11   1 2363.16 121.627   6
  -4  11  -1 2334.58 168.254   3
   4 -11   1 2188.39 123.155   4
   4  11   2 38187.5 436.478   6
   4 -11   2 35833.9 440.102   4
   4 -11   3 3758.78 157.621   4
   4  11   3 4137.66 240.686   2
   4 -11   4 3252.21 156.307   4
   4 -11   4 3529.62 184.388  25
   4 -11   4 3644.04 165.813  22
   4 -11   4 3624.84 163.799  21
   4  11   4 3391.27 165.421   9
   4 -11   5 5304.51 192.420   4
   4  11   5 5886.28 195.664  13
   4 -11   5 4978.99 201.708  25
   4 -11   5 5491.39 193.189  22
   4 -11   5 5197.91 189.615  10
   4  11   5 5392.34 199.510   9
   4  11   6 237.845 101.469   9
   4 -11   6 272.221 116.459  25
   4 -11   6 372.913 93.5709  10
   4  11   7 3.48583 75.2250   9
   4 -11   7 32.6440 69.2068  10
  -4  12   7 6320.81 129.958  23
   4 -12  -7 6008.32 133.180  20
   4  12  -7 6361.64 134.548  18
   4  12  -6 2679.70 132.619  18
  -4  12   6 2826.94 131.850  23
   4 -12  -6 2641.46 135.854  20
   4  12  -5 1221.88 122.669  18
  -4  12   5 1141.97 113.224  23
  -4 -12   5 1200.56 113.322  23
   4 -12  -5 1284.13 123.802  20
   4  12  -4 5163.73 187.942  18
   4  12  -4 5353.69 198.726   6
  -4 -12   4 5805.83 194.849  23
   4 -12  -4 5609.30 194.369  20
   4  12  -3 86.6523 94.6338  18
   4  12  -3 174.150 88.2887  15
   4  12  -3 267.966 84.4699   6
   4 -12  -3 0.74066 114.669  22
   4 -12  -3 116.203 106.528  20
   4  12  -2 400.680 82.3255   6
  -4  12   2 318.427 117.180   3
   4  12  -1 2639.20 132.064   6
  -4  12   1 2684.99 185.796   3
   4 -12  -1 2610.39 133.806   4
   4  12   0 3850.70 148.583   6
  -4  12   0 3788.88 204.862   3
   4 -12   0 3923.78 154.876   4
   4 -12   1 195.532 81.5640   4
   4  12   1 259.259 77.4524   6
  -4  12  -1 449.696 100.990   3
   4  12   2 33448.1 410.649   6
   4 -12   2 31587.4 420.968   4
   4 -12   3 96.5963 76.0496   4
   4  12   3 102.743 134.480   2
   4 -12   4 36410.7 451.080  25
   4  12   4 38569.9 460.034  12
   4 -12   4 35544.3 452.540  22
   4 -12   4 37808.1 465.997  21
   4  12   4 37230.1 453.402   9
   4 -12   5 4622.18 182.394   4
   4  12   5 5214.50 187.454  13
   4 -12   5 4791.33 198.122  25
   4 -12   5 4812.83 181.802  22
   4 -12   5 4480.69 178.356  10
   4  12   5 4506.68 187.256   9
   4 -12   6 1390.07 129.156  25
   4 -12   6 1300.54 112.743  10
   4  12   6 993.577 116.420   9
   4 -12   7 1821.95 101.028  10
   4  12   7 1970.17 106.673   9
   4  13  -7 8284.73 143.250  18
   4  13  -6 5030.19 165.912  18
  -4  13   6 5174.60 162.129  23
   4 -13  -6 5454.22 168.632  20
   4  13  -5 8226.51 226.017  18
   4 -13  -5 8667.04 226.034  20
  -4 -13   5 9128.03 235.707  23
  -4  13   5 8670.70 229.775  23
   4  13  -4 1711.04 132.491  18
   4  13  -4 1687.88 137.463   6
  -4 -13   4 1777.46 124.981  23
   4 -13  -4 1813.49 136.388  22
   4 -13  -4 1781.64 136.600  20
   4  13  -3 4567.15 185.281  18
   4  13  -3 5114.31 185.692  15
   4  13  -3 5232.95 186.363   6
   4 -13  -3 4900.30 189.515  22
   4 -13  -3 5187.45 191.665  20
   4  13  -2 11117.6 250.814   6
  -4  13   2 10780.5 367.230   3
  -4 -13   2 11747.1 240.469   5
   4  13  -1 55300.5 522.352   6
  -4 -13   1 56474.8 497.679   5
   4 -13   0 118.657 76.6379   4
   4  13   0 80.9519 67.1900   6
  -4  13   0 124.127 98.6044   3
   4  13   1 13794.9 261.445   6
  -4 -13  -1 14173.4 256.929   5
   4  13   2 1772.69 115.287   6
   4 -13   2 1731.37 122.520   4
   4 -13   3 5423.17 192.394   4
   4  13   3 5558.99 195.484  14
   4  13   3 5896.37 197.778  12
   4 -13   3 5713.80 192.906  22
   4 -13   4 1367.94 116.356   4
   4 -13   4 1569.72 131.637  17
   4 -13   4 1492.19 152.907  25
   4  13   4 1601.70 124.309  12
   4 -13   4 1518.06 123.480  22
   4 -13   4 1608.89 124.201  21
   4  13   4 1335.86 132.602   9
   4 -13   5 1910.68 128.679  22
   4 -13   5 2119.74 156.171  25
   4 -13   5 1896.90 134.720  10
   4  13   5 1869.45 143.653   9
   4 -13   6 241.621 114.450  25
   4  13   6 43.8479 92.8751   9
   4 -13   6 146.794 84.8115  10
   4 -13   7 1039.38 85.8028  10
   4  13   7 926.035 88.3708   9
   4  14  -6 1468.87 106.298  18
  -4  14   6 1366.52 98.9070  23
   4 -14  -6 1388.56 105.935  20
   4  14  -5 24232.8 363.976  18
   4 -14  -5 24076.5 353.874  20
   4  14  -4 175.743 100.295  18
   4  14  -4 43.6940 92.6868   6
  -4 -14   4 118.153 86.5115  23
   4 -14  -4-23.0656 96.6579  22
   4 -14  -4 111.351 99.3407  20
   4  14  -3 465.947 106.241  18
   4  14  -3 889.311 106.344   6
   4 -14  -3 591.155 115.821  22
   4 -14  -3 542.166 120.889  20
   4  14  -2 39.0978 77.2922   6
  -4  14   2 104.906 119.387   3
  -4 -14   2 102.388 70.1972   5
   4  14  -1 760.552 92.4439   6
  -4 -14   1 864.400 87.8547   5
  -4  14   1 722.692 124.823   3
   4 -14  -1 738.513 94.8703   4
  -4  14   0 2136.82 174.948   3
   4  14   0 2432.64 125.822   6
  -4 -14   0 2590.71 125.161   5
   4 -14   0 2106.80 123.653   4
   4 -14   1 18.1060 76.9310   4
  -4 -14  -1 96.9333 66.9826   5
  -4  14  -1 47.4023 89.0543   3
  -4 -14  -2 87568.8 663.403   5
   4  14   2 91899.6 659.824   6
  -4  14  -2 85048.6 939.147   3
   4 -14   2 80346.9 684.367   4
   4 -14   3 69.5620 95.0575  17
   4 -14   3 41.8558 70.4026   4
   4  14   3 109.548 97.5262  14
   4  14   3 0.16196 79.8452  12
   4 -14   3 46.8833 82.7597  22
   4 -14   3 154.281 84.2537  21
   4 -14   4 13937.9 288.290  17
   4  14   4 13922.7 290.406  12
   4 -14   4 13241.0 284.138  22
   4 -14   4 13793.9 282.928  21
   4  14   4 13763.1 285.678   9
   4  14   5-31.2764 102.297   9
   4 -14   5 2.00335 86.5288  17
   4 -14   5 192.485 117.746  25
   4 -14   5 42.1097 85.5876  22
   4  14   5 27.8032 77.3966  12
   4 -14   5 36.2180 85.5416  10
   4  14   6-17.1476 87.9184   9
   4 -14   6 54.6320 75.6923  17
   4 -14   6 22.9607 78.6990  10
   4 -14   7 5578.65 132.934  10
   4  14   7 5639.82 134.840   9
  -4  15   6 2180.79 109.205  23
   4 -15  -6 2116.08 113.599  20
   4  15  -6 2009.14 114.870  18
   4  15  -5 13027.2 269.347  18
  -4  15   5 13330.9 271.994  23
   4 -15  -5 12407.8 258.148  20
   4  15  -4 652.598 107.587  18
   4  15  -4 780.522 107.688   6
   4 -15  -4 546.673 108.478  22
   4 -15  -4 774.857 116.801  20
   4 -15  -3 17348.6 322.637  22
   4 -15  -3 17233.7 318.826  20
   4  15  -2 3315.21 153.594   6
  -4 -15   2 3091.25 143.730   5
   4 -15  -2 3418.71 158.244  22
   4 -15  -2 2967.27 155.273   4
   4  15  -2 3194.19 155.586  18
   4  15  -1 3664.38 149.692   6
  -4  15   1 3375.10 220.402   3
  -4 -15   1 3627.99 146.492   5
   4 -15  -1 3089.70 147.064   4
   4 -15   0 334.944 89.0162   4
   4  15   0 446.048 83.0358   6
  -4 -15   0 446.181 80.7660   5
  -4  15   0 423.119 116.344   3
  -4 -15  -1 4791.09 167.656   5
  -4  15  -1 4523.62 237.083   3
   4 -15   1 4553.24 175.480   4
  -4 -15  -2 1421.57 115.519   5
  -4  15  -2 1226.57 152.720   3
   4 -15   2 1220.81 114.398   4
   4 -15   3 296.344 104.488  17
   4  15   3 290.878 99.4527  14
   4  15   3 337.052 94.2844  12
  -4 -15  -3 292.140 86.1462   5
   4 -15   3 252.532 86.4663  22
   4 -15   4 1488.32 127.731  17
   4 -15   4 1271.19 116.365   4
   4  15   4 1443.90 121.361  12
   4 -15   4 1250.17 118.122  22
   4 -15   5 939.624 107.824  17
   4  15   5 1000.79 101.179  12
   4 -15   5 1227.69 106.863  22
   4 -15   5 926.086 108.328  10
   4  15   5 976.587 117.044   9
   4  15   6 85.9312 88.2356   9
   4 -15   6 209.238 75.5323  17
   4 -15   6 195.427 82.3778  10
   4 -15   7 1545.38 80.3639  10
   4  15   7 1609.84 85.1042   9
  -4  16   6 2740.80 113.899  23
   4  16  -6 2570.06 113.833  18
   4  16  -5 11469.7 248.761  18
  -4  16   5 11702.1 250.761  23
   4 -16  -5 11136.9 241.262  20
   4  16  -4 8540.14 233.122  18
   4 -16  -4 9209.89 238.107  22
   4 -16  -4 9321.12 237.332  20
   4 -16  -3 18669.1 323.579  20
   4 -16  -3 17877.2 330.579  22
   4  16  -3 17915.1 328.568  18
   4  16  -2 78.4247 87.6780  18
   4 -16  -2 103.704 85.7728   4
   4 -16  -2 29.0379 86.4177  22
  -4 -16   2 86.3331 73.5671   5
  -4  16   1 11321.8 384.244   3
  -4 -16   1 11418.0 250.925   5
   4 -16  -1 10667.1 253.859   4
  -4  16   0 16597.2 445.784   3
   4 -16   0 16511.5 310.850   4
  -4  16  -1 20040.6 487.737   3
  -4 -16  -1 21081.0 336.751   5
   4 -16   1 19992.0 339.269   4
   4 -16   2 244.069 98.1740  17
   4 -16   2 242.908 92.7287   4
  -4 -16  -2 205.485 80.2324   5
   4  16   2 241.177 104.136  14
   4 -16   2 194.474 85.8523  22
   4  16   2 191.118 86.4014  12
   4 -16   3 5863.02 200.966   4
   4 -16   3 6789.37 216.346  17
   4  16   3 6084.31 206.867  14
   4  16   3 6528.12 211.235  12
   4 -16   3 6106.11 200.027  22
  -4 -16  -3 6444.81 203.626   5
   4 -16   4 14421.4 294.050  17
   4 -16   4 13741.5 292.217   4
   4  16   4 13825.8 292.516  12
   4 -16   4 14169.9 286.846  22
   4  16   5-25.0175 100.115   9
   4 -16   5 78.7705 82.9007  17
   4  16   5 62.9542 71.5255  12
   4 -16   5 104.892 89.4090  10
   4 -16   6 859.599 85.7221  17
   4 -16   6 724.303 89.8048  10
  -4  17   6 1087.57 81.2673  23
   4  17  -6 1144.72 87.7499  18
  -4  17   5 3931.40 152.034  23
   4 -17  -5 4350.71 149.073  22
   4 -17  -5 4139.15 154.274  20
   4  17  -5 4222.99 153.086  19
   4  17  -5 3878.57 157.092  18
   4  17  -4 326.897 101.158  18
   4 -17  -4 537.807 101.109  20
   4 -17  -4 431.422 104.004  22
   4  17  -3 84.9855 91.7836  18
   4 -17  -3-22.7743 98.4324  22
   4 -17  -3 70.8239 82.1726   4
   4 -17  -3 54.4453 94.3053  20
   4  17  -3 69.6962 85.5475  19
   4  17  -2 248.198 92.3653  18
   4 -17  -2 451.357 90.5169   4
   4 -17  -2 256.900 89.3093  22
  -4 -17   2 202.183 79.6383   5
   4  17  -2 173.280 92.4445  19
   4  17  -1 613.597 109.425  18
   4 -17  -1 702.136 107.459  17
   4 -17  -1 615.381 93.8752   4
  -4 -17   1 673.447 92.8739   5
   4 -17  -1 735.606 101.481  22
  -4  17   0 7982.26 324.647   3
  -4 -17   0 8672.85 224.986   5
   4 -17   0 8068.92 226.401   4
   4 -17   1 107.195 82.1567   4
   4  17   1 208.311 99.7972  14
   4  17   1 316.194 90.8681  12
   4 -17   1 57.5583 83.9832  22
  -4 -17  -1 144.149 77.8737   5
  -4  17  -1 122.717 109.058   3
   4 -17   2 282.642 106.183  17
   4 -17   2 481.915 101.843   4
   4  17   2 273.902 99.3328  14
   4  17   2 263.173 89.5871  12
   4 -17   2 281.061 91.3942  22
  -4 -17  -2 223.192 88.2751   5
   4  17   2 218.516 90.7996  19
   4 -17   3 53.6948 93.9769  17
   4 -17   3 42.1179 82.7179   4
   4  17   3 24.7232 82.4621  12
   4  17   3 60.6606 100.827  14
  -4 -17  -3-6.34819 77.7244   5
   4 -17   3-16.6939 93.9364  22
   4 -17   4 5501.18 195.239  17
   4 -17   4 5630.08 194.979   4
   4  17   4 5379.06 190.348  12
   4 -17   4 5799.91 192.669  22
   4  17   5-6.02454 98.3479   9
   4 -17   5 143.852 82.0644  17
   4  17   5 240.594 79.1200  12
   4 -17   5 212.735 86.6207  10
   4 -17   6 4540.67 134.668  17
   4 -17   6 4203.53 141.293  10
   4  17   6 4226.48 140.803   9
   4  18  -6 66.2713 61.8594  18
  -4  18   6 5.18489 52.2905  23
   4  18  -6-27.1356 38.6264  19
  -4  18   5 6396.83 179.882  23
   4 -18  -5 6915.78 174.391  22
   4  18  -5 7114.74 184.116  19
   4  18  -5 6321.61 176.651  18
   4 -18  -4 4373.51 170.594  22
   4  18  -4 4192.11 168.083  18
   4 -18  -3 2468.95 145.061   4
   4 -18  -3 2734.02 150.354  22
   4  18  -3 3078.02 154.490  19
   4  18  -3 2797.64 147.194  18
  -4 -18   2 5437.59 186.939   5
   4 -18  -2 5456.85 190.038  22
   4 -18  -2 5333.89 190.138   4
   4  18  -2 5901.45 195.452  19
   4  18  -2 5379.60 187.290  18
   4 -18  -1 12686.9 285.285  17
  -4 -18   1 12272.1 268.132   5
   4 -18  -1 12082.4 269.805  22
   4 -18  -1 11806.9 270.723   4
   4  18  -1 13174.6 273.117  19
   4  18  -1 12993.1 270.998  18
   4 -18   0 25020.8 384.894  17
  -4 -18   0 25334.7 377.354   5
   4 -18   0 23890.3 367.423  22
   4  18   0 25723.9 365.678  19
   4 -18   0 23574.8 375.993   4
   4 -18   1 330.407 104.029  17
   4 -18   1 274.355 90.9905   4
   4  18   1 248.223 102.399  14
   4  18   1 335.361 96.2082  12
   4 -18   1 316.091 95.4397  22
  -4 -18  -1 306.433 90.1631   5
   4  18   1 300.067 94.0765  19
   4 -18   2 41.8716 90.9415  17
   4 -18   2 22.4895 79.1185   4
   4  18   2 42.5135 82.0746  12
   4  18   2 82.5676 91.7447  14
   4 -18   2 3.96497 84.4763  22
  -4 -18  -2 113.588 83.3649   5
   4  18   2 20.6949 86.6313  19
   4 -18   3 8321.59 233.923   4
   4 -18   3 8436.44 236.467  17
  -4 -18  -3 8857.81 235.095   5
   4  18   3 7970.15 229.190  14
   4  18   3 8295.24 235.876  12
   4 -18   3 8336.59 230.123  22
   4 -18   4 4067.03 174.031  17
   4  18   4 3755.73 164.718  12
   4 -18   4 4247.27 164.911  22
   4 -18   5 2578.66 131.791  17
   4  18   5 2663.56 129.601  12
   4 -18   5 2662.32 132.823  10
   4  18   5 2559.79 133.030   9
   4  18   6 62.7344 75.3289   9
   4 -18   6 242.974 67.6536  17
   4 -18   6 198.647 74.6594  10
   4  19  -6 383.213 62.0441  18
  -4  19   6 298.326 53.9563  23
   4  19  -5 123.849 75.2439  18
  -4  19   5 122.490 71.1227  23
   4 -19  -5 122.959 69.0623  22
   4  19  -5 155.515 72.4998  19
   4 -19  -4 1908.73 121.238  22
   4  19  -4 1932.98 126.241  19
   4  19  -4 1694.93 120.392  18
   4 -19  -3 3818.42 160.077  22
   4 -19  -3 3512.33 157.656   4
   4  19  -3 3785.51 164.311  19
   4  19  -3 3618.15 158.520  18
  -4 -19   2 7452.83 213.515   5
   4 -19  -2 6897.41 211.681  22
   4 -19  -2 6850.29 213.817   4
   4  19  -2 7444.71 216.636  19
   4  19  -2 7078.45 213.509  18
   4 -19  -1 1894.28 141.501  17
  -4 -19   1 1881.01 126.160   5
   4 -19  -1 1882.39 129.717  22
   4 -19  -1 1644.60 121.453   4
   4  19  -1 1864.35 129.264  19
   4  19  -1 1865.83 131.962  18
   4 -19   0 19741.4 349.842  17
   4 -19   0 18905.1 334.741  22
  -4 -19   0 19843.3 339.544   5
   4  19   0 20762.9 337.687  19
   4 -19   0 18658.1 338.382   4
   4 -19   1 16500.6 322.175  17
   4  19   1 16338.2 303.981  14
  -4 -19  -1 16628.7 315.003   5
   4  19   1 16354.6 321.372  12
   4 -19   1 15486.7 301.934  22
   4  19   1 16703.3 306.088  19
   4 -19   1 15787.7 314.512   4
   4 -19   2 2653.74 147.103   4
   4 -19   2 2960.31 159.491  17
   4  19   2 2956.56 159.489  14
  -4 -19  -2 2940.64 151.231   5
   4  19   2 2879.99 153.925  12
   4 -19   2 2678.24 149.819  22
   4  19   2 2783.22 149.473  19
   4 -19   3 619.990 108.158  17
   4 -19   3 559.646 105.177   4
  -4 -19  -3 536.827 96.2315   5
   4  19   3 481.005 109.600  14
   4  19   3 598.917 100.793  12
   4 -19   3 521.548 102.391  22
   4 -19   4 18050.1 318.596  17
   4  19   4 18299.1 324.934  12
   4 -19   5 4263.71 154.120  17
   4  19   5 4127.35 147.851  12
   4 -19   5 3941.55 148.631  10
   4  19   5 4491.28 152.258   9
   4  19   6 14.0523 64.5050   9
   4 -19   6-16.1995 64.8061  17
   4 -19   6 17.2226 65.8155  10
   4  20  -5 190.649 73.3517  18
  -4  20   5 133.482 67.3977  23
   4 -20  -5 239.499 67.8885  22
   4  20  -5 138.575 69.4299  19
   4  20  -4 422.274 88.7719  18
   4 -20  -4 445.201 85.5760  22
   4  20  -4 495.321 90.8080  19
   4 -20  -3 918.336 101.933  22
   4  20  -3 1036.09 106.395  19
   4  20  -3 999.463 106.893  18
  -4 -20   2 1141.11 112.446   5
   4 -20  -2 1233.04 112.591  22
   4 -20  -2 1128.74 109.765   4
   4  20  -2 1089.55 114.115  19
   4  20  -2 1101.49 116.637  18
   4 -20  -1 59453.2 596.381  17
  -4 -20   1 61158.2 593.483   5
   4 -20  -1 58646.4 579.787  22
   4 -20  -1 60541.9 589.121   4
   4 -20   0 28568.5 418.005  17
   4 -20   0 27568.3 401.214  22
  -4 -20   0 29536.8 414.321   5
   4  20   0 27591.5 412.324  12
   4  20   0 29887.3 405.715  19
   4 -20   0 28225.2 410.266   4
   4 -20   1 3638.16 173.375  17
   4 -20   1 3646.09 163.119  22
   4  20   1 3670.72 171.766  14
  -4 -20  -1 3744.15 169.821   5
   4  20   1 3837.49 172.908  12
   4  20   1 3428.54 161.797  19
   4 -20   1 3604.53 169.156   4
   4 -20   2 89003.4 709.598   4
   4 -20   2 89696.8 727.443  17
   4  20   2 87350.8 698.427  14
   4 -20   2 91016.1 704.470  22
   4  20   2 88034.4 727.368  12
   4  20   2 91641.5 695.060  19
   4 -20   3 99833.6 737.515   4
   4 -20   3 100585. 747.820  17
   4  20   3 97652.5 736.528  14
   4  20   3 98933.7 761.808  12
   4 -20   4 5858.24 191.022  17
   4  20   4 5723.28 191.336  12
   4 -20   5 7476.31 186.088  17
   4  20   5 7148.77 181.004  12
   4 -20   5 7156.19 182.443  10
   4 -20   6 1392.90 80.0933  17
   4 -20   6 1375.93 84.4445  10
   4 -21  -5 1708.88 91.7841  22
  -4 -21   5 1681.40 100.584  24
  -4  21   5 1718.85 95.1616  23
   4  21  -5 1807.82 96.0834  19
   4  21  -5 1781.10 94.7836  18
   4 -21  -4 10153.0 224.288  22
   4  21  -4 10602.3 226.899  19
   4  21  -4 10490.5 217.760  18
   4  21  -3 364.044 90.2038  18
   4 -21  -3 336.928 87.2344  22
   4  21  -3 433.357 90.2342  19
  -4 -21   2 9765.61 240.421   5
   4 -21  -2 10102.1 245.247   4
   4  21  -2 9713.09 242.893  19
   4 -21  -1 22490.5 372.304  17
   4 -21  -1 22358.9 362.649  22
  -4 -21   1 23590.9 373.431   5
   4  21  -1 23820.3 365.343  19
   4 -21  -1 23263.7 367.719   4
   4 -21   0 47294.6 530.656  17
  -4 -21   0 47029.8 524.064   5
   4  21   0 44062.4 512.542  12
   4 -21   0 44162.2 502.531  22
   4  21   0 46098.2 504.058  19
   4 -21   0 46454.5 512.699   4
   4 -21   1 192052. 1057.61  17
   4  21   1 193574. 1008.87  14
  -4 -21  -1 198947. 1068.02   5
   4  21   1 191003. 1060.60  12
   4 -21   1 188626. 1016.50  22
   4  21   1 193688. 1013.72  19
   4 -21   1 201373. 1083.79   4
   4 -21   2 77435.5 655.209   4
   4 -21   2 76631.3 667.399  17
   4  21   2 75054.5 645.139  14
  -4 -21  -2 80756.5 674.483   5
   4 -21   2 78348.4 650.263  22
   4  21   2 76357.8 673.666  12
   4  21   2 78112.5 640.938  19
   4 -21   3 176.066 97.6979  17
   4 -21   3 285.534 90.8351  22
   4  21   3 245.063 108.549  14
   4  21   3 106.580 85.4873  12
   4 -21   4 16673.7 290.832  17
   4  21   4 16510.5 297.991  12
   4 -21   5 26931.2 318.377  17
   4  21   5 26820.8 320.275  12
   4 -21   5 26498.7 317.673  10
   4 -21   6 10546.3 161.226  10
   4  22  -5 326.595 61.8632  18
  -4 -22   5 363.776 71.8928  24
  -4  22   5 300.898 63.9883  23
   4 -22  -5 306.568 64.1833  22
   4  22  -5 328.369 63.9416  19
   4  22  -4 415.470 81.4863  18
   4 -22  -4 390.637 78.9044  22
   4  22  -4 383.991 80.9430  19
   4 -22  -3 2003.77 125.416  22
   4  22  -3 2067.73 126.375  19
   4  22  -3 2010.73 118.217  18
   4 -22  -2 12210.5 267.514  22
   4  22  -2 13222.6 277.077  19
   4 -22  -1 14086.0 297.153  17
  -4 -22   1 14893.3 299.837   5
   4 -22  -1 13600.7 286.394  22
   4  22  -1 15287.1 296.442  19
   4 -22  -1 15295.6 296.264   4
   4 -22   0 7873.33 232.061  17
  -4 -22   0 8443.46 231.640   5
   4  22   0 8182.01 230.905  12
   4 -22   0 7753.95 221.721  22
   4  22   0 8408.15 229.170  19
   4 -22   0 8383.02 227.037   4
   4 -22   1 7142.16 222.756  17
   4  22   1 7362.00 219.015  14
  -4 -22  -1 7002.17 219.461   5
   4  22   1 6560.01 210.672  12
   4 -22   1 6560.66 209.225  22
   4  22   1 6647.33 205.955  19
   4 -22   1 7204.00 221.046   4
   4 -22   2 88022.3 707.629  17
   4  22   2 88774.5 716.121  12
   4  22   2 87059.4 690.906  14
   4  22   2 88845.5 680.154  19
   4 -22   3 80797.0 654.279  17
   4  22   3 78810.7 642.710  14
   4  22   3 79583.4 663.244  12
   4 -22   4 6356.18 184.800  17
   4  22   4 6288.02 188.253  12
   4 -22   5 567.647 80.9601  17
   4  22   5 455.676 71.2298  12
   4  22   5 492.912 84.4842  13
   4 -22   5 448.370 77.7332  10
  -4 -23   5 1730.11 87.6019  24
  -4  23   5 1608.30 80.8021  23
   4 -23  -5 1591.82 79.4533  22
   4  23  -5 1750.04 79.2476  19
   4 -23  -4 686.132 83.3374  22
   4  23  -4 754.633 83.6482  19
   4 -23  -3 975.891 98.1548  22
   4  23  -3 1107.03 102.356  19
   4 -23  -2 5397.40 183.607  22
   4  23  -2 6173.06 191.633  19
   4 -23  -1 1617.04 131.972  17
   4  23  -1 1601.98 117.254  12
   4 -23  -1 1510.52 115.276  22
   4  23  -1 1501.51 119.150  19
   4 -23   0 355.720 103.037  17
   4 -23   0 342.199 92.3709   4
  -4 -23   0 203.382 100.148   5
   4  23   0 361.597 99.1386  19
   4 -23   0 356.330 89.5939  22
   4  23   0 343.075 90.7669  12
   4 -23   1 42406.4 494.805  17
   4  23   1 41980.8 492.490  12
   4 -23   1 42032.6 474.000  22
   4  23   1 42286.5 477.362  19
   4 -23   2 6948.00 211.110  17
   4  23   2 7074.96 214.543  14
   4  23   2 7250.01 214.641  12
   4 -23   2 7547.90 207.622  22
   4 -23   3 1103.19 113.400  17
   4  23   3 1166.77 118.133  14
   4 -23   4 2980.49 135.468  17
   4  23   4 3017.88 133.050  12
   4 -23   5 8875.65 171.448  17
   4  23   5 8935.91 171.287  12
   4 -23   5 9175.61 171.978  10
  -4 -24   4 138.474 76.9632  24
   4 -24  -4 144.531 64.3135  22
   4  24  -4 117.502 64.8590  19
   4 -24  -3 5295.74 165.846  22
   4  24  -3 5577.52 169.767  19
   4 -24  -2 2085.59 124.325  22
   4  24  -2 2120.47 125.757  19
   4  24  -2 2321.83 122.999  12
   4 -24  -1 10536.0 250.442  17
   4 -24  -1 10392.8 242.447  22
   4  24  -1 11003.6 246.214  12
   4  24  -1 11149.7 249.568  19
   4 -24   0 12663.7 275.902  17
   4  24   0 11860.6 262.077  12
   4 -24   0 12567.8 261.870  22
   4  24   0 12408.9 263.958  19
   4 -24   1 732.807 104.106  17
   4  24   1 701.417 107.080  14
   4  24   1 621.625 91.2645  12
   4 -24   1 939.941 104.195  22
   4  24   1 733.011 98.2823  19
   4 -24   2 3697.12 160.620  17
   4  24   2 3426.96 160.862  14
   4  24   2 3679.43 156.903  12
   4 -24   3 11077.6 241.918  17
   4  24   3 11566.5 246.628  14
   4  24   3 11153.0 242.735  12
   4 -24   4 357.055 81.0769  17
   4  24   4 281.110 71.7825  12
   4  24   5 732.467 77.0363  13
   4 -24   5 769.593 71.2280  17
   4  24   5 635.492 63.2403  12
   4 -24   5 773.141 70.1115  10
  -4 -25   4 5700.57 146.678  24
  -4  25   4 5651.55 141.141  23
   4 -25  -4 5338.73 139.663  22
   4  25  -4 5839.21 139.854  19
  -4 -25   3 8011.33 192.270  24
   4 -25  -3 7944.98 189.463  22
   4  25  -3 8135.84 189.607  19
  -4  25   2 7230.40 187.012  14
   4  25  -2 7039.55 180.492  12
   4 -25  -2 6676.47 189.028  22
   4  25  -2 6792.57 190.371  19
  -4 -25   1 5565.19 171.679  24
   4  25  -1 5517.50 174.002  12
   4 -25  -1 5239.15 174.369  22
   4  25  -1 5363.96 178.475  19
   4 -25   0 8485.00 224.967  17
   4 -25   0 8794.87 216.972  22
   4  25   0 8811.55 221.333  12
   4  25   0 8460.93 218.017  19
   4 -25   1 1061.93 108.907  17
   4  25   1 1175.67 114.404  14
   4  25   1 1177.30 105.408  12
   4 -25   1 1195.49 105.982  22
   4  25   1 1111.59 107.107  19
   4 -25   2 905.678 107.242  17
   4  25   2 845.655 108.601  14
   4  25   2 924.520 97.5591  12
   4 -25   2 1007.49 96.0029  22
   4 -25   3 1315.49 105.005  17
   4  25   3 1328.67 101.391  12
   4 -25   4 115.981 68.7539  17
   4  25   4 113.493 62.6867  12
   4 -25   4 106.605 65.0734  10
   4  25   5 5935.71 119.018  12
  -4 -26   4 4525.62 122.240  24
  -4  26   4 4508.69 116.945  23
   4 -26  -4 4668.69 120.215  22
   4  26  -4 4923.58 119.107  19
  -4 -26   3 1022.87 94.9507  24
   4 -26  -3 1013.44 85.5359  22
   4  26  -3 965.206 86.0921  19
  -4 -26   2 16456.1 266.512  24
   4 -26  -2 15985.9 268.668  22
  -4 -26   1 5925.16 171.078  24
   4  26  -1 6126.90 173.076  12
   4 -26  -1 5632.94 172.914  22
   4  26  -1 5962.11 178.730  19
   4 -26   0 934.926 102.180  17
   4  26   0 926.036 93.4078  12
   4 -26   0 958.003 96.1983  22
   4  26   0 850.776 98.8963  19
   4 -26   1 26242.7 362.912  17
   4  26   1 28054.8 361.709  14
   4  26   1 26269.4 359.852  12
   4 -26   1 28764.3 350.936  22
   4  26   1 26305.9 353.555  19
   4 -26   2 1512.83 113.311  17
   4  26   2 1345.00 112.899  14
   4  26   2 1454.29 104.601  12
   4 -26   3 573.630 88.0775  17
   4  26   3 528.644 79.1883  12
   4 -26   4 8492.30 168.166  17
   4  26   4 8660.31 172.113  12
   4 -27  -4 5097.49 111.372  22
  -4 -27   4 5287.38 116.937  24
  -4  27   4 5009.05 108.853  23
  -4 -27   3 50.6176 66.5777  24
   4 -27  -3 38.3341 60.5369  22
   4  27  -3 28.4197 59.6897  19
  -4  27   2 471.591 80.0348  14
  -4 -27   2 443.001 82.2252  24
   4 -27  -2 447.478 76.1231  22
   4  27  -2 437.158 76.1633  19
  -4 -27   1 782.665 85.4778  24
   4  27  -1 756.148 81.0292  12
   4 -27  -1 724.830 84.6104  22
   4  27  -1 632.954 88.9416  19
   4 -27   0 2891.61 136.892  17
   4  27   0 2945.87 128.589  12
   4 -27   0 2983.30 128.800  22
   4  27   0 2806.03 130.524  19
   4 -27   1 6960.33 191.847  17
   4  27   1 7881.31 194.164  14
   4  27   1 7303.93 188.563  12
   4 -27   1 7623.97 179.338  22
   4  27   1 7141.83 187.146  19
   4 -27   2 7621.57 191.016  17
   4  27   2 7570.91 191.274  14
   4  27   2 7467.34 185.402  12
   4 -27   3 2279.60 112.324  17
   4  27   3 2270.52 106.512  12
   4 -27   4 126.655 58.1647  17
   4  27   4 139.246 52.2888  12
  -4 -28   3 361.036 70.4808  24
   4 -28  -3 371.438 60.3024  22
   4  28  -3 349.809 62.3090  19
  -4  28   2-27.6701 65.8332  14
  -4 -28   2 30.9426 67.1950  24
   4 -28  -2 9.31147 59.1477  22
   4  28  -2 28.9437 62.1853  19
   4  28  -1 823.637 75.7234  12
  -4  28   1 1019.14 96.6187  14
   4 -28  -1 753.978 79.2429  22
   4  28  -1 706.142 83.8736  19
   4 -28   0 3437.02 139.787  17
   4  28   0 3577.27 129.145  12
   4 -28   0 3499.31 126.676  22
   4  28   0 3421.61 132.850  19
   4 -28   1 3.68254 70.5407  17
   4  28   1 8.68329 62.3041  12
   4  28   1 28.0454 74.4544  14
   4 -28   1-8.79165 60.0020  22
   4  28   1 97.4020 68.9269  19
   4 -28   2 6227.45 164.696  17
   4  28   2 6263.83 160.722  12
   4 -28   3 5288.81 139.321  17
   4  28   3 5306.01 137.371  12
   4  28   4 2079.53 76.1008  12
  -4 -29   3 1599.27 76.1283  24
   4 -29  -3 1575.36 71.9828  22
   4  29  -3 1623.34 73.5004  19
  -4  29   2 4383.90 117.873  14
  -4 -29   2 4279.70 119.841  24
   4 -29  -2 4182.44 118.008  22
   4  29  -2 4203.73 122.627  19
  -4  29   1 1206.73 91.8317  14
   4 -29  -1 1300.28 83.6335  22
   4  29  -1 1321.20 89.4058  19
  -4  29   0 6045.52 162.751  14
   4 -29   0 6060.54 145.512  22
   4  29   0 6174.29 149.575  12
   4  29   0 5958.40 155.284  19
   4 -29   1 385.610 78.2202  17
   4  29   1 389.012 66.4487  12
   4 -29   2 1431.48 91.2720  17
   4  29   2 1569.17 87.8758  12
   4 -29   3 193.347 58.9223  17
   4  29   3 196.743 52.9101  12
  -4 -30   2 221.569 57.7475  24
   4 -30  -2 216.391 52.2671  22
   4  30  -2 266.412 55.8351  19
  -4  30   1 4897.95 131.090  14
   4 -30  -1 5094.27 122.108  22
   4  30  -1 4813.41 128.756  19
  -4  30   0 1886.42 100.241  14
   4  30   0 2094.50 87.7152  12
   4  30   0 1947.60 94.8044  19
   4 -30   1 37.5501 63.0299  17
  -4  30  -1 126.027 70.5712  14
   4  30   1 51.8293 51.7546  12
   4 -30   2 385.829 67.0228  17
  -4  30  -2 527.410 68.8301  14
   4  30   2 445.669 59.6340  12
  -4  31   1 773.587 68.9197  14
   4  31  -1 779.213 64.7622  19
  -4  31   0 937.112 76.0824  14
  -4  31  -1 1678.82 84.5679  14
   4  31   1 1730.96 72.7532  12
   4 -31   2 73.1765 49.9612  17
  -4  32   0-5.06445 50.1969  14
  -5   0   7 30.7071 52.8656  23
  -5   0   6 3581.82 145.213  23
  -5   0   5 24.2387 80.1617  23
   5   0  -4 4096.14 184.302   6
   5   0  -4 4199.44 188.391  15
  -5   0   4 4644.81 173.246  23
   5   0  -3 165.143 109.227  15
   5   0  -3 137.908 96.1581   6
   5   0  -3-27.2736 122.060  20
   5   0  -2 615285. 7268.16   6
   5   0  -1 155.542 78.6171   6
   5   0   0 43471.2 463.222   6
   5   0   1 41.1932 63.6316   6
   5   0   2 12130.4 262.388   6
   5   0   2 12387.4 397.334   2
   5   0   3 62.1697 166.340   2
   5   0   4 794.922 139.980  25
   5   0   4 480.123 111.359  13
   5   0   4 448.516 94.2590  22
   5   0   4 528.238 107.032  11
   5   0   4 966.589 106.051  21
   5   0   4 530.341 111.026  10
   5   0   4 829.490 122.637   9
   5   0   5 302.238 107.304   9
   5   0   5 172.972 128.866  13
   5   0   5 38.2078 119.322  25
   5   0   5 186.377 102.463  10
   5   0   6 7973.01 224.740  25
   5   0   6 8479.50 228.173   9
   5   0   7 717.928 133.878   9
   5   0   7 695.444 107.603  25
  -5  -1   7 1030.85 72.5282  23
  -5   1   7 965.301 71.0156  23
  -5  -1   6 10595.6 227.551  23
   5  -1  -6 11038.1 213.163  20
  -5  -1   5 5891.32 189.565  23
  -5   1   5 5878.82 192.006  23
   5  -1  -5 5705.04 200.360  20
   5   1  -4 221418. 1157.04   6
   5  -1  -4 225730. 1147.42   6
   5   1  -4 228242. 1119.72  15
   5  -1  -4 229826. 1113.60  15
  -5   1   4 230978. 1094.89  23
  -5  -1   4 231862. 1089.23  23
   5  -1  -4 221513. 1092.94  20
   5   1  -3 68143.2 636.336   6
   5  -1  -3 69433.0 628.524   6
   5   1  -3 72143.2 620.850  15
   5  -1  -3 71634.8 619.417  15
   5  -1  -3 69105.1 609.224  20
   5   1  -2 2647.84 149.276   6
   5  -1  -2 2777.28 151.446   6
   5   1  -1 23568.8 352.904   6
   5  -1  -1 24232.1 351.906   6
   5   1   0 44328.1 470.996   6
   5  -1   0 44399.9 467.787   6
   5   1   1 129.502 79.1665   6
   5  -1   1 72.1334 64.8805   6
   5   1   2 9104.35 231.938   6
   5  -1   2 9175.13 229.516   6
   5  -1   2 9486.81 360.523   2
   5   1   2 9270.28 352.989   2
   5  -1   3 3918.59 272.718   2
   5   1   3 3898.91 262.948   2
   5  -1   4 14927.9 293.151  13
   5   1   4 15222.6 293.381  13
   5   1   4 14060.6 311.016  25
   5  -1   4 14442.4 316.537  25
   5  -1   4 15183.9 297.761  22
   5   1   4 14413.8 311.861  11
   5  -1   4 14640.1 313.053  11
   5   1   4 14920.7 297.072  22
   5   1   4 15397.0 308.342  21
   5  -1   4 14349.1 300.089  21
   5   1   4 14981.9 303.151  10
   5  -1   4 15120.9 301.364  10
   5  -1   4 14876.2 295.673   9
   5   1   4 14993.6 298.783   9
   5  -1   5 486.290 113.418   9
   5   1   5 308.774 105.526   9
   5   1   5 170.654 124.094  25
   5  -1   5 518.396 131.844  13
   5  -1   5 46.0678 120.686  25
   5   1   5 63.3435 123.394  13
   5   1   5 378.833 110.774  10
   5  -1   5 187.747 100.138  10
   5  -1   6 3459.92 167.899  25
   5   1   6 3380.18 166.258  25
   5  -1   6 4113.84 167.334  10
   5   1   6 3919.36 156.696   9
   5   1   7 451.606 134.157   9
   5  -1   7 485.113 112.400  25
   5   1   7 572.242 109.300  25
  -5  -2   7 250.798 56.6659  23
  -5   2   7 158.179 54.5426  23
  -5  -2   6 5712.12 173.916  23
  -5   2   6 5211.70 166.762  23
   5  -2  -6 5671.26 164.996  20
   5   2  -5 4114.20 167.367  15
  -5  -2   5 3819.72 160.145  23
  -5   2   5 3926.60 161.628  23
   5   2  -4 11087.8 275.105   6
   5   2  -4 12048.1 276.069  15
   5  -2  -4 11754.9 272.174   6
   5  -2  -4 11954.3 275.740  15
  -5  -2   4 11956.5 257.419  23
  -5   2   4 12367.5 265.959  23
   5  -2  -4 10617.1 271.382  20
   5   2  -4 11922.8 264.297  18
   5   2  -3 3142.02 163.762   6
   5  -2  -3 3086.74 155.924   6
   5   2  -3 3270.17 157.962  15
   5  -2  -3 3301.54 163.895  15
   5  -2  -3 3002.05 172.936  20
   5   2  -3 3239.13 157.762  18
   5   2  -2 47663.4 520.499   6
   5  -2  -2 52257.6 522.898   6
   5   2  -1 45540.1 493.951   6
   5  -2  -1 47104.1 481.573   6
   5   2   0 2687.64 131.981   6
   5  -2   0 2666.90 133.375   6
   5   2   1 5329.69 177.341   6
   5  -2   1 5250.56 170.319   6
   5   2   2 246.790 86.3078   6
   5  -2   2 275.615 74.8308   6
   5   2   2 474.021 172.133   2
   5  -2   3 4776.44 293.437   2
   5   2   3 4049.47 279.308   2
   5   2   4 12861.0 281.397  10
   5  -2   4 12730.0 279.902  13
   5   2   4 12369.4 269.099  13
   5   2   4 11499.7 287.866  25
   5  -2   4 11155.6 283.927  25
   5   2   4 12103.7 269.647  22
   5  -2   4 12718.3 277.080  22
   5   2   4 12699.9 292.387  11
   5  -2   4 12340.5 289.747  11
   5   2   4 13203.5 282.703  21
   5  -2   4 12055.7 278.345  21
   5  -2   4 12256.0 274.140  10
   5  -2   4 12030.1 272.151   9
   5   2   4 11878.0 269.956   9
   5  -2   5 1616.60 162.551  13
   5   2   5 782.119 136.449  25
   5  -2   5 747.663 136.893  25
   5  -2   5 892.551 116.758  10
   5   2   5 860.754 129.605  13
   5  -2   5 869.092 112.179  21
   5   2   5 1333.22 134.518  10
   5  -2   5 1339.98 134.107   9
   5   2   5 944.478 124.786   9
   5  -2   6 2249.58 153.512  25
   5  -2   6 2615.87 145.992  10
   5   2   6 2039.92 149.361  25
   5   2   6 2422.57 139.262   9
   5  -2   7 1412.03 119.452  25
   5   2   7 1702.15 113.993  25
  -5  -3   7 845.033 67.7173  23
  -5   3   7 829.571 68.4198  23
  -5  -3   6 1218.90 101.393  23
  -5   3   6 1316.97 103.277  23
   5  -3  -6 1281.76 108.612  20
   5   3  -5 10778.2 245.139  15
  -5  -3   5 10327.9 242.441  23
  -5   3   5 10028.5 241.278  23
   5   3  -5 10176.9 233.121  18
   5   3  -4 8096.31 237.558   6
   5   3  -4 8750.67 238.361  15
   5  -3  -4 8507.41 231.442   6
   5  -3  -4 8756.02 238.036  15
  -5  -3   4 8841.05 223.798  23
  -5   3   4 8770.85 227.570  23
   5   3  -4 8276.06 226.797  18
   5   3  -3 27344.8 390.456  15
   5  -3  -3 28276.5 399.252   6
   5  -3  -3 28248.1 397.344  15
   5  -3  -3 27217.1 396.634  20
   5   3  -3 28253.4 384.307  18
   5   3  -2 70918.4 634.287   6
   5  -3  -2 76773.0 625.200   6
   5   3  -1 1730.51 124.104   6
   5  -3  -1 1877.82 115.766   6
   5  -3   0 4409.94 157.085   6
   5  -3   0 4702.16 151.495   4
   5   3   1 2283.23 131.729   6
   5  -3   1 2334.29 124.772   6
   5  -3   1 2513.40 116.210   4
   5  -3   2 842.087 88.2800   4
   5   3   2 774.855 98.9890   6
   5  -3   2 795.764 94.1275   6
   5   3   2 1077.11 189.067   2
   5  -3   3 19711.1 508.492   2
   5   3   3 20559.4 522.045   2
   5  -3   4 1023.36 156.469   9
   5   3   4 822.517 124.572   9
   5  -3   4 983.591 142.656  13
   5  -3   4 1203.61 143.748  25
   5   3   4 968.070 145.246  25
   5  -3   4 716.027 96.8421  22
   5   3   4 787.047 107.602  11
   5  -3   4 794.816 105.946  11
   5   3   4 722.627 120.806  13
   5   3   4 773.559 99.8907  21
   5  -3   4 781.539 106.811  21
   5   3   4 1215.16 132.924  10
   5  -3   4 967.782 116.139  10
   5   3   5 3195.78 178.965  25
   5   3   5 3063.00 156.474  13
   5  -3   5 2555.75 172.300  25
   5  -3   5 2942.26 155.695  10
   5  -3   5 2882.05 153.124  21
   5   3   5 2997.13 162.983   9
   5  -3   6 272.599 159.873   9
   5   3   6 521.809 106.403   9
   5   3   6 323.917 119.986  25
   5  -3   6 295.439 114.957  25
   5  -3   6 315.766 101.439  10
   5  -3   7 2318.19 125.958  25
   5   3   7 2851.43 123.868  25
  -5   4   7 757.449 65.2372  23
  -5  -4   6 6158.53 175.484  23
  -5   4   6 5555.22 168.998  23
   5  -4  -6 5721.08 170.255  20
   5   4  -6 6177.79 158.554  18
   5   4  -5 2206.66 135.045  15
  -5  -4   5 2115.05 128.354  23
  -5   4   5 1870.33 124.367  23
   5  -4  -5 1811.77 142.084  20
   5   4  -5 1964.42 134.376  18
   5   4  -4 7105.95 219.577  15
   5   4  -4 7089.25 229.799   6
   5  -4  -4 7437.71 221.319  15
  -5  -4   4 7689.42 211.316  23
  -5   4   4 7493.74 214.631  23
   5  -4  -4 6403.80 214.972  20
   5   4  -4 6879.31 211.152  18
   5   4  -3 6829.50 212.400  15
   5   4  -3 6708.77 216.989   6
   5  -4  -3 7347.21 212.224   6
   5  -4  -3 7231.21 216.016  15
  -5   4   3 7549.63 205.390  23
   5  -4  -3 6335.79 218.140  20
   5   4  -3 7050.97 208.585  18
   5   4  -2 61.4854 78.9453   6
   5  -4  -2 52.1408 77.1318   6
  -5   4   2 15.1048 109.338   3
   5  -4  -1 10014.3 221.742   6
   5  -4  -1 10096.0 225.731   4
   5  -4   0 50.0431 67.8489   4
   5   4   0 54.2854 72.4227   6
   5   4   1 5282.83 183.055   6
   5  -4   1 5658.77 173.165   6
   5  -4   1 5826.05 168.339   4
   5  -4   2 38.0246 65.4731   4
   5   4   2 39.8003 73.5314   6
   5  -4   2 25.1582 66.7967   6
   5   4   2 114.308 149.189   2
   5  -4   3 20924.5 318.355   4
   5  -4   3 20732.0 526.570   2
   5   4   3 19730.9 343.272  18
   5   4   3 20036.0 510.162   2
   5  -4   4 77.5845 195.427   9
   5   4   4 578.974 119.891   9
   5  -4   4 940.377 149.872  13
   5   4   4 694.712 142.831  25
   5  -4   4 926.455 145.295  25
   5  -4   4 683.264 100.923  22
   5   4   4 590.106 104.785  11
   5  -4   4 598.522 106.893  11
   5   4   4 760.769 122.045  13
   5   4   4 1397.58 143.920  10
   5   4   4 550.666 92.3748  21
   5  -4   4 547.866 93.1509  21
   5  -4   4 532.875 105.424  10
   5  -4   5-22.9295 192.101   9
   5   4   5 223.921 109.353   9
   5   4   5 230.738 127.561  25
   5  -4   5 250.868 124.480  25
   5  -4   5 189.382 91.3694  22
   5  -4   5 288.325 96.3716  21
   5  -4   5 260.164 96.5172  10
   5   4   5 227.202 104.750  13
   5  -4   6 515.770 163.576   9
   5   4   6 514.759 108.821   9
   5   4   6 447.116 121.209  25
   5  -4   6 384.625 116.086  25
   5  -4   6 460.934 102.754  10
   5  -4   7 4262.47 143.655  25
   5   4   7 4815.07 138.283  25
  -5  -5   6 9138.41 207.143  23
  -5   5   6 8828.17 204.180  23
   5  -5  -6 8661.25 198.514  20
   5   5  -6 9038.48 188.679  18
   5   5  -5 2374.52 139.138  15
  -5   5   5 1917.88 127.627  23
   5  -5  -5 1940.95 142.308  20
   5   5  -5 2002.61 130.960  18
   5   5  -4 2289.96 145.784  15
   5   5  -4 2122.87 139.750   6
   5  -5  -4 2193.72 144.092  15
  -5  -5   4 2362.12 132.418  23
  -5   5   4 2362.90 137.879  23
   5  -5  -4 1799.59 146.082  20
   5   5  -4 2370.17 142.297  18
   5   5  -3 68.4881 90.6945  18
   5   5  -3 40.0711 99.1525  15
   5  -5  -3 37.6156 94.9096  15
   5   5  -3 61.5037 86.1824   6
  -5   5   3 29.6269 79.9334  23
   5  -5  -3-41.3910 112.046  20
   5   5  -2 2126.83 136.139   6
   5  -5  -2 2560.30 129.113   6
  -5   5   2 2469.98 179.325   3
   5  -5  -1 24166.0 332.412   6
   5  -5  -1 23281.4 341.824   4
   5  -5   0 10328.7 222.873   6
   5  -5   0 9862.07 221.084   4
   5  -5   1 12472.5 244.844   6
   5  -5   1 12276.1 243.572   4
   5  -5   2 36755.0 419.892   4
   5   5   2 37052.7 649.784   2
   5   5   3 69.5600 90.5280  18
   5   5   3 104.099 108.913   9
   5  -5   3 177.668 76.7355   4
   5   5   3 144.961 102.413  13
   5  -5   3 326.555 128.556  13
   5   5   3 87.3011 80.8067   6
   5  -5   3 294.996 137.585  25
   5  -5   3 77.5950 80.8070  22
   5   5   3 45.2662 86.8258  11
   5  -5   3 52.2051 86.3615  11
   5  -5   3 35.9717 84.3658  21
   5  -5   4 12867.8 267.318   4
   5  -5   4 12496.9 279.741  13
   5   5   4 11680.4 264.304  13
   5   5   4 13760.0 301.221  25
   5  -5   4 10765.5 279.142  25
   5  -5   4 11680.8 269.558  22
   5   5   4 11924.3 280.678  11
   5  -5   4 11657.6 278.578  11
   5   5   4 12121.2 264.967  21
   5  -5   4 10854.1 270.412  21
   5  -5   4 11564.4 265.553  10
   5  -5   4 10728.0 306.298   9
   5   5   4 11126.5 268.245   9
   5   5   5 18813.3 315.486  13
   5   5   5 17937.1 324.589  25
   5  -5   5 15785.8 321.715  25
   5  -5   5 16992.1 320.544  22
   5  -5   5 16053.7 318.630  21
   5  -5   5 16628.8 315.689  10
   5  -5   5 15933.7 342.405   9
   5   5   5 16868.5 316.256   9
   5   5   6 2363.99 150.139  25
   5  -5   6 2540.10 147.451  25
   5  -5   6 2001.61 130.572  10
   5  -5   6 2898.45 193.887   9
   5   5   6 2061.50 133.062   9
   5   5   7 28.0405 133.066   9
   5   5   7-9.63388 37.8488  25
  -5  -6   6 1583.98 105.365  23
  -5   6   6 1453.97 103.613  23
   5  -6  -6 1261.67 105.580  20
   5   6  -6 1451.31 97.9246  18
   5   6  -5 1119.10 113.024  15
  -5  -6   5 1162.15 108.331  23
  -5   6   5 1048.31 106.437  23
   5  -6  -5 712.554 116.566  20
   5   6  -5 1011.26 109.230  18
   5   6  -4 2834.78 157.385  15
   5   6  -4 2682.16 159.342   6
   5  -6  -4 2715.27 156.950  15
  -5  -6   4 2773.59 139.737  23
  -5   6   4 2664.96 144.395  23
   5  -6  -4 2500.65 154.281  20
   5   6  -4 2661.23 150.039  18
   5   6  -3 6346.26 205.724  15
   5   6  -3 6012.56 207.859   6
   5  -6  -3 6521.53 210.704  15
  -5   6   3 6567.38 195.644  23
   5  -6  -3 5746.65 208.630  20
   5   6  -3 6325.41 205.730  18
   5   6  -2 3224.65 157.725   6
  -5   6   2 2778.40 192.162   3
   5   6  -1 3875.39 163.442   6
   5  -6  -1 3822.90 155.914   4
   5   6   0 1837.14 121.887   6
   5  -6   0 1792.72 113.760   4
   5  -6   1 445.376 79.3313   4
   5   6   1 422.938 79.4378   6
   5  -6   1 517.513 80.1554   6
   5  -6   2 7533.99 204.730   4
   5   6   2 7302.59 216.855   6
   5  -6   2 7636.94 197.148   6
   5   6   2 7706.53 326.795   2
   5  -6   3 2089.78 126.839   4
   5   6   3 1995.27 130.040   6
   5   6   3 2119.93 141.988  13
   5  -6   3 2119.39 133.517  22
   5  -6   3 2349.42 168.049  25
   5   6   3 2220.31 136.176  11
   5  -6   3 2338.67 142.081  11
   5  -6   3 2462.58 139.691  21
   5  -6   3 2217.68 136.036  10
   5  -6   3 2250.65 206.315   9
   5   6   3 2171.58 143.587  18
   5   6   3 2055.79 143.900   9
   5   6   4 16862.9 320.731  25
   5  -6   4 16332.0 301.506   4
   5  -6   4 14385.4 312.395  25
   5   6   4 14983.8 295.843  13
   5  -6   4 15049.3 304.361  22
   5   6   4 15905.7 318.772  11
   5  -6   4 15601.1 315.195  11
   5   6   4 16432.6 299.252  21
   5  -6   4 14833.6 312.639  21
   5  -6   4 16098.8 308.768  10
   5  -6   4 13825.3 329.751   9
   5   6   4 14800.9 302.481   9
   5   6   5 7829.31 217.695  13
   5   6   5 7977.15 233.048  25
   5  -6   5 7156.57 228.905  25
   5  -6   5 7220.75 217.325  22
   5  -6   5 7495.48 223.830  21
   5  -6   5 7454.52 219.222  10
   5  -6   5 7520.51 265.037   9
   5   6   5 7119.11 221.226   9
   5  -6   6 1375.34 117.176  10
   5   6   6 1482.77 122.140   9
   5  -6   7 9625.26 182.301  25
   5   6   7 8492.94 199.396   9
  -5  -7   6 1351.21 98.8510  23
  -5   7   6 1321.18 97.4543  23
   5  -7  -6 1376.24 104.825  20
   5   7  -6 1423.38 99.5387  18
  -5   7   5 3365.53 150.329  23
   5  -7  -5 3236.49 160.380  20
   5   7  -5 3410.29 154.936  18
   5   7  -4 24890.9 379.806  15
   5   7  -4 23919.2 390.518   6
   5  -7  -4 25292.7 372.490  15
  -5   7   4 24318.9 371.488  23
   5   7  -4 23381.5 366.958  18
   5   7  -3 7772.06 223.930  15
   5   7  -3 7713.02 234.317   6
   5  -7  -3 8377.32 228.756  15
  -5   7   3 8338.29 219.302  23
   5  -7  -3 7371.16 229.255  20
   5   7  -3 7563.73 222.133  18
   5   7  -2 5151.48 193.038   6
  -5   7   2 5644.42 268.244   3
   5   7  -1 18112.2 324.901   6
   5  -7  -1 18567.6 317.299   4
   5   7   0 14386.4 287.530   6
   5  -7   0 14539.4 276.617   4
   5  -7   1 36.1128 69.1025   4
   5   7   1 22.8345 77.0465   6
   5  -7   2 6133.17 191.496   4
   5   7   2 6026.89 201.932   6
   5   7   2 6608.22 306.883   2
   5  -7   3 1635.10 118.580   4
   5  -7   3 1583.79 123.078  22
   5   7   3 1748.20 129.618  11
   5  -7   3 1588.57 122.047  11
   5  -7   3 1831.24 160.529  25
   5   7   3 1455.09 129.244  13
   5  -7   3 1504.57 119.806  21
   5  -7   3 1586.94 123.807  10
   5  -7   3 1688.56 209.163   9
   5   7   3 1887.80 137.491  18
   5   7   3 1522.00 136.312   9
   5  -7   4 40112.9 470.006   4
   5   7   4 38715.8 462.220  13
   5  -7   4 38467.1 482.960  25
   5  -7   4 37159.8 471.702  22
   5   7   4 40512.5 491.142  11
   5  -7   4 40462.5 490.069  11
   5  -7   4 37105.3 483.731  21
   5  -7   4 39583.5 469.736  10
   5  -7   4 36771.2 466.416   9
   5   7   4 38631.1 470.595   9
   5   7   5 14093.1 274.235  13
   5  -7   5 14036.5 297.658  25
   5  -7   5 13012.0 281.832  22
   5  -7   5 12735.0 282.212  21
   5  -7   5 13314.0 282.507  10
   5  -7   5 13862.5 307.690   9
   5   7   5 13474.3 284.740   9
   5  -7   6 7917.24 210.928  25
   5  -7   6 7417.08 197.398  10
   5   7   6 7357.19 197.009   9
   5   7   7 193.717 129.266   9
   5  -7   7 1559.58 108.099  25
  -5  -8   6 826.707 88.2954  23
  -5   8   6 843.611 86.3886  23
   5  -8  -6 676.767 92.3825  20
   5   8  -6 824.003 87.5705  18
  -5  -8   5 3582.72 152.726  23
  -5   8   5 3674.46 156.069  23
   5  -8  -5 3170.10 160.231  20
   5   8  -5 3203.15 151.323  18
   5   8  -4 26223.2 390.267  15
   5   8  -4 25460.0 401.541   6
  -5   8   4 26190.4 385.367  23
   5  -8  -4 24563.6 381.172  20
   5   8  -4 24958.1 380.664  18
   5   8  -3 6396.12 206.012  15
   5   8  -3 6536.64 217.631   6
   5  -8  -3 6690.84 212.913  15
  -5   8   3 6892.79 199.595  23
   5  -8  -3 6585.91 211.375  20
   5   8  -3 6264.52 204.078  18
   5   8  -2 5009.57 190.763   6
  -5   8   2 5489.07 274.943   3
   5   8  -1 5879.68 195.356   6
  -5   8   1 6241.46 263.388   3
   5  -8  -1 5466.73 186.220   4
   5   8   0 13563.6 283.173   6
   5  -8   0 13688.0 271.259   4
   5   8   1 5991.99 194.076   6
   5  -8   1 5707.04 184.171   4
   5  -8   2 12250.3 265.724   4
   5   8   2 11834.1 270.778   6
   5   8   2 12553.5 396.885   2
   5  -8   3 17307.4 312.447   4
   5  -8   3 17529.8 319.542  22
   5   8   3 19879.5 338.915  11
   5  -8   3 19663.3 338.136  11
   5  -8   3 17346.9 328.456  21
   5  -8   3 17624.4 331.133  25
   5  -8   3 18705.0 311.814  10
   5  -8   3 18257.6 343.944   9
   5   8   3 17433.2 325.902  18
   5   8   3 18017.2 312.459  13
   5   8   3 18886.7 324.838   9
   5  -8   4 6179.50 197.050   4
   5   8   4 5961.34 203.006  13
   5  -8   4 5743.10 216.833  25
   5  -8   4 5462.05 195.325  22
   5   8   4 6055.24 201.444  11
   5  -8   4 6289.10 208.456  11
   5  -8   4 5588.89 203.840  21
   5  -8   4 5862.89 197.263  10
   5  -8   4 6051.62 251.818   9
   5   8   4 5950.76 210.942   9
   5   8   5 389.425 112.862   9
   5   8   5 494.080 110.635  13
   5  -8   5 510.343 97.0950  22
   5  -8   5 693.703 100.960  21
   5  -8   5 525.978 101.812  10
   5  -8   6 4607.50 167.758  25
   5   8   6 4433.05 161.563   9
   5   8   7 257.030 122.787   9
   5  -8   7 1909.24 103.757  25
   5   9  -6 334.457 77.9235  18
  -5  -9   6 344.235 72.9921  23
  -5   9   6 321.266 71.2720  23
  -5  -9   5 2504.68 133.284  23
  -5   9   5 2609.62 137.115  23
   5  -9  -5 2336.70 142.396  20
   5   9  -5 2432.46 135.246  18
   5   9  -4 2948.96 157.943  15
  -5   9   4 2859.55 145.444  23
   5  -9  -4 2678.46 157.732  20
   5   9  -4 2597.99 150.848  18
   5   9  -3 125.540 88.3179  18
   5   9  -3 78.4830 93.6975  15
   5  -9  -3 152.216 97.7154  15
   5   9  -3 49.8374 91.2936   6
   5  -9  -3 33.3677 96.3060  20
   5   9  -2 14163.6 277.121  15
   5   9  -2 14017.6 297.987   6
   5  -9  -2 14063.8 288.096  15
  -5   9   2 13856.8 414.359   3
   5  -9  -2 13144.7 286.382   4
   5   9  -2 13421.3 282.105  18
   5   9  -1 4020.92 168.164   6
  -5   9   1 4330.29 230.109   3
   5  -9  -1 4046.60 168.136   4
   5   9   0 7732.08 220.636   6
   5  -9   0 8104.67 218.048   4
   5  -9   1 98.2629 74.8391   4
   5   9   1 24.5532 80.6972   6
   5  -9   2 58.3101 73.7552   4
   5   9   2 78.2069 79.0049   6
   5   9   3 154.990 91.8194  18
   5   9   3 13.1858 107.036   9
   5  -9   3 10.1376 77.2084   4
   5  -9   3 531.242 138.965  25
   5  -9   3 46.3610 84.5241  22
   5   9   3 13.0581 83.7738  11
   5  -9   3 32.3982 84.5343  11
   5  -9   3-8.00092 84.2966  21
   5  -9   3-8.86385 91.8854  10
   5  -9   3 687.429 201.111   9
   5  -9   4 20303.7 342.190   4
   5   9   4 20128.0 338.311  13
   5  -9   4 19481.6 349.226  25
   5  -9   4 18487.9 337.146  22
   5   9   4 21384.4 350.432  11
   5  -9   4 21367.9 351.095  11
   5  -9   4 19329.3 350.286  21
   5  -9   4 19570.1 335.836  10
   5  -9   4 20821.8 349.271   9
   5   9   4 19814.6 343.479   9
   5   9   5 13409.8 267.457  13
   5  -9   5 12224.0 274.070  25
   5  -9   5 12244.5 268.756  22
   5  -9   5 12493.1 275.221  21
   5  -9   5 12496.7 267.020  10
   5   9   5 12639.3 271.248   9
   5  -9   6 2604.62 128.397  10
   5   9   6 2797.43 136.233   9
   5  -9   7 828.420 110.987  25
  -5  10   6 1331.54 92.9295  23
   5  10  -6 1403.01 95.0973  18
  -5 -10   5 1478.39 109.626  23
  -5  10   5 1514.93 113.002  23
   5 -10  -5 1194.84 114.747  20
   5  10  -5 1478.19 115.239  18
   5  10  -4 864.940 115.504  18
   5  10  -4 815.170 107.177  15
   5  10  -4 907.842 120.567   6
  -5  10   4 870.942 99.9595  23
   5 -10  -4 796.832 114.450  20
   5  10  -3 990.324 116.481  15
   5  10  -3 1102.61 117.978   6
   5 -10  -3 1156.19 122.505  15
   5 -10  -3 716.895 114.285  20
   5  10  -3 967.534 112.218  18
   5  10  -2 327.156 96.5965  18
   5 -10  -2 299.132 88.1150   4
   5  10  -2 369.500 95.4192  15
   5 -10  -2 428.350 103.638  15
   5  10  -2 454.612 102.453   6
   5  10  -1 28866.2 410.018   6
  -5  10   1 30180.9 579.316   3
   5 -10  -1 29304.0 409.507   4
   5  10   0 22478.7 362.327   6
   5 -10   0 21921.6 351.853   4
   5 -10   1 116.720 77.3667   4
   5  10   1 205.560 89.0877   6
   5 -10   2 10613.2 255.227   4
   5  10   2 10811.0 260.659   6
   5 -10   2 10407.5 245.896  22
   5  10   2 10495.7 252.081  18
   5 -10   3 6352.90 204.565   4
   5 -10   3 7337.74 226.470  25
   5 -10   3 6199.96 203.662  22
   5 -10   3 7277.29 212.541  11
   5 -10   3 6531.78 212.052  21
   5 -10   3 7203.02 204.617  10
   5 -10   3 7641.53 255.379   9
   5  10   3 6484.75 213.777  18
   5  10   3 7077.81 212.738   9
   5  10   4 161.708 104.014   9
   5 -10   4 247.257 84.4486   4
   5  10   4 284.342 109.269  13
   5 -10   4 223.785 89.7192  22
   5 -10   4 365.813 93.7725  21
   5 -10   4 252.135 97.0808  10
   5  10   5 700.857 114.047   9
   5  10   5 791.140 113.126  13
   5 -10   5 624.994 95.8039  22
   5 -10   5 758.497 101.098  21
   5 -10   5 603.393 102.613  10
   5 -10   6 744.917 95.3828  10
   5  10   6 934.019 104.634   9
  -5  11   6 1928.92 98.5374  23
   5  11  -6 1904.02 102.622  18
  -5 -11   5 844.143 94.9283  23
  -5  11   5 974.935 98.7491  23
   5 -11  -5 792.992 105.995  20
   5  11  -5 928.318 103.094  18
   5  11  -4 428.906 102.192  18
   5  11  -4 549.169 111.770  15
  -5  11   4 583.020 95.1594  23
   5 -11  -4 434.021 105.691  20
   5  11  -3 5038.03 186.044  15
   5  11  -3 5346.66 194.700   6
   5 -11  -3 5606.77 197.550  15
   5 -11  -3 5535.62 197.778  20
   5  11  -3 5032.05 185.763  18
   5  11  -2 171.812 96.3450  18
   5 -11  -2 1.31783 80.0749   4
   5  11  -2-7.26897 88.6213  15
   5 -11  -2 135.259 103.635  15
   5  11  -2 11.9903 80.0829   6
   5 -11  -2 31.9635 81.3669  22
   5  11  -1 2044.61 127.721   6
  -5  11   1 2343.19 192.311   3
   5 -11  -1 1915.14 130.795   4
   5  11   0 15824.3 308.131   6
   5 -11   0 14667.7 294.398   4
   5 -11   1 178.767 85.7463   4
   5  11   1 160.755 85.7481   6
   5 -11   2 2533.74 143.463   4
   5  11   2 2809.54 148.061   6
   5  11   2 2686.96 144.097  12
   5 -11   2 2442.08 140.955  22
   5  11   2 2720.97 153.501  18
   5 -11   2 2551.79 219.770  25
   5 -11   3 990.008 108.689   4
   5 -11   3 1030.83 107.074  22
   5 -11   3 1199.13 113.269  21
   5 -11   3 1163.17 112.521  10
   5  11   3 1065.80 117.815  18
   5  11   3 1250.17 128.746   9
   5  11   4 1009.18 123.335  13
   5  11   4 853.806 121.706   9
   5 -11   4 957.277 108.852   4
   5 -11   4 944.674 112.474  22
   5 -11   4 909.714 106.836  21
   5 -11   4 962.884 109.270  10
   5  11   5 3173.24 149.526  13
   5 -11   5 2951.02 145.526  22
   5 -11   5 2922.81 144.508  10
   5  11   5 2865.27 151.643   9
   5 -11   6 3674.01 139.785  10
   5  11   6 4157.34 148.065   9
   5  12  -6 543.110 76.6401  18
  -5  12   6 515.011 69.1384  23
  -5  12   5 4732.94 163.656  23
   5  12  -5 4751.90 167.790  18
  -5  12   4 31871.0 417.766  23
   5 -12  -4 30478.6 410.638  20
   5  12  -4 30849.1 415.700  18
   5  12  -3 2982.65 158.149  15
   5  12  -3 3234.59 165.682   6
   5 -12  -3 3600.50 168.859  15
   5  12  -3 3288.53 159.051  18
   5 -12  -2 1806.58 122.193  22
   5  12  -2 1494.79 121.695  15
   5  12  -2 1659.08 127.861   6
   5 -12  -2 1513.51 130.623  15
   5 -12  -2 1539.42 127.412   4
   5  12  -2 1518.21 124.641  18
   5  12  -1 2819.06 144.724  15
   5  12  -1 2588.43 145.289   6
   5 -12  -1 2436.50 143.385   4
   5 -12  -1 2919.31 145.530  22
   5  12  -1 2418.63 144.232  18
   5  12   0 26175.0 390.426   6
   5 -12   0 24308.6 380.707   4
   5  12   1 465.976 105.006  18
   5 -12   1 389.528 85.4450   4
   5  12   1 476.986 86.0854   6
   5 -12   1 491.425 94.7598  22
   5 -12   2 1668.98 129.678   4
   5  12   2 2014.83 128.446   6
   5 -12   2 1948.22 221.274  25
   5  12   2 1847.44 130.226  12
   5 -12   2 2346.15 137.908  22
   5  12   2 1848.41 137.037  18
   5 -12   3 2134.46 138.686   4
   5 -12   3 2033.46 136.682  22
   5 -12   3 2277.72 140.567  21
   5 -12   3 2486.10 136.768  10
   5  12   3 2454.29 148.050  18
   5  12   4 320.094 104.920   9
   5 -12   4 314.498 91.8291   4
   5  12   4 366.074 109.288  13
   5 -12   4 393.438 93.6955  22
   5 -12   4 448.428 94.9788  21
   5 -12   4 320.304 96.5860  10
   5  12   5 167.275 97.7367   9
   5  12   5 222.006 99.2729  13
   5 -12   5 117.235 82.4566  22
   5 -12   5 108.509 88.4887  10
   5  12   6 464.159 92.1037   9
   5 -12   6 71.9012 75.6840  10
  -5  13   6 2029.50 93.7108  23
   5  13  -6 2052.28 96.3236  18
  -5  13   5 24952.4 340.611  23
   5  13  -5 24688.5 337.306  18
  -5  13   4 2915.82 142.367  23
   5  13  -4 2681.87 149.209  18
   5  13  -3 20392.5 347.613  15
   5  13  -3 22274.4 370.413   6
   5 -13  -3 21834.8 354.913  15
   5 -13  -3 22516.2 341.848  22
   5 -13  -3 20734.0 362.205   4
   5  13  -3 20134.5 347.603  18
   5  13  -2 749.694 108.294  18
   5  13  -2 995.130 107.714   6
   5 -13  -2 841.557 112.057  15
   5  13  -2 718.353 102.072  15
   5 -13  -2 1063.35 105.908  22
   5 -13  -2 746.642 98.6916   4
   5  13  -1 12633.4 259.658  15
   5 -13  -1 12708.8 267.862  22
   5 -13  -1 11989.2 275.495   4
   5  13  -1 12452.9 275.796  18
   5  13   0 3159.88 155.518   6
   5 -13   0 3009.56 145.904  22
   5 -13   0 2833.02 153.356   4
   5  13   0 3008.07 154.496  18
   5  13   1 644.478 105.213  18
   5 -13   1 539.121 94.2144   4
   5 -13   1 792.927 98.3202  22
   5  13   2 31.6971 92.9529  18
   5 -13   2 24.8960 75.9841   4
   5  13   2-16.8613 80.1386   6
   5  13   2 68.0841 82.2041  12
   5 -13   2 7.05541 81.2652  22
   5 -13   3 2657.11 144.911   4
   5  13   3 3149.00 154.525  12
   5 -13   3 2732.32 148.762  22
   5 -13   3 2850.42 147.798  21
   5 -13   3 2700.30 225.129  25
   5 -13   3 3137.53 149.801  10
   5  13   3 2847.19 154.139  18
   5  13   4 469.037 110.551   9
   5  13   4 318.753 103.244  13
   5 -13   4 373.466 94.9798  22
   5 -13   4 549.936 94.8438  21
   5 -13   4 405.175 93.0026  10
   5  13   5 1945.67 126.707  13
   5 -13   5 1725.67 118.437  22
   5 -13   5 1694.94 117.092  10
   5  13   5 1764.19 126.326   9
   5 -13   6 28.5786 138.028  25
   5 -13   6 128.346 73.3891  10
   5  14  -6 62.2496 60.5154  18
  -5  14   6 39.4676 52.7305  23
  -5  14   5 3140.96 134.833  23
   5  14  -5 3090.35 133.831  18
  -5  14   4 2480.70 134.369  23
   5  14  -4 2351.88 139.571  18
   5  14  -3 40168.8 482.507   6
   5 -14  -3 38044.4 462.461  15
   5 -14  -3 38150.9 441.843  22
   5 -14  -3 37225.5 477.453   4
   5  14  -3 35526.8 456.291  18
   5  14  -2 1395.66 117.585  15
   5  14  -2 1472.43 119.813   6
   5 -14  -2 1461.59 129.087  15
   5 -14  -2 1472.74 119.244  22
   5 -14  -2 1422.72 123.893   4
   5  14  -2 1428.01 127.593  18
   5  14  -1 23205.3 347.516  15
   5 -14  -1 22725.8 355.997  22
   5 -14  -1 22036.0 370.888   4
   5  14  -1 22976.8 366.860  18
   5  14   0 138.369 98.0215  18
   5 -14   0 203.811 87.2600   4
   5  14   0 307.902 91.3017   6
   5 -14   0 208.248 89.5321  22
   5  14   1 10420.9 247.879   6
   5 -14   1 9625.58 240.979  22
   5  14   1 9845.61 245.589  18
   5 -14   1 9731.55 250.719   4
   5  14   2 109.878 95.3566  18
   5 -14   2 25.8678 83.4390   4
   5  14   2 43.2835 75.3064   6
   5  14   2 26.4223 83.9471  12
   5 -14   2 18.8862 82.0241  22
   5  14   3 713.466 105.273  18
   5 -14   3 662.549 102.168   4
   5 -14   3 717.828 200.790  25
   5 -14   3 788.120 106.064  22
   5  14   3 591.829 97.5362  12
   5 -14   3 659.851 99.1941  21
   5  14   4 499.231 114.788   9
   5 -14   4 547.886 96.2286  22
   5 -14   4 632.212 100.817  10
   5  14   5 1806.09 120.797  13
   5 -14   5 1833.49 116.488  22
   5 -14   5 1644.58 113.522  10
   5  14   5 1868.12 122.638   9
   5 -14   6 240.995 74.7633  10
   5  14   6 641.473 88.1365   9
   5  15  -6 80.0130 56.0189  18
  -5  15   6 45.0096 49.5225  23
  -5  15   5 7236.10 183.593  23
   5  15  -5 7554.31 187.445  18
   5  15  -4 50.6526 81.6829  18
  -5  15   4 38.7111 76.6645  23
   5 -15  -3 17708.7 316.196  15
   5 -15  -3 18174.7 310.569  22
   5 -15  -3 17202.2 325.062   4
   5  15  -3 17130.4 322.613  18
   5  15  -2 4748.64 178.350   6
   5 -15  -2 4126.04 167.811  22
   5 -15  -2 4210.36 178.696   4
   5  15  -2 4124.31 174.175  18
   5 -15  -1 6426.31 199.831  22
   5 -15  -1 5867.11 201.674   4
   5  15  -1 6045.34 201.041  18
   5 -15   0 2506.42 143.480  17
   5  15   0 2369.79 137.391   6
   5 -15   0 2125.20 131.650  22
   5 -15   0 2022.30 131.348   4
   5  15   0 2315.86 139.964  18
   5  15   1 8402.39 235.889  12
   5 -15   1 8042.80 223.679  22
   5  15   1 8561.11 230.484  18
   5 -15   1 8302.06 235.775   4
   5 -15   2 4031.25 176.574   4
   5  15   2 4444.97 178.791  12
   5 -15   2 3980.16 172.640  22
   5  15   2 4382.42 177.489  18
   5 -15   3 18489.7 333.464   4
   5  15   3 20533.8 346.901  12
   5 -15   3 18149.9 329.412  22
   5 -15   3 19838.1 336.468  21
   5  15   3 20375.8 338.254  18
   5  15   4 15440.0 281.456  12
   5 -15   4 14873.4 289.786  22
   5 -15   4 15497.3 285.827  21
   5 -15   4 15057.4 276.929  10
   5  15   5 2390.62 129.420  13
   5 -15   5 2245.09 121.013  22
   5 -15   5 2099.37 119.601  10
   5  15   5 2439.45 128.201   9
   5 -15   6 398.773 74.8708  10
   5  15   6 1132.02 93.0349   9
  -5  16   5 1946.79 107.515  23
   5  16  -5 1935.44 110.067  18
  -5  16   4 228.978 75.4158  23
   5 -16  -4 250.233 77.2554  22
   5 -16  -3 12468.8 265.974  15
   5 -16  -3 12882.6 262.748  22
   5  16  -2 59.3647 89.0990  18
   5 -16  -2 170.002 83.8438   4
   5  16  -2 163.397 85.7402   6
   5 -16  -2 152.208 80.5056  22
   5  16  -1 739.720 106.370  18
   5 -16  -1 608.932 103.360   4
   5  16  -1 721.065 103.030   6
   5 -16  -1 694.984 97.9691  22
   5 -16   0 915.079 114.571  17
   5 -16   0 988.318 104.963  22
   5 -16   0 959.716 110.710   4
   5  16   0 1015.26 110.849  18
   5 -16   1 3583.55 162.672  17
   5  16   1 3474.26 163.584  12
   5 -16   1 3390.38 155.737  22
   5  16   1 3498.64 162.474  18
   5 -16   1 3127.14 155.051   4
   5 -16   2 3680.83 171.041   4
   5  16   2 3881.40 170.189  12
   5 -16   2 3671.99 163.743  22
   5  16   2 4004.85 170.785  18
   5 -16   3 7969.50 227.995   4
   5  16   3 8233.07 227.094  12
   5 -16   3 8438.78 222.488  21
   5  16   3 8554.38 225.066  18
   5  16   4 955.739 100.888  12
   5 -16   4 1009.48 105.818  22
   5 -16   4 1026.75 98.1661  21
   5 -16   4 984.593 103.865  10
   5  16   5 1345.21 108.816  13
   5 -16   5 1385.31 102.404  22
   5 -16   5 1379.45 103.425  10
   5 -16   6 1625.98 89.6312  10
   5  16   6 2501.55 106.576   9
  -5  17   5 3767.90 128.556  23
   5  17  -5 3983.49 134.112  18
  -5  17   4 1645.41 108.298  23
   5 -17  -4 1713.04 106.351  22
   5  17  -4 1613.73 117.295  18
   5 -17  -3 13277.8 266.765  15
   5 -17  -3 13201.2 263.032  22
   5  17  -3 12873.5 271.756  18
   5 -17  -2 3761.55 158.117  22
   5 -17  -2 3675.08 162.077   4
   5  17  -2 3575.88 162.170  18
   5 -17  -1 8351.68 224.777  22
   5 -17  -1 8058.12 230.669   4
   5  17  -1 8335.96 227.813  18
   5 -17   0 11085.3 257.426  17
   5 -17   0 10284.6 250.129  22
   5 -17   0 10420.4 258.642   4
   5  17   0 11090.7 257.256  18
   5  17   1 615.825 105.464  18
   5 -17   1 543.670 104.736  17
   5 -17   1 559.786 94.5530   4
   5  17   1 708.507 100.160  12
   5 -17   1 677.692 102.678  22
   5 -17   2 27587.7 407.622   4
   5 -17   2 30269.9 401.904  17
   5  17   2 28141.7 411.627  12
   5 -17   2 26032.5 389.899  22
   5  17   2 29865.9 403.214  18
   5 -17   3 197.939 91.9819  17
   5  17   3 181.076 82.4712  12
   5 -17   3 194.280 86.6841  22
   5 -17   3 200.098 82.4248  21
   5  17   3 163.479 88.1985  18
   5  17   4 1845.12 116.829  12
   5 -17   4 1890.75 121.380  22
   5 -17   4 1852.64 117.646  10
   5  17   5 24.5727 80.4236  13
   5 -17   5 46.2900 73.4213  22
   5 -17   5 71.6583 73.1915  10
   5 -17   6 7774.81 144.282  10
  -5  18   5 2861.27 110.877  23
   5  18  -5 2901.67 114.013  18
   5  18  -4 346.717 85.7146  18
  -5  18   4 258.762 72.6222  23
   5 -18  -4 322.379 74.8789  22
   5 -18  -3 2118.99 129.997  15
   5 -18  -3 2162.53 123.282  22
   5  18  -3 2184.84 132.158  18
   5 -18  -2 1072.82 104.836  22
   5  18  -2 1377.09 118.701  18
   5  18  -1 117.989 90.0386  18
   5 -18  -1 173.660 81.8543   4
   5 -18  -1 129.193 77.8750  22
   5 -18   0 5859.39 198.353  17
   5 -18   0 5375.56 188.243  22
   5 -18   0 5371.11 194.695   4
   5  18   0 5912.62 197.252  18
   5 -18   1 2205.70 141.204  17
   5  18   1 2050.54 136.796  12
   5 -18   1 2079.86 132.710  22
   5  18   1 2221.00 137.937  18
   5 -18   1 2324.98 147.225   4
   5 -18   2 3541.61 162.789   4
   5 -18   2 4089.56 166.197  17
   5  18   2 3729.73 168.483  12
   5 -18   2 3661.27 163.719  22
   5  18   2 4130.22 169.903  18
   5 -18   3 9433.36 226.218  17
   5  18   3 9029.45 232.711  12
   5 -18   3 8770.37 227.086  22
   5 -18   4 1979.95 115.736  17
   5  18   4 1730.08 110.460  12
   5 -18   4 1793.45 118.952  22
   5 -18   4 1759.26 112.111  10
   5  18   5 1023.20 97.3602  13
   5 -18   5 984.014 89.3405  10
  -5  19   5 1094.21 76.5814  23
   5  19  -5 1164.34 80.3958  18
   5  19  -4 242.159 79.1599  18
  -5  19   4 240.157 74.1900  23
   5 -19  -4 252.494 70.1114  22
   5 -19  -3 4661.80 161.831  22
   5  19  -3 4415.57 162.554  18
   5 -19  -2 4857.37 174.049  22
   5  19  -2 5059.83 177.683  18
   5 -19  -1 2151.96 130.097  22
   5 -19  -1 2143.07 133.163   4
   5  19  -1 2347.90 138.081  18
   5 -19   0 1715.86 132.344  17
   5  19   0 1453.40 127.480  12
   5 -19   0 1513.97 117.370  22
   5 -19   0 1529.83 124.983   4
   5  19   0 1641.38 125.348  18
   5 -19   1 21564.7 347.908  17
   5  19   1 20489.1 357.154  12
   5 -19   1 20404.4 342.966  22
   5  19   1 22170.2 342.090  18
   5 -19   1 21481.2 365.287   4
   5 -19   2 972.321 112.639  17
   5  19   2 1049.90 107.771  12
   5 -19   2 1109.38 109.512  22
   5 -19   3 360.884 93.4846  17
   5  19   3 299.004 87.2076  12
   5 -19   3 352.755 88.8101  22
   5 -19   4 15739.9 251.362  17
   5  19   4 15265.4 262.738  12
   5 -19   4 15515.7 260.363  22
   5 -19   4 15408.9 250.761  10
   5  19   5 14371.0 217.145  13
   5 -19   5 14111.7 214.908  10
  -5 -20   5 626.107 66.1801  24
  -5  20   5 666.561 62.5930  23
   5  20  -5 751.761 64.4370  18
  -5  20   4 5830.71 159.663  23
   5 -20  -4 6341.14 153.546  22
   5  20  -4 5939.12 157.774  18
   5 -20  -3 4901.86 161.599  22
   5  20  -3 5176.83 167.024  18
   5 -20  -2 12834.9 267.081  15
   5 -20  -2 12660.1 261.933  22
   5  20  -2 13049.2 263.359  18
   5  20  -1 51.6985 84.3760  18
   5 -20  -1 207.035 82.4761  22
   5 -20   0 9858.96 247.291  17
   5  20   0 9789.45 249.185  12
   5 -20   0 9305.65 236.375  22
   5 -20   1 17504.0 313.066  17
   5  20   1 16435.7 318.402  12
   5 -20   1 16793.0 308.927  22
   5 -20   2 2899.63 146.718  17
   5  20   2 2826.53 144.268  12
   5 -20   2 2482.78 135.769  22
   5 -20   3 58117.8 509.548  17
   5 -20   3 58800.1 525.141  22
   5 -20   4 6866.01 169.237  17
   5  20   4 6736.18 175.846  12
   5 -20   4 6904.19 173.652  22
   5 -20   4 7165.78 171.157  10
   5  20   5 1510.90 95.9391  13
   5 -20   5 1525.98 87.6871  10
  -5  21   4 4007.16 129.676  23
   5 -21  -4 4341.58 125.086  22
   5  21  -4 4196.17 127.320  18
   5 -21  -3 1306.57 100.336  22
   5  21  -3 1424.19 102.496  18
   5 -21  -2 983.607 107.292  15
   5 -21  -2 828.685 96.6677  22
   5  21  -2 951.789 100.621  18
   5 -21  -1 1412.82 112.004  22
   5  21  -1 1798.81 120.490  18
   5 -21   0 2800.17 149.659  17
   5  21   0 2985.98 151.483  12
   5 -21   0 3005.80 144.895  22
   5 -21   1 20636.6 334.211  17
   5  21   1 20633.2 345.932  12
   5 -21   1 20172.8 331.142  22
   5 -21   2 9761.26 233.437  17
   5  21   2 9410.06 234.790  12
   5 -21   2 9458.27 226.361  22
   5 -21   3 7808.90 196.687  17
   5  21   3 7679.90 204.852  12
   5 -21   3 7583.23 195.612  22
   5 -21   4 52101.3 410.935  17
   5  21   4 51278.8 436.142  12
   5 -21   4 54462.2 418.153  22
   5 -21   4 53449.2 403.447  10
   5  21   4 50678.8 435.568  13
   5  21   5 50890.3 339.033  13
   5 -21   5 49845.9 329.516  10
  -5  22   4 1256.80 81.9427  23
   5 -22  -4 1144.76 76.1732  22
   5  22  -4 1143.37 78.8792  18
   5 -22  -3 1701.69 102.073  22
   5  22  -3 1818.07 103.227  18
   5 -22  -2 1977.58 121.844  15
   5 -22  -2 1933.12 116.360  22
   5  22  -2 1996.18 114.116  18
   5  22  -1 169.857 78.9201  12
   5 -22  -1 205.507 78.0554  22
   5 -22   0 3469.57 153.321  17
   5  22   0 3250.76 150.499  12
   5 -22   0 3010.73 143.029  22
   5 -22   1 6253.64 193.180  17
   5  22   1 6111.33 193.417  12
   5 -22   1 5947.04 187.063  22
   5 -22   2 2368.37 131.249  17
   5  22   2 2327.27 128.542  12
   5 -22   2 2479.62 128.474  22
   5 -22   3 45873.5 429.011  17
   5 -22   3 46985.2 430.812  22
   5 -22   4 17480.0 232.534  17
   5  22   4 16677.0 246.235  13
   5  22   4 16852.3 243.843  12
  -5 -23   4 13642.9 197.939  24
  -5  23   4 13554.4 192.293  23
   5 -23  -4 13913.4 184.027  22
   5  23  -3 429.125 69.1434  18
   5  23  -3 356.174 69.3603  12
   5 -23  -3 330.434 70.9279  22
   5 -23  -2 348.923 84.4774  15
   5  23  -2 342.614 75.3308  12
   5 -23  -2 316.186 75.4279  22
   5  23  -1 481.957 85.5704  12
   5 -23  -1 499.716 85.0696  22
   5 -23   0 191.571 82.2986  17
   5  23   0 147.396 78.5672  12
   5 -23   0 94.3063 75.2339  22
   5 -23   1 2961.75 140.590  17
   5  23   1 3118.96 144.247  12
   5 -23   1 2949.14 136.289  22
   5 -23   2 4486.55 157.842  17
   5  23   2 4482.98 161.015  12
   5 -23   2 4463.65 152.846  22
   5 -23   3 6171.77 164.778  17
   5  23   3 5981.57 169.165  12
   5 -23   3 6349.40 160.142  22
   5 -23   4 22619.1 244.480  17
   5  23   4 22999.5 269.937  13
  -5 -24   4 2041.60 85.4206  24
  -5  24   4 2093.74 80.1241  23
   5  24  -3 2941.64 103.980  12
   5 -24  -3 2804.23 108.236  22
   5 -24  -2 4658.41 145.125  15
   5  24  -2 4518.76 143.529  12
   5  24  -1 5565.68 170.400  12
   5 -24  -1 5513.97 167.516  22
   5 -24   0 12490.1 244.702  17
   5  24   0 11919.8 245.188  12
   5 -24   0 11692.1 234.454  22
   5 -24   1 1533.78 110.383  17
   5  24   1 1515.34 106.693  12
   5 -24   1 1643.01 106.082  22
   5 -24   2 393.156 81.5619  17
   5  24   2 469.593 81.3994  12
   5 -24   2 404.774 77.9565  22
   5 -24   3 2410.44 111.050  17
   5  24   3 2153.63 108.572  12
   5 -24   3 2461.82 104.846  22
   5 -24   4 5068.80 117.528  17
   5  24   4 5112.22 123.153  12
   5  24   4 5349.55 133.912  13
  -5 -25   3 44.7835 63.2318  24
   5 -25  -3 8.08698 54.9417  22
   5 -25  -2 8827.78 175.692  15
  -5 -25   2 7824.25 172.494  24
   5  25  -2 8731.07 178.842  12
   5 -25  -2 8023.14 176.030  22
   5  25  -1 9179.13 199.688  12
   5 -25  -1 8653.65 193.202  22
   5  25   0 2406.64 119.754  12
   5 -25   0 2366.95 116.801  22
   5  25   0 2500.87 111.921  19
   5 -25   1 4905.45 155.239  17
   5  25   1 5031.78 158.091  12
   5 -25   1 5009.02 151.660  22
   5 -25   2 2700.60 119.639  17
   5  25   2 2706.49 118.898  12
   5 -25   2 2889.64 115.085  22
   5 -25   3 2152.13 99.8146  17
   5  25   3 2217.72 101.781  12
   5  25   4 3933.43 106.858  13
   5  25   4 3759.24 98.0644  12
  -5 -26   3 991.160 71.1921  24
  -5  26   3 1090.31 66.8939  23
   5 -26  -3 1107.50 69.5497  22
   5 -26  -2 117.621 62.4540  15
  -5 -26   2 109.868 62.4900  24
   5  26  -2 43.9392 54.7845  12
   5 -26  -2 47.9071 56.7263  22
   5  26  -1 255.453 66.3508  12
   5 -26  -1 311.506 70.2886  22
   5  26  -1 83.3119 49.2533  19
   5  26   0 230.880 67.7830  12
   5 -26   0 364.016 69.3729  22
   5  26   0 325.634 65.7768  19
   5 -26   1 277.657 75.5111  17
   5  26   1 378.699 69.9129  12
   5 -26   1 281.357 66.7123  22
   5 -26   2 7010.60 160.387  17
   5  26   2 6992.19 165.107  12
   5 -26   2 7360.15 152.750  22
   5 -26   3 24.6065 57.8601  17
   5  26   3 40.8417 52.6693  12
  -5 -27   2 529.026 66.1110  24
   5  27  -2 418.020 56.9152  12
   5 -27  -2 546.883 64.1834  22
   5 -27  -1 148.379 69.8637  15
  -5  27   1 201.507 70.4416  14
   5  27  -1 145.334 57.6973  12
   5 -27  -1 128.772 61.4402  22
   5  27  -1 30.6509 34.2686  19
   5  27   0 12091.8 206.177  12
   5 -27   0 12274.3 200.780  22
   5 -27   1 2394.72 105.094  17
   5  27   1 2377.49 103.482  12
   5 -27   1 2434.67 99.3616  22
   5 -27   2 467.309 69.8394  17
   5  27   2 526.454 67.7141  12
   5  27   3 5711.25 124.231  13
   5  27   3 6064.89 124.323  12
   5 -28  -2 28749.8 245.257  22
   5 -28  -1 1106.96 78.2631  15
  -5  28   1 994.941 75.8999  14
   5  28  -1 1082.20 69.6796  12
   5 -28  -1 1053.96 73.6383  22
  -5  28   0 1126.75 89.5837  14
   5  28   0 899.825 70.6542  12
   5 -28   0 964.783 71.5401  22
   5  28   1 1215.43 78.1053  12
   5 -28   1 1187.41 71.5303  22
   5 -28   2 52.0507 52.8671  17
   5  28   2-5.46536 58.5165  13
   5  28   2 39.9506 47.9497  12
   5 -29  -1 2496.46 79.9426  22
  -5  29   0 263.761 61.3099  14
   5  29   0 209.164 48.8434  12
   5 -29   0 256.878 49.9996  22
  -5  29  -1 1568.10 80.7931  14
   5  29   1 1520.03 71.1890  12
  -6   0   6 5205.05 121.650  23
   6   0  -5 10.4335 76.6793  15
  -6   0   5 22.9989 66.8814  23
   6   0  -4 44056.9 482.576  15
   6   0  -3 95.4284 91.6815  15
   6   0  -3 45.8880 83.3583   6
   6   0  -2 309403. 1298.71  15
   6   0  -2 317678. 1364.94   6
   6   0  -1 67.5236 92.9521  15
   6   0  -1-22.8877 87.2123   6
   6   0   0 6506.11 203.143  15
   6   0   0 6035.42 206.365   6
   6   0   0 6136.62 200.826  18
   6   0   1 223.718 104.629  18
   6   0   1 22.3962 78.6427   6
   6   0   1 10.8316 120.991  13
   6   0   2 51795.0 556.496   6
   6   0   2 49971.7 512.911  13
   6   0   2 51493.8 578.198  25
   6   0   2 52181.6 573.900  11
   6   0   2 51093.1 531.135  18
   6   0   3 218.671 196.500   9
   6   0   3 2.11421 112.682  13
   6   0   3 3.38036 78.9197  22
   6   0   3-32.6958 91.0267  11
   6   0   3 36.1021 82.6872  21
   6   0   4 14453.9 290.929  13
   6   0   4 13134.5 292.956  11
   6   0   4 13758.2 287.884  21
   6   0   4 12588.8 328.513   9
   6   0   5 1506.05 143.234  13
   6   0   5 1886.72 152.503  25
   6   0   6 14.9174 183.690  25
   6   0   6 2330.19 163.081   9
  -6  -1   6 17163.3 202.938  23
  -6   1   6 17398.4 207.412  23
   6   1  -5 71.7332 77.6283  15
   6  -1  -5 79.2788 77.1085  15
  -6  -1   5 76.7710 65.3758  23
  -6   1   5-6.90228 65.1925  23
   6   1  -4 1846.13 134.182  15
   6  -1  -4 5118.56 185.592  15
   6   1  -3 2590.54 148.920  15
   6  -1  -3 2409.43 149.328  15
   6   1  -3 2599.64 149.388   6
   6  -1  -3 2513.04 148.473   6
   6   1  -2 6187.79 210.175  15
   6  -1  -2 5691.11 202.180  15
   6   1  -2 5754.63 204.122   6
   6  -1  -2 5821.34 200.573   6
   6   1  -1 944.263 120.012  18
   6  -1  -1 1134.84 122.708  15
   6   1  -1 1016.56 119.272   6
   6   1   0 321833. 1212.48  15
   6  -1   0 320517. 1235.24  15
   6   1   0 321360. 1250.52  18
   6   1   1 11695.7 276.330   6
   6  -1   1 12073.0 272.841   6
   6  -1   1 11357.0 265.779  13
   6   1   1 11897.7 258.825  13
   6  -1   1 11673.3 342.722  25
   6  -1   1 12032.7 263.272  18
   6   1   1 12076.2 266.714  18
   6  -1   2 6227.56 304.755  25
   6   1   2 6103.30 210.761   6
   6  -1   2 5936.95 201.462   6
   6  -1   2 5769.86 211.559  13
   6   1   2 6644.13 209.563  13
   6  -1   2 6427.49 193.773  22
   6   1   2 6196.37 212.229  11
   6  -1   2 6269.38 214.760  11
   6   1   2 6387.45 297.825  25
   6  -1   2 6913.94 268.195   9
   6   1   2 6950.10 261.911   9
   6  -1   2 6230.17 199.878  18
   6   1   2 6638.80 209.439  18
   6   1   3 950.944 198.645   9
   6   1   3 698.044 247.946  25
   6  -1   3 1319.85 140.011  13
   6   1   3 986.113 121.394  13
   6  -1   3 782.347 243.060  25
   6   1   3 997.237 106.199  22
   6  -1   3 1044.18 109.400  22
   6   1   3 889.838 115.769  11
   6  -1   3 883.514 117.808  11
   6   1   3 1040.22 107.582  21
   6  -1   3 989.719 109.509  21
   6  -1   3 1483.97 214.538   9
   6  -1   4 1064.35 212.717   9
   6   1   4 615.994 215.083   9
   6  -1   4 1616.06 148.420  13
   6   1   4 1193.94 141.999  13
   6   1   4 3113.99 183.605  25
   6  -1   4 1071.76 109.827  22
   6   1   4 1074.68 116.612  11
   6  -1   4 1034.68 118.709  11
   6   1   4 1048.97 107.278  21
   6  -1   4 1097.27 107.886  21
   6  -1   4 3563.37 184.839  25
   6  -1   4 2131.15 143.845  10
   6   1   5 6227.69 192.269  13
   6  -1   5 6381.15 206.522  25
   6   1   5 6600.95 202.930  25
   6  -1   6 1695.13 193.183  25
   6   1   6 1866.54 201.227  25
  -6   2   6 778.988 65.8367  23
   6   2  -5 1865.38 113.207  15
   6  -2  -5 1726.09 107.841  15
  -6  -2   5 1616.72 101.447  23
  -6   2   5 1649.19 101.383  23
   6  -2  -4 1280.62 118.366  15
   6   2  -4 494.936 108.429  15
   6   2  -3 10029.7 250.093  15
   6  -2  -3 10149.9 256.367  15
   6   2  -3 10192.6 260.987   6
   6  -2  -3 10726.6 254.879   6
   6   2  -2 42846.9 492.290  15
   6  -2  -2 43879.7 498.258  15
   6   2  -2 43494.8 516.542   6
   6  -2  -2 46576.5 513.454   6
   6   2  -2 46222.6 488.465  18
   6   2  -1 34142.4 424.461  15
   6  -2  -1 33094.6 426.327  15
   6   2  -1 33437.1 450.249   6
   6  -2  -1 35332.5 447.843   6
   6   2  -1 34921.4 426.827  18
   6   2   0 33809.2 401.551  15
   6  -2   0 33146.4 411.402  15
   6  -2   0 32810.3 432.983   6
   6   2   0 33488.3 417.826  18
   6   2   1 4824.93 184.553   6
   6  -2   1 5006.21 183.513   6
   6  -2   1 5107.74 201.512  13
   6   2   1 5221.74 186.140  13
   6  -2   1 4932.69 285.496  25
   6   2   1 5267.27 188.420  18
   6   2   2 40136.8 500.560   6
   6  -2   2 41373.2 488.303   6
   6  -2   2 38734.1 462.254  13
   6   2   2 40459.2 461.106  13
   6   2   2 40776.9 522.752  25
   6  -2   2 38520.1 525.625  25
   6  -2   2 43278.6 463.724  22
   6   2   2 40377.4 508.385  11
   6  -2   2 41109.5 513.236  11
   6   2   2 43982.3 482.597  21
   6  -2   2 38050.1 463.869   9
   6   2   2 39863.5 477.380   9
   6  -2   2 42158.8 469.391  18
   6   2   2 41697.2 486.539  18
   6  -2   3 5110.66 198.600  13
   6   2   3 4774.08 181.674  13
   6  -2   3 3938.19 276.563  25
   6   2   3 4877.24 174.589  22
   6  -2   3 4660.11 177.836  22
   6   2   3 4634.22 190.418  11
   6  -2   3 4726.86 194.244  11
   6   2   3 4740.83 177.822  21
   6  -2   3 4664.24 183.535  21
   6  -2   3 5633.62 191.819  10
   6  -2   3 6078.13 255.944   9
   6   2   3 4432.74 246.614   9
   6   2   3 4221.69 180.042  18
   6   2   3 4533.91 295.252  25
   6   2   4 394.698 207.728   9
   6  -2   4 2073.82 156.669  13
   6   2   4 1045.07 136.583  13
   6  -2   4 3461.24 182.470  25
   6  -2   4 1013.99 107.233  22
   6   2   4 785.734 111.107  11
   6  -2   4 904.707 114.755  11
   6   2   4 3323.35 180.864  25
   6   2   4 825.235 105.250  21
   6  -2   4 836.581 101.355  21
   6  -2   4 1332.52 133.604  10
   6  -2   4 1515.26 205.443   9
   6   2   5 4775.11 172.462  13
   6  -2   5 5036.83 191.819  25
   6  -2   5 4904.37 219.844   9
   6   2   6 3827.47 207.735  25
   6  -2   6 3694.17 208.651  25
  -6   3   6 236.017 54.7650  23
   6   3  -5 559.532 89.7801  15
  -6   3   5 568.513 78.5034  23
   6   3  -4 3123.65 158.080  15
   6  -3  -4 3108.41 154.540  15
   6   3  -4 3127.16 142.699  18
   6   3  -3 2639.12 150.449  15
   6  -3  -3 2755.84 151.785  15
   6   3  -3 2757.11 157.307   6
   6   3  -3 2763.51 144.139  18
   6   3  -2 46865.5 512.520  15
   6  -3  -2 47364.2 519.482  15
   6   3  -2 46524.3 536.299   6
   6  -3  -2 50686.8 524.184   6
   6   3  -2 49378.1 512.642  18
   6   3  -1 6534.14 204.951  15
   6  -3  -1 6823.32 211.112  15
   6   3  -1 6336.26 210.223   6
   6  -3  -1 6828.68 206.798   6
   6   3  -1 6625.36 204.035  18
   6   3   0 2920.12 144.607  15
   6  -3   0 3280.96 159.972  15
   6   3   0 2941.42 157.629   6
   6  -3   0 3041.09 148.801   6
   6   3   0 3039.00 153.064  18
   6   3   1 6219.89 212.109   6
   6  -3   1 6691.03 206.617   6
   6   3   1 6617.69 203.787  13
   6  -3   1 6152.15 296.313  25
   6   3   1 5942.76 198.782  18
   6   3   2 12385.8 288.815   6
   6  -3   2 13152.1 282.693   6
   6  -3   2 12770.7 283.225  13
   6   3   2 12451.3 269.928  13
   6  -3   2 12103.8 351.244  25
   6  -3   2 13204.1 267.952  22
   6   3   2 12650.0 293.437  11
   6  -3   2 12484.3 290.891  11
   6  -3   2 12941.0 312.400   9
   6   3   2 12874.6 314.744   9
   6   3   2 13063.3 356.189  25
   6   3   2 12521.2 279.871  18
   6   3   3 1080.19 205.780   9
   6  -3   3 1603.79 153.084  13
   6   3   3 1262.64 124.346  13
   6   3   3 1082.56 259.790  25
   6  -3   3 1067.32 253.933  25
   6   3   3 1313.56 115.887  22
   6  -3   3 1357.64 115.018  22
   6   3   3 1243.61 121.830  11
   6  -3   3 1036.71 112.263  11
   6   3   3 1143.31 109.177  21
   6  -3   3 1249.46 116.336  21
   6  -3   3 1562.40 137.509  10
   6   3   3 1138.55 121.175  18
   6   3   4 827.281 222.964   9
   6  -3   4 3466.91 180.113  13
   6   3   4 2122.95 141.108  13
   6   3   4 3730.30 221.447  25
   6  -3   4 4630.00 195.320  25
   6  -3   4 2150.72 132.495  22
   6   3   4 1882.83 132.227  11
   6  -3   4 1986.98 134.914  11
   6   3   4 2113.60 128.817  21
   6  -3   4 1981.15 131.660  21
   6  -3   4 2778.26 154.418  10
   6  -3   4 3414.42 232.432   9
   6   3   5 4737.53 172.312  13
   6   3   5 5698.17 217.667  25
   6  -3   5 5625.80 195.610  25
   6  -3   5 4944.95 174.616  10
   6  -3   5 5615.63 221.720   9
   6   3   6 458.436 182.679  25
   6   3   6 1276.91 149.623   9
  -6   4   6 165.854 53.7209  23
   6   4  -5 2395.75 121.283  15
  -6   4   5 2222.32 110.743  23
   6   4  -4 6803.88 207.975  15
   6  -4  -4 7044.56 206.170  15
  -6   4   4 6903.35 189.016  23
   6   4  -4 6858.77 194.495  18
   6   4  -3 13233.8 283.821  15
   6  -4  -3 13840.8 292.761  15
   6   4  -3 13987.9 303.924   6
   6   4  -2 4715.88 185.837  15
   6  -4  -2 4736.92 185.535  15
   6   4  -2 5001.15 185.285  18
   6   4  -1 4640.63 173.950  15
   6  -4  -1 4369.34 179.748  15
   6   4  -1 4658.78 184.925   6
   6  -4  -1 5161.59 181.290   6
   6   4  -1 4697.69 181.984  18
   6   4   0 3846.33 158.703  15
   6  -4   0 3706.81 162.606  15
   6   4   0 3865.57 175.961   6
   6  -4   0 3875.15 162.990   6
   6   4   0 3769.83 167.750  18
   6   4   1 18033.5 341.737   6
   6  -4   1 18983.8 328.486   6
   6  -4   1 19080.4 330.191  13
   6   4   1 17960.4 309.568  13
   6  -4   1 17632.6 379.702  25
   6   4   1 18707.1 330.588  18
   6   4   2 8170.13 239.309   6
   6  -4   2 8286.59 223.255   6
   6  -4   2 8854.25 247.937  13
   6   4   2 7686.54 220.584  13
   6  -4   2 8107.97 313.360  25
   6  -4   2 8587.95 221.742  22
   6   4   2 8155.13 237.306  11
   6  -4   2 8401.91 241.927  11
   6  -4   2 8972.36 280.598   9
   6   4   2 9322.30 281.580   9
   6   4   2 8207.54 235.585  18
   6   4   2 8778.97 316.349  25
   6   4   3 1771.89 215.874   9
   6  -4   3 3279.56 178.898  13
   6   4   3 2291.10 146.584  13
   6  -4   3 2201.70 266.464  25
   6  -4   3 2423.96 135.616  22
   6   4   3 2193.97 143.767  11
   6  -4   3 2168.80 144.559  11
   6   4   3 2386.13 273.081  25
   6   4   3 2543.90 134.733  21
   6  -4   3 2347.93 139.213  21
   6  -4   3 2851.59 154.543  10
   6  -4   3 3763.07 236.169   9
   6   4   3 2290.39 149.054  18
   6   4   4 16474.8 301.167  13
   6   4   4 16326.5 358.079  25
   6  -4   4 17687.9 320.859  25
   6  -4   4 16386.0 303.963  22
   6   4   4 16093.1 315.430  11
   6  -4   4 16085.0 316.368  11
   6   4   4 16704.8 298.320  21
   6  -4   4 15517.3 306.840  21
   6  -4   4 16862.6 306.876  10
   6  -4   4 17121.9 324.247   9
   6   4   4 15013.6 335.998   9
   6   4   5 1078.96 187.585   9
   6   4   5 2108.93 142.050  13
   6   4   5 1765.27 223.992  25
   6  -4   5 4006.25 172.042  25
   6  -4   5 2709.87 143.448  10
   6  -4   5 4525.47 201.035   9
   6   4   6 400.683 172.511  25
   6   4   6 668.563 145.623   9
  -6   5   6 3674.09 101.027  23
  -6   5   5 1743.92 101.843  23
   6   5  -5 1641.19 100.099  18
   6   5  -4 8166.82 222.652  15
   6  -5  -4 8696.09 221.766  15
  -6   5   4 9068.29 213.269  23
   6   5  -4 8642.50 215.348  18
   6   5  -3 400.635 96.6154  18
   6   5  -3 407.180 105.953  15
   6  -5  -3 347.225 98.1090  15
   6   5  -3 373.843 91.8772   6
   6   5  -2 2143.24 140.200  15
   6  -5  -2 2291.28 142.642  15
   6   5  -2 2217.07 139.969   6
   6   5  -2 2553.85 148.200  18
   6   5  -1 1452.94 119.361  15
   6  -5  -1 1601.12 134.400  15
   6   5  -1 1314.13 123.542   6
   6   5  -1 1350.67 123.437  18
   6  -5   0 6166.61 197.612  15
   6   5   0 6179.44 211.759   6
   6   5   0 6079.61 202.471  18
   6   5   1 1821.57 135.464   6
   6   5   1 2021.78 141.755  13
   6  -5   1 2401.92 257.674  25
   6  -5   1 2212.23 129.950  22
   6   5   1 1872.27 137.807  18
   6   5   2 321.749 189.335   9
   6   5   2 34.0311 88.4867  18
   6  -5   2 659.008 151.434  13
   6   5   2 42.6861 84.6779   6
   6   5   2 306.507 104.789  13
   6  -5   2 279.185 236.120  25
   6   5   2 300.678 245.852  25
   6  -5   2 46.6863 76.7156  22
   6   5   2 22.0892 86.4495  11
   6  -5   2 73.7110 83.8111  11
   6   5   3 155.235 92.7587  18
   6   5   3 317.608 248.546  25
   6   5   3 194.906 102.281  13
   6  -5   3-7.21949 239.665  25
   6  -5   3 138.277 83.3129  22
   6   5   3 109.910 90.2560  11
   6  -5   3 217.869 94.3065  11
   6  -5   3 122.746 85.1091  21
   6  -5   3 141.534 110.041  10
   6   5   4 985.978 194.059   9
   6   5   4 1271.29 128.761  13
   6  -5   4 3453.73 185.347  25
   6   5   4 1203.42 249.092  25
   6  -5   4 1283.29 112.677  22
   6   5   4 1317.92 118.617  11
   6  -5   4 1159.68 114.846  11
   6  -5   4 1265.10 116.863  21
   6  -5   4 1695.15 131.069  10
   6  -5   4 3594.88 222.055   9
   6   5   5 142.295 176.565   9
   6  -5   5 2365.58 158.781  25
   6   5   5 125.733 215.434  25
   6   5   5 659.815 114.978  13
   6  -5   5 1166.87 117.438  10
   6  -5   5 3328.30 194.931   9
   6  -5   6 4205.69 205.359  25
   6   5   6 4845.91 184.156   9
  -6   6   5 2771.49 117.615  23
   6   6  -5 2736.17 118.107  18
   6   6  -4 1899.41 132.834  15
   6  -6  -4 2159.61 133.776  15
  -6   6   4 1910.47 115.743  23
   6   6  -4 1980.75 124.966  18
   6   6  -3 503.431 101.209  18
   6   6  -3 404.170 97.7334  15
   6  -6  -3 409.354 105.198  15
   6   6  -3 445.643 98.7221   6
   6   6  -2 4584.30 181.184  15
   6  -6  -2 5056.82 191.875  15
   6   6  -2 4836.33 193.882   6
   6  -6  -2 5142.49 181.449   4
   6   6  -2 4714.75 182.214  18
   6   6  -1 12757.3 265.290  15
   6  -6  -1 12242.4 271.864  15
   6   6  -1 11742.7 279.188   6
   6   6  -1 12268.1 275.950  18
   6  -6   0 8307.68 224.676  15
   6   6   0 8554.75 241.640   6
   6   6   0 8551.00 233.563  18
   6   6   1 1776.28 131.626   6
   6   6   1 1678.29 132.396  13
   6  -6   1 1773.89 120.766  22
   6   6   1 1809.10 133.166  18
   6   6   2 869.624 114.457  18
   6   6   2 870.318 113.152   6
   6   6   2 919.997 121.913  13
   6   6   2 1436.82 251.447  25
   6  -6   2 1146.57 239.528  25
   6  -6   2 855.285 99.6380  22
   6   6   2 1050.18 112.600  11
   6  -6   2 1028.53 114.038  11
   6   6   2 1222.08 197.887   9
   6   6   3 2201.19 142.910  13
   6   6   3 3089.12 264.864  25
   6  -6   3 2116.64 263.872  25
   6  -6   3 2593.13 141.863  22
   6   6   3 2776.77 154.443  11
   6  -6   3 2316.39 144.319  11
   6  -6   3 2397.64 145.319  21
   6   6   3 2321.04 213.153   9
   6   6   3 2255.95 144.274  18
   6  -6   4 1912.67 180.885  25
   6   6   4 179.593 104.952  13
   6   6   4 220.744 235.244  25
   6  -6   4 90.1292 83.7121  22
   6   6   4 82.4681 85.4874  11
   6  -6   4 98.5923 80.5037  11
   6  -6   4 52.4677 79.0469  21
   6  -6   4 149.862 101.927  10
   6  -6   4 1863.62 214.960   9
   6   6   5 3066.43 153.375  13
   6   6   5 3298.45 244.826  25
   6  -6   5 5297.87 183.918  25
   6  -6   5 3454.38 151.318  10
   6  -6   5 5818.47 210.798   9
   6   6   5 2249.78 198.601   9
   6  -6   6 9661.81 237.242  25
   6   6   6 10134.2 220.896   9
  -6   7   5 3468.94 126.922  23
   6   7  -5 3477.89 129.128  18
   6   7  -4 1146.94 116.167  15
   6  -7  -4 1081.20 111.202  15
  -6   7   4 1160.80 99.7710  23
   6   7  -4 927.485 103.501  18
   6   7  -3 38.1108 88.8647  18
   6   7  -3 130.939 95.4452  15
   6  -7  -3 62.1691 93.0959  15
   6   7  -2 9348.63 241.729  15
   6  -7  -2 8950.46 241.108  15
   6   7  -2 8549.31 240.146   6
   6   7  -2 8933.56 238.718  18
   6   7  -1 12.6992 87.2486  18
   6  -7  -1-15.0911 84.0202   4
   6   7  -1 59.2399 91.9081  15
   6  -7  -1 106.154 93.9642  15
   6   7  -1 61.4784 83.9629   6
   6  -7   0 2847.93 153.694  15
   6   7   0 2778.61 157.959   6
   6  -7   0 2640.17 140.081   4
   6   7   0 2418.06 145.421  18
   6   7   1 159.929 91.6550  18
   6  -7   1 205.483 86.2902   4
   6  -7   1 240.608 98.5788  15
   6   7   1 175.555 79.9562   6
   6   7   1 201.047 104.826  13
   6  -7   1 148.693 81.9706  22
   6  -7   2 8027.39 214.386   4
   6   7   2 7588.72 230.829   6
   6   7   2 7227.34 216.480  13
   6  -7   2 7332.11 307.008  25
   6  -7   2 7666.75 216.678  22
   6   7   2 7882.46 228.023  11
   6  -7   2 7837.62 229.300  11
   6   7   2 8280.43 263.035   9
   6   7   2 7358.71 220.840  18
   6   7   3 48.1131 87.4207  18
   6   7   3 129.518 102.090  13
   6  -7   3 116.967 239.059  25
   6  -7   3 123.548 80.5328  22
   6   7   3 16.1935 84.9401  11
   6  -7   3 8.74128 83.6423  11
   6  -7   3 80.6410 88.5322  21
   6  -7   4 5793.58 257.453  25
   6   7   4 5420.31 187.139  13
   6  -7   4 5275.58 185.201  22
   6   7   4 5726.97 191.260  11
   6  -7   4 5634.38 190.904  11
   6  -7   4 5365.95 188.308  21
   6  -7   4 5863.07 189.865  10
   6   7   5 7451.60 195.540  13
   6  -7   5 7126.02 240.626  25
   6  -7   5 7341.32 193.352  10
   6  -7   6 544.406 168.745  25
   6   7   6 754.743 138.407   9
   6   8  -5 28.8117 71.4103  18
  -6   8   5 32.6464 60.9044  23
   6   8  -4 1364.39 114.766  15
   6  -8  -4 1394.95 114.644  15
  -6   8   4 1382.45 105.132  23
   6   8  -4 1319.95 113.030  18
   6   8  -3 7547.65 218.258  15
   6  -8  -3 7211.87 214.356  15
   6   8  -3 7256.59 213.876  18
   6   8  -2 22052.4 354.940  15
   6  -8  -2 22559.2 365.700  15
   6   8  -2 22763.2 380.961   6
   6   8  -2 22463.0 364.764  18
   6   8  -1 435.204 97.9603  18
   6  -8  -1 352.682 90.7881   4
   6   8  -1 317.942 97.6040  15
   6  -8  -1 350.362 96.7329  15
   6   8  -1 415.292 91.3947   6
   6  -8   0 7582.25 216.894  15
   6   8   0 7037.56 221.955   6
   6  -8   0 7367.48 204.071  22
   6  -8   0 7579.01 216.136   4
   6   8   0 7336.57 219.429  18
   6  -8   1 3933.23 164.445  15
   6   8   1 3862.01 176.229   6
   6   8   1 3533.68 162.647  13
   6  -8   1 3860.27 160.592  22
   6   8   1 3875.19 168.961  11
   6  -8   1 4069.18 170.408  11
   6   8   1 3574.26 164.500  18
   6  -8   1 4223.82 169.230   4
   6  -8   2 4537.14 170.939   4
   6   8   2 4082.77 177.361   6
   6   8   2 3836.05 171.392  13
   6  -8   2 4473.05 280.883  25
   6  -8   2 4227.18 168.698  22
   6   8   2 4210.85 176.946  11
   6  -8   2 4326.87 178.388  11
   6   8   2 3974.16 172.677  18
   6  -8   3 2561.64 138.006   4
   6   8   3 2480.74 148.590  13
   6  -8   3 2189.30 260.044  25
   6  -8   3 2362.77 137.915  22
   6   8   3 2546.86 143.523  11
   6  -8   3 2579.09 144.587  11
   6  -8   3 2313.04 143.874  21
   6   8   3 2288.78 145.427  18
   6   8   4 2400.94 144.405  13
   6  -8   4 1973.47 247.766  25
   6  -8   4 2181.59 133.827  22
   6   8   4 2476.69 137.081  11
   6  -8   4 2654.48 138.947  11
   6  -8   4 2477.25 139.250  21
   6  -8   4 2486.96 138.765  10
   6   8   5 518.285 95.4938  13
   6  -8   5 729.593 102.169  10
   6  -8   6 14572.4 243.087  25
   6   8   6 14718.2 230.798   9
   6   9  -5 41.5693 67.5208  18
  -6   9   5 62.7185 61.3392  23
   6   9  -4 3193.24 148.943  15
   6  -9  -4 3228.78 142.673  15
  -6   9   4 3341.48 137.952  23
   6   9  -4 2989.91 142.174  18
   6   9  -3 207.892 91.1239  18
   6   9  -3 187.120 94.9056  15
   6  -9  -3 182.437 92.7912  15
   6   9  -2 3120.84 155.177  15
   6  -9  -2 3244.58 159.923  15
   6   9  -2 3406.14 168.191   6
   6  -9  -2 3477.00 159.915   4
   6   9  -2 3219.59 161.018  18
   6   9  -1 1056.83 114.839  15
   6  -9  -1 1108.72 123.795  15
   6   9  -1 1111.80 118.151   6
   6  -9  -1 1144.96 113.350   4
   6   9  -1 1044.21 111.998  18
   6   9   0 873.425 112.035  18
   6  -9   0 857.026 115.821  15
   6   9   0 1103.09 115.252   6
   6  -9   0 814.766 99.2490  22
   6  -9   0 763.682 100.387   4
   6  -9   1 4739.99 175.304  15
   6   9   1 4349.90 181.434   6
   6   9   1 4337.68 175.858  13
   6  -9   1 3913.53 161.783  22
   6   9   1 4689.02 178.902  11
   6  -9   1 4630.14 179.496  11
   6   9   1 3983.20 171.377  18
   6  -9   1 4130.96 168.704   4
   6   9   2 401.805 100.277  18
   6  -9   2 453.953 87.7971   4
   6   9   2 471.271 91.4194   6
   6   9   2 378.116 107.631  13
   6  -9   2 399.228 92.7315  22
   6   9   2 485.712 94.4846  11
   6  -9   2 577.748 100.421  11
   6   9   3 610.981 201.209   9
   6  -9   3 1058.76 108.330   4
   6   9   3 985.474 119.243  13
   6  -9   3 1203.65 247.491  25
   6  -9   3 948.180 109.379  22
   6   9   3 1171.62 112.613  11
   6  -9   3 1326.56 115.733  11
   6  -9   3 1034.19 110.183  21
   6   9   3 1054.49 117.194  18
   6   9   4 778.373 111.986  13
   6  -9   4 746.033 228.381  25
   6  -9   4 922.206 103.126  22
   6  -9   4 886.635 105.438  21
   6  -9   4 1070.52 106.740  10
   6   9   5 2704.91 128.922  13
   6  -9   5 2409.47 215.018  25
   6  -9   5 2769.54 131.212  10
   6   9   6 493.513 126.857   9
   6  -9   6 434.025 148.971  25
   6  10  -5 114.355 68.4921  18
  -6  10   5 153.898 60.2348  23
   6  10  -4 469.680 91.9968  18
   6 -10  -4 627.907 94.3646  15
  -6  10   4 471.900 79.1879  23
   6  10  -3 5637.58 191.715  15
   6 -10  -3 5825.75 196.821  15
   6  10  -3 5814.76 192.283  18
   6  10  -2 930.190 114.425  15
   6 -10  -2 1082.54 117.339  15
   6  10  -2 997.170 117.058   6
   6 -10  -2 946.334 112.685   4
   6  10  -2 1126.96 116.491  18
   6  10  -1 233.592 95.5131  18
   6 -10  -1 233.804 85.3360   4
   6  10  -1 291.405 93.8537  15
   6 -10  -1 398.645 108.571  15
   6  10  -1 254.827 96.0253   6
   6 -10  -1 284.940 85.3712  22
   6 -10   0 3074.39 156.323  15
   6  10   0 3566.04 168.529   6
   6 -10   0 3113.53 147.151  22
   6 -10   0 3576.15 161.416   4
   6  10   0 3224.43 157.755  18
   6 -10   1 6325.77 199.750  15
   6  10   1 6300.84 207.814   6
   6  10   1 6301.52 202.410  13
   6 -10   1 6066.23 195.282  22
   6 -10   1 6862.48 208.092  11
   6  10   1 6242.23 205.378  18
   6 -10   1 6459.72 206.370   4
   6  10   2 263.551 95.7361  18
   6 -10   2 327.249 86.9016   4
   6  10   2 356.234 97.3504   6
   6  10   2 291.121 104.501  13
   6 -10   2 349.660 89.5010  22
   6  10   2 320.532 89.7555  11
   6 -10   2 319.166 93.4007  11
   6  10   3 15707.2 294.979  13
   6 -10   3 15588.7 353.375  25
   6 -10   3 15451.2 297.476  22
   6  10   3 18089.8 311.328  11
   6 -10   3 17844.4 313.738  11
   6 -10   3 15334.8 305.948  21
   6  10   3 17267.7 336.900   9
   6  10   3 15202.0 307.643  18
   6  10   4 113.576 93.2906  13
   6 -10   4 237.868 213.429  25
   6 -10   4 71.4478 77.4656  22
   6 -10   4 80.1447 75.2951  21
   6 -10   4 141.878 87.6501  10
   6  10   5 187.403 86.8346  13
   6 -10   5 234.695 186.673  25
   6 -10   5 276.834 86.6341  10
   6 -10   6 938.205 139.211  25
   6  10   6 724.281 120.219   9
  -6  11   5 727.289 71.7534  23
   6  11  -5 785.484 82.0642  18
   6 -11  -4 2275.22 120.757  15
  -6  11   4 2098.07 113.918  23
   6  11  -4 1986.34 123.066  18
   6  11  -3 298.442 91.7135  18
   6  11  -3 251.000 100.654  15
   6 -11  -3 343.464 99.8341  15
  -6  11   3 271.449 77.1588  23
   6  11  -2 10439.9 248.813  15
   6 -11  -2 10099.2 251.399  15
   6  11  -2 10779.3 263.264   6
   6 -11  -2 10772.1 258.589   4
   6  11  -2 10687.4 257.533  18
   6  11  -1 396.454 94.3522  18
   6 -11  -1 246.361 89.7480   4
   6  11  -1 174.692 88.8030  15
   6 -11  -1 226.795 102.132  15
   6  11  -1 157.951 87.3566   6
   6 -11  -1 135.118 81.9110  22
   6 -11   0 5637.24 194.632  15
   6  11   0 5851.61 203.713   6
   6 -11   0 5534.04 186.081  22
   6 -11   0 5627.21 193.125   4
   6  11   0 5969.66 202.088  18
   6  11   1 13675.2 293.313   6
   6  11   1 13926.2 275.801  13
   6  11   1 14168.1 289.224  12
   6 -11   1 13088.0 272.825  22
   6  11   1 13317.6 287.466  18
   6 -11   1 14022.1 294.963   4
   6 -11   2 17700.7 317.086   4
   6  11   2 17756.6 330.018   6
   6  11   2 16453.2 305.508  13
   6 -11   2 16088.7 304.568  22
   6 -11   2 17772.8 363.564  25
   6  11   2 16537.1 321.812  18
   6  11   3 76.1511 93.7241  18
   6  11   3 82.5511 99.5056  13
   6 -11   3 312.201 220.466  25
   6 -11   3 50.9379 82.6228  22
   6 -11   3 56.0837 77.0701  21
   6  11   4 2132.74 134.750  13
   6 -11   4 2652.28 229.393  25
   6 -11   4 2195.47 127.654  22
   6 -11   4 2295.81 129.797  21
   6 -11   4 2411.68 128.370  10
   6  11   5 65.9189 85.9786  13
   6 -11   5 313.990 176.654  25
   6 -11   5 145.233 83.2491  10
   6  11   6 748.495 107.726   9
  -6  12   5 3274.27 109.166  23
   6  12  -5 3146.00 116.189  18
   6 -12  -4 2056.58 114.425  15
  -6  12   4 1829.12 105.634  23
   6  12  -4 1844.08 116.736  18
   6  12  -3 9076.40 230.076  15
   6 -12  -3 9835.05 236.382  15
  -6  12   3 10286.6 222.961  23
   6  12  -3 9335.34 232.515  18
   6  12  -2 165.828 90.3905  18
   6  12  -2 153.898 93.2306  15
   6 -12  -2 148.803 94.8448  15
   6  12  -1 652.246 110.939  18
   6 -12  -1 679.458 106.266   4
   6  12  -1 651.373 104.349  15
   6  12  -1 869.121 106.272   6
   6 -12  -1 737.180 95.7907  22
   6  12   0 528.377 101.507  18
   6 -12   0 460.473 100.632   4
   6 -12   0 718.024 108.647  15
   6  12   0 384.073 90.5510   6
   6 -12   0 511.646 93.7075  22
   6  12   1 6556.70 213.539   6
   6  12   1 6488.97 202.042  13
   6  12   1 6465.75 203.912  12
   6  12   1 6006.49 204.407  18
   6 -12   1 6561.26 210.775   4
   6 -12   2 4422.76 174.953   4
   6  12   2 4585.46 178.320   6
   6  12   2 4141.64 173.537  13
   6 -12   2 4121.60 169.820  22
   6  12   2 4093.97 176.847  18
   6  12   3 2646.79 148.140  13
   6 -12   3 2472.64 139.044  22
   6 -12   3 2620.24 142.745  21
   6  12   3 2636.73 144.173  18
   6  12   4 189.310 96.5216  13
   6 -12   4 286.963 84.2688  22
   6 -12   4 173.092 81.0192  21
   6 -12   4 283.985 85.6707  10
   6  12   5-24.5683 79.7366  13
   6 -12   5 155.514 80.1642  10
   6  13  -5 375.208 69.8717  18
  -6  13   5 357.845 59.2082  23
  -6  13   4 1981.99 105.789  23
   6  13  -4 2012.92 115.990  18
   6 -13  -3 1007.09 108.423  15
  -6  13   3 1089.88 99.1041  23
   6  13  -3 979.993 109.782  18
   6  13  -2 6201.33 196.520  15
   6 -13  -2 6078.45 202.354  15
   6 -13  -2 6365.25 184.180  22
   6  13  -2 5896.86 197.412  18
   6  13  -1 33574.3 411.465  15
   6 -13  -1 33102.5 435.362  15
   6 -13  -1 33438.2 415.392  22
   6 -13  -1 33642.4 446.165   4
   6  13   0 213.616 96.3897  18
   6 -13   0 71.6419 86.6721   4
   6  13   0 121.437 91.9675   6
   6 -13   0 119.179 80.0731  22
   6  13   1 23052.1 369.038   6
   6  13   1 22688.7 340.108  13
   6  13   1 22915.8 367.135  12
   6 -13   1 20624.1 337.768  22
   6  13   1 20801.4 354.248  18
   6 -13   1 24032.9 383.766   4
   6  13   2 1155.70 123.531  13
   6  13   2 1287.78 110.609  12
   6 -13   2 1190.04 110.547  22
   6  13   2 1126.82 116.218  18
   6  13   3 3997.24 166.644  13
   6 -13   3 3622.95 156.739  22
   6 -13   3 3699.11 159.804  21
   6  13   3 3960.02 165.831  18
   6  13   4 108.344 92.4791  13
   6 -13   4 49.2325 77.3235  22
   6 -13   4 59.8313 71.1527  21
   6 -13   4 25.8156 78.8745  10
   6  13   5 16.5677 136.169   9
   6  13   5 13.9952 79.1346  13
   6 -13   5 95.7522 76.4145  10
  -6  14   5 2728.32 92.1377  23
   6  14  -5 2767.00 100.544  18
  -6  14   4 1776.16 100.944  23
   6  14  -4 1632.14 107.266  18
   6 -14  -3 25459.0 349.809  15
   6  14  -3 24852.8 354.609  18
   6 -14  -2 4753.69 179.517  15
   6  14  -2 4503.67 176.317  18
   6 -14  -1 24294.0 375.631  15
   6  14  -1 23412.6 370.882  18
   6  14   0 1691.36 125.466   6
   6 -14   0 1792.70 121.508  22
   6 -14   0 1704.62 128.962   4
   6  14   0 1635.68 133.974  18
   6  14   1 27227.6 393.898   6
   6  14   1 25978.6 358.962  13
   6  14   1 25216.8 384.803  12
   6 -14   1 23446.7 357.817  22
   6  14   1 23643.1 372.079  18
   6 -14   1 25145.9 390.640   4
   6  14   2 4178.18 173.801  13
   6 -14   2 4416.29 170.389  22
   6  14   2 4382.21 176.315  18
   6  14   3 7087.58 203.014  13
   6 -14   3 6769.81 198.961  22
   6 -14   3 7103.73 201.925  21
   6  14   3 7111.84 203.781  18
   6  14   4 2595.46 134.470  13
   6 -14   4 2622.52 128.484  22
   6 -14   4 2664.72 124.994  21
   6 -14   4 2816.07 124.603  10
   6  14   5 1650.07 102.277  13
   6 -14   5 1551.69 98.7651  10
  -6  15   5 2662.65 85.7333  23
   6  15  -5 2593.55 94.5776  18
   6  15  -4 598.610 85.3397  18
  -6  15   4 636.540 74.4416  23
   6 -15  -3 2829.29 138.518  15
  -6  15   3 2799.05 122.803  23
   6  15  -3 2859.16 137.701  18
   6  15  -2 30.9501 82.7989  18
   6 -15  -2 1.05057 85.3203  15
   6 -15  -2 70.5466 75.5097  22
   6 -15  -1 28102.5 398.390  15
   6 -15  -1 28744.4 385.054  22
   6  15  -1 27900.1 399.117  18
   6  15   0 421.305 100.728  18
   6 -15   0 660.059 92.8710  22
   6  15   1 7704.18 210.504  13
   6  15   1 6922.73 211.190  12
   6 -15   1 7189.84 206.817  22
   6  15   1 7050.90 213.742  18
   6  15   2 1284.54 123.802  13
   6  15   2 1504.99 115.417  12
   6 -15   2 1387.21 115.630  22
   6  15   2 1380.06 119.957  18
   6  15   3 2823.98 145.672  13
   6 -15   3 2737.92 137.563  22
   6 -15   3 2696.56 133.320  21
   6  15   4 625.237 97.6622  13
   6 -15   4 629.948 84.0000  22
   6 -15   4 636.288 80.3518  21
   6  15   5 255.482 78.7732  13
   6 -15   5 367.842 76.0183  10
  -6  16   4 1865.18 95.1605  23
   6  16  -4 1535.54 99.3030  18
   6 -16  -3 1030.42 101.128  15
  -6  16   3 1073.07 89.6329  23
   6 -16  -3 1043.83 86.6403  22
   6  16  -3 1057.82 103.485  18
   6  16  -2 149.065 85.3762  18
   6 -16  -2 174.605 88.2167  15
   6 -16  -2 148.715 71.6661  22
   6 -16  -1 21701.2 346.539  15
   6 -16  -1 21741.1 332.691  22
   6  16  -1 21507.6 343.553  18
   6 -16   0 3986.96 160.409  22
   6  16   0 4000.96 166.315  18
   6  16   1 4461.30 169.376  13
   6  16   1 3830.71 163.145  12
   6 -16   1 4081.74 162.840  22
   6  16   1 4119.75 168.976  18
   6  16   2 15.1056 84.7383  18
   6  16   2 26.7199 95.1820  13
   6  16   2 48.2484 77.9921  12
   6 -16   2 65.2890 79.7374  22
   6 -16   2 56.7506 76.2785  21
   6  16   3 276.794 97.0066  13
   6  16   3 387.273 80.0322  12
   6 -16   3 329.038 81.9647  22
   6 -16   3 295.427 75.5318  21
   6  16   4 4227.30 150.818  13
   6 -16   4 4266.46 142.264  22
   6 -16   4 4601.04 138.668  21
   6  16   5 4054.75 119.968  13
   6 -16   5 4295.64 115.055  10
  -6  17   4 1319.67 81.4370  23
   6  17  -4 1484.53 93.3685  18
   6 -17  -3 2744.22 125.353  15
  -6  17   3 2711.20 115.798  23
   6 -17  -3 2608.41 111.708  22
   6  17  -3 2572.91 125.480  18
   6  17  -2 36.8200 78.8187  18
   6 -17  -2 58.4044 83.0070  15
   6 -17  -2 121.661 70.4841  22
   6  17  -1 34.0276 79.8723  18
   6 -17  -1 92.8556 88.8105  15
   6 -17  -1 55.9432 74.0457  22
   6  17   0 943.097 106.763  12
   6 -17   0 1063.69 104.419  22
   6  17   1 136.409 86.8266  18
   6  17   1 133.308 99.7296  13
   6  17   1 116.745 77.2639  12
   6 -17   1 104.977 82.5424  22
   6  17   2 5663.93 184.642  13
   6 -17   2 5639.03 179.963  22
   6 -17   2 5979.94 179.983  21
   6  17   2 6116.37 185.497  18
   6  17   3 546.864 101.024  13
   6  17   3 471.031 78.5150  12
   6 -17   3 532.379 85.3888  22
   6 -17   3 566.014 81.6912  21
   6  17   4 1901.55 116.440  13
   6 -17   4 1901.55 104.585  22
   6 -17   4 1926.02 90.3405  21
   6  17   5 252.099 68.2287  13
   6  18  -4 94.0572 65.5274  18
  -6  18   4 195.163 56.7778  23
   6 -18  -3 5038.63 146.241  15
  -6  18   3 4742.97 138.214  23
   6 -18  -3 4799.93 134.016  22
   6  18  -3 4788.16 149.649  18
   6  18  -2 264.961 82.8322  18
   6 -18  -2 313.756 87.0227  15
   6 -18  -2 283.423 74.0996  22
   6 -18  -1 1004.35 106.510  15
   6 -18  -1 939.496 95.3069  22
   6  18  -1 1024.90 103.032  18
   6  18   0 3059.77 148.861  12
   6 -18   0 3008.99 141.485  22
   6  18   0 3265.26 147.962  18
   6  18   1 2412.57 135.253  13
   6  18   1 2089.82 127.607  12
   6 -18   1 2156.52 125.215  22
   6  18   1 2465.49 132.397  18
   6  18   2 3606.94 151.850  13
   6  18   2 3780.24 150.027  12
   6 -18   2 3588.66 148.332  22
   6 -18   2 4022.35 145.261  21
   6  18   2 4045.98 150.179  18
   6  18   3 1537.16 115.404  13
   6  18   3 1531.53 99.2976  12
   6 -18   3 1635.80 107.902  22
   6 -18   3 1613.32 96.7077  21
   6  18   4 1953.31 111.373  13
   6 -18   4 2098.01 100.930  22
  -6  19   4 1894.20 78.9493  23
   6  19  -4 1864.39 85.1634  18
   6  19  -3 50.5596 68.4530  18
   6 -19  -3 111.395 70.7696  15
  -6  19   3 30.7977 55.9886  23
   6 -19  -3 66.7899 58.3740  22
   6  19  -2 443.616 81.1457  18
   6 -19  -2 401.955 90.2195  15
   6 -19  -2 359.671 74.9255  22
   6  19  -1 130.874 74.9651  18
   6 -19  -1 202.440 84.7096  15
   6 -19  -1 107.053 70.8198  22
   6  19   0 5199.84 175.664  12
   6 -19   0 5193.16 169.720  22
   6  19   0 5484.33 172.268  18
   6  19   1 342.396 84.2285  18
   6  19   1 267.272 91.9063  13
   6  19   1 256.032 80.3025  12
   6 -19   1 268.553 76.8086  22
   6  19   2 152.456 72.3930  18
   6  19   2 23.3262 87.4431  13
   6  19   2 62.5850 68.7797  12
   6 -19   2 102.527 73.0533  22
   6 -19   2 102.850 65.9157  21
   6  19   3 952.171 102.111  13
   6  19   3 1012.04 86.2994  12
   6 -19   3 1115.92 92.9295  22
   6  19   4 106.401 76.2967  13
   6 -19   4 176.938 63.8588  22
   6  20  -3 79.5279 65.0696  18
   6 -20  -3 11.0285 62.2377  15
  -6  20   3 57.1143 54.5205  23
   6 -20  -3 33.8059 54.4776  22
   6 -20  -2 1971.82 114.180  15
   6 -20  -2 2009.14 103.296  22
   6  20  -2 1995.28 110.006  18
   6 -20  -1 2855.70 139.543  15
   6  20  -1 2939.70 136.382  12
   6 -20  -1 3003.49 130.378  22
   6  20  -1 3341.89 134.433  18
   6  20   0 2011.99 121.357  12
   6 -20   0 1864.94 112.521  22
   6  20   0 1961.38 115.869  18
   6  20   1 1277.71 108.932  13
   6  20   1 1127.40 99.3031  12
   6 -20   1 1219.16 101.021  22
   6  20   1 1422.46 103.120  18
   6  20   2 3810.73 144.227  13
   6  20   2 3747.65 141.052  12
   6 -20   2 3476.64 135.619  22
   6  20   3 8087.66 183.029  13
   6  20   3 8592.86 178.729  12
   6 -20   3 8297.02 178.799  22
   6  20   4 2280.54 101.504  13
   6 -20   4 2418.39 91.2535  22
  -6  21   3 2425.94 91.4026  23
   6  21  -3 2186.80 96.1195  12
   6 -21  -3 2270.50 89.9466  22
   6  21  -3 2289.93 95.6965  18
   6 -21  -2 8951.14 186.703  15
   6 -21  -2 8793.38 180.243  22
   6  21  -2 9141.77 180.178  18
   6 -21  -1 4206.66 149.768  15
   6  21  -1 4319.42 150.076  12
   6 -21  -1 4357.82 143.860  22
   6  21  -1 4544.27 143.967  18
   6  21   0 3588.96 144.567  12
   6 -21   0 3413.61 135.162  22
   6  21   0 3740.37 134.350  18
   6  21   1-6.79525 69.6205  18
   6  21   1 52.8474 66.9554  12
   6 -21   1 69.6373 69.9792  22
   6  21   2 6475.10 167.642  13
   6  21   2 6242.02 168.093  12
   6 -21   2 6161.72 164.060  22
   6  21   3 3656.08 129.593  13
   6  21   3 3904.77 121.467  12
   6 -21   3 4089.74 124.382  22
   6  21   4 1946.94 89.6051  13
  -6  22   3 4096.81 100.445  23
   6  22  -3 4080.98 109.452  12
   6 -22  -3 4057.00 102.782  22
   6  22  -3 4083.77 103.546  18
   6 -22  -2 7537.65 163.268  15
   6  22  -2 7348.45 167.753  12
   6 -22  -2 7463.47 159.017  22
   6 -22  -1 1721.50 107.008  15
   6  22  -1 1863.79 106.035  12
   6 -22  -1 1745.45 100.693  22
   6  22  -1 2099.36 100.496  18
   6  22   0 1929.55 108.087  12
   6 -22   0 1781.43 103.864  22
   6  22   1 226.959 68.6389  12
   6 -22   1 277.787 70.4043  22
   6  22   2 277.151 80.6970  13
   6  22   2 210.732 67.4687  12
   6 -22   2 223.683 64.6996  22
   6  22   3 416.266 79.5416  13
   6  22   3 494.245 62.2928  12
   6 -22   3 513.440 66.9399  22
   6 -23  -2 3625.57 112.022  15
  -6  23   2 3801.24 101.581  23
   6  23  -2 3612.19 114.968  12
   6 -23  -2 3500.55 110.440  22
   6  23  -2 3964.43 105.611  18
   6 -23  -1 2817.65 119.820  15
   6  23  -1 2877.99 114.859  12
   6 -23  -1 2791.92 111.142  22
   6 -23   0 1481.29 100.226  15
   6  23   0 1572.89 95.9555  12
   6 -23   0 1585.32 94.2424  22
   6  23   1 1309.10 89.1463  12
   6 -23   1 1217.59 86.7904  22
   6  23   2 4922.97 131.085  13
   6  23   2 4469.86 130.764  12
   6 -23   2 4618.56 128.836  22
   6  23   3 1918.81 91.1960  13
   6  23   3 1993.52 81.0585  12
   6 -23   3 1952.34 77.9393  22
   6 -24  -2 14732.6 177.302  15
   6  24  -2 14833.8 192.297  12
   6 -24  -2 14703.2 188.112  22
   6 -24  -1 256.920 68.6899  15
   6  24  -1 277.213 62.3727  12
   6 -24  -1 276.989 61.8386  22
   6  24   0 206.760 60.5928  12
   6 -24   0 284.128 65.4483  22
   6 -24   1 3560.05 120.557  15
   6  24   1 3503.56 119.429  12
   6 -24   1 3568.65 116.485  22
   6 -24   2 561.915 68.1415  15
   6  24   2 630.670 73.4963  13
   6  24   2 557.176 65.2865  12
   6 -24   2 665.244 65.7499  22
   6 -25  -1 3232.60 103.329  15
   6  25  -1 3558.39 106.116  12
   6 -25  -1 3385.34 103.514  22
   6 -25   0 1222.88 85.9602  15
   6  25   0 1256.62 79.8769  12
   6 -25   0 1417.26 80.2317  22
   6  25   1 2273.55 93.3077  12
   6 -25   1 2218.02 90.1783  22
   6  25   2 33.7535 46.0710  12
   6 -25   2 24.5395 45.6126  22
   6 -26  -1 2215.21 78.1786  22
   6  26   0 8269.46 143.824  12
   6 -26   0 8347.47 139.502  22
   6 -26   1 19.9291 51.5607  15
   6  26   1 127.720 47.1754  12
   6 -26   1 10.8334 44.3567  22
   7   0  -4 14136.7 239.507  15
   7   0  -3-4.74742 82.0242  15
   7   0  -2 1793.76 132.963  15
   7   0  -1 26.4751 87.0160  15
   7   0   0 13008.7 264.175  15
   7   0   1-15.1931 92.7279  18
   7   0   1 52.0952 92.0426  11
   7   0   2 240581. 1188.09  11
   7   0   2 239446. 1074.96  18
   7   0   3-10.4428 88.4409  11
   7   0   3 9.13984 74.7276  21
   7   0   4 2191.17 239.696  25
   7   0   4 1841.74 118.822  11
   7   0   4 1982.34 113.706  21
   7   0   5 731.128 183.465  25
   7   1  -4 3663.41 140.134  15
   7  -1  -4 3870.85 142.623  15
   7   1  -3 2479.78 138.589  15
   7  -1  -3 2622.02 139.358  15
   7   1  -2 13057.8 272.349  15
   7  -1  -2 12735.9 266.806  15
   7   1  -1 2173.13 134.011  15
   7  -1  -1 2434.00 139.750  15
   7   1   0 112001. 723.532  15
   7   1   0 111655. 726.826  18
   7   1   1 6850.70 227.159  13
   7   1   1 5741.73 206.737  11
   7  -1   1 5517.58 201.346  11
   7   1   1 6571.92 203.048  18
   7   1   2 9980.64 256.620  13
   7   1   2 9148.10 247.753  11
   7  -1   2 8938.11 244.299  11
   7   1   2 9658.50 230.772  21
   7  -1   2 8999.70 229.874  21
   7   1   2 9113.80 229.971  18
   7  -1   3 2705.54 161.986  13
   7   1   3 1524.79 138.766  13
   7   1   3 1400.00 247.472  25
   7  -1   3 1115.92 251.851  25
   7  -1   3 547.362 90.4863  22
   7   1   3 622.485 104.002  11
   7  -1   3 515.001 103.215  11
   7   1   3 633.696 92.9068  21
   7  -1   3 550.590 95.7160  21
   7   1   3 2589.24 206.639   9
   7   1   4 48480.2 451.740  13
   7   1   4 48118.6 476.706  25
   7  -1   4 46878.2 477.878  25
   7   1   4 48196.9 475.649  11
   7  -1   4 46836.6 469.468  11
   7   1   4 48377.2 443.767  21
   7  -1   4 48834.0 457.311  21
   7  -1   4 45003.8 432.146   9
   7   1   4 45160.7 431.065   9
   7   1   5 992.946 183.001  25
   7  -1   5 841.711 185.992  25
   7   2  -4 4852.84 152.286  15
   7  -2  -4 4743.91 150.551  15
   7   2  -3 33.0823 90.5357  15
   7  -2  -3 76.8110 88.6858  15
   7   2  -2 2198.19 138.381  15
   7  -2  -2 2213.92 137.611  15
   7   2  -1-30.4396 87.2334  18
   7   2  -1 125.789 90.6071  15
   7  -2  -1 145.409 91.1963  15
   7   2   0 382.160 98.7192  18
   7   2   0 366.320 103.676  15
   7  -2   0 515.061 102.155  15
   7   2   1 1190.28 145.927  13
   7   2   1 1101.22 119.086  11
   7  -2   1 1302.58 128.043  11
   7   2   2 63236.9 568.857  13
   7   2   2 63254.3 617.327  11
   7  -2   2 63533.1 618.560  11
   7  -2   2 63783.5 586.263  21
   7   2   3 2034.34 149.862  13
   7  -2   3 2020.20 261.927  25
   7  -2   3 1282.63 107.510  22
   7   2   3 1324.14 117.139  11
   7  -2   3 1287.02 119.637  11
   7   2   3 1247.25 103.930  21
   7  -2   3 1357.21 111.911  21
   7   2   4 1490.29 231.446  25
   7  -2   4 1402.46 230.562  25
   7   2   4 848.612 99.0976  11
   7  -2   4 777.176 99.0520  11
   7  -2   4 901.475 92.8099  21
   7  -2   5 1370.36 180.343  25
   7   2   5 2606.20 158.428   9
   7   3  -4 147.921 76.9737  15
   7  -3  -4 108.480 74.9762  15
   7  -3  -3 739.094 99.8756  15
   7   3  -3 716.613 103.512  15
   7   3  -2 1067.52 112.950  15
   7  -3  -2 1158.39 122.102  15
   7   3  -2 1169.27 107.343  18
   7   3  -1 15502.5 288.990  15
   7  -3  -1 15356.4 289.802  15
   7  -3   0 2885.20 145.697  15
   7   3   0 2964.71 147.141  18
   7   3   1 686.054 105.740  18
   7   3   1 608.873 102.764  11
   7  -3   1 739.888 108.798  11
   7   3   2 1211.71 138.622  13
   7   3   2 907.857 113.656  11
   7  -3   2 1096.56 120.296  11
   7  -3   2 786.244 103.273  21
   7   3   2 975.523 110.703  18
   7   3   3 1860.42 143.054  13
   7  -3   3 2199.99 260.612  25
   7  -3   3 1146.65 101.636  22
   7   3   3 1070.44 108.317  11
   7  -3   3 1163.99 112.090  11
   7  -3   3 1069.55 103.970  21
   7   3   4 1847.85 138.219  13
   7   3   4 1570.03 227.735  25
   7  -3   4 1254.81 230.343  25
   7   3   4 790.020 93.6859  11
   7  -3   4 805.899 95.1025  11
   7  -3   4 800.534 87.2144  21
   7  -3   5 1492.81 181.362  25
   7   3   5 3347.84 159.901   9
   7   4  -4 2578.62 123.031  15
   7  -4  -4 2721.82 118.959  15
   7   4  -3 7303.70 201.637  15
   7  -4  -3 7656.06 202.711  15
   7   4  -3 7751.97 185.439  18
   7   4  -2 10975.4 246.769  15
   7  -4  -2 10877.3 247.838  15
   7   4  -2 11597.3 242.982  18
   7   4  -1 1152.91 112.199  15
   7  -4  -1 1090.39 114.036  15
   7   4  -1 1081.22 110.674  18
   7  -4   0 25517.0 360.523  15
   7   4   0 26654.9 374.967  18
   7   4   1 6898.64 216.285  11
   7  -4   1 6720.62 212.632  11
   7   4   1 7076.07 207.191  18
   7   4   2 4808.55 189.030  13
   7  -4   2 4654.89 161.674  22
   7   4   2 4728.86 181.101  11
   7  -4   2 4829.22 182.518  11
   7  -4   2 4642.10 174.013  21
   7   4   2 4837.01 175.841  18
   7   4   3 2644.95 152.000  13
   7  -4   3 2406.15 124.109  22
   7   4   3 2392.31 135.243  11
   7  -4   3 2333.84 134.623  11
   7  -4   3 2353.55 130.279  21
   7   4   4 9101.77 215.391  13
   7  -4   4 9331.34 276.742  25
   7   4   4 8347.75 203.616  11
   7  -4   4 8252.16 202.841  11
   7  -4   4 8072.45 199.568  21
   7  -4   5 2770.37 188.707  25
   7   4   5 4325.51 164.619   9
   7   5  -4 168.383 79.5234  15
   7  -5  -4 119.815 70.6412  15
   7   5  -3 8238.51 212.972  15
   7  -5  -3 8122.54 207.020  15
   7   5  -3 8540.58 194.183  18
   7   5  -2 16633.2 297.067  15
   7  -5  -2 16759.7 303.722  15
   7   5  -2 16952.0 289.839  18
   7   5  -1 626.166 95.8436  18
   7   5  -1 542.425 101.300  15
   7  -5  -1 589.358 102.784  15
   7  -5   0 6458.50 195.984  15
   7   5   0 6439.46 198.845  18
   7   5   1 15403.6 287.140  13
   7   5   1 14751.8 302.797  11
   7  -5   1 15146.8 304.759  11
   7   5   1 14775.2 287.679  18
   7   5   2 3016.17 164.452  13
   7  -5   2 3444.29 144.172  22
   7   5   2 3187.50 155.182  11
   7  -5   2 3254.99 154.306  11
   7  -5   2 2924.80 148.158  21
   7   5   2 3142.88 151.189  18
   7   5   3 628.053 122.233  13
   7  -5   3 439.456 83.4700  22
   7   5   3 379.508 90.6954  11
   7  -5   3 441.070 93.8295  11
   7  -5   3 488.794 88.3738  21
   7   5   4 1490.84 124.448  13
   7  -5   4 1631.12 216.980  25
   7  -5   5 3185.61 188.197  25
   7   5   5 4167.39 158.408   9
   7   6  -4 1959.57 110.249  15
   7  -6  -4 2060.02 106.200  15
   7   6  -4 1872.79 93.1156  18
   7   6  -3 3599.79 151.016  15
   7  -6  -3 3537.70 151.065  15
   7   6  -3 3614.41 137.215  18
   7   6  -2 2791.01 143.442  15
   7  -6  -2 2805.64 145.121  15
   7   6  -2 2721.37 135.885  18
   7   6  -1 1828.23 123.387  15
   7  -6  -1 1772.22 128.186  15
   7   6  -1 1739.21 123.332  18
   7   6   0 714.687 103.740  18
   7  -6   0 654.998 105.495  15
   7   6   1 1557.21 147.670  13
   7   6   1 1458.84 119.561  11
   7  -6   1 1380.49 118.032  11
   7   6   1 1491.15 123.563  18
   7   6   2 5631.47 193.490  13
   7  -6   2 5711.84 175.824  22
   7   6   2 5493.06 187.763  11
   7  -6   2 5489.01 187.953  11
   7  -6   2 4962.31 179.276  21
   7   6   2 5278.34 184.321  18
   7   6   3 3016.74 154.946  13
   7  -6   3 2909.87 133.703  22
   7   6   3 2738.56 136.679  11
   7  -6   3 2650.06 137.924  11
   7  -6   3 2588.08 135.961  21
   7   6   4 416.399 108.703  13
   7  -6   4 561.971 207.791  25
   7  -6   4 43.4924 69.9918  22
   7  -6   4 16.8613 63.9190  21
   7  -6   5 1885.99 170.948  25
   7   6   5 2778.68 147.217   9
   7  -7  -4 5807.83 149.269  15
   7   7  -4 5910.26 138.954  18
   7   7  -3 1931.04 120.491  15
   7  -7  -3 2083.30 125.729  15
   7   7  -3 1899.74 112.272  18
   7   7  -2 90.5742 81.9863  18
   7   7  -2 136.573 85.5888  15
   7  -7  -2 64.4397 81.8279  15
   7   7  -1 1895.89 122.948  15
   7  -7  -1 1779.46 126.513  15
   7   7  -1 1834.77 127.323  18
   7  -7   0 3989.18 162.422  15
   7   7   0 3960.57 165.897  18
   7   7   1 2419.67 149.137  13
   7  -7   1 2266.38 122.555  22
   7   7   1 2292.65 135.604  11
   7  -7   1 2327.01 137.932  11
   7   7   1 2203.33 135.093  18
   7   7   2 7946.69 214.393  13
   7  -7   2 8195.45 205.822  22
   7   7   2 8004.73 216.707  11
   7  -7   2 8229.62 220.750  11
   7   7   2 7655.90 214.173  18
   7   7   3 9207.74 219.322  13
   7  -7   3 9168.64 211.875  22
   7   7   3 9643.26 223.098  11
   7  -7   3 8867.72 215.296  11
   7  -7   3 9002.80 223.650  21
   7  -7   4 158.344 71.7921  22
   7  -7   4 81.0660 65.0172  21
   7   7   5 2466.60 133.839   9
   7  -8  -4 8050.97 164.416  15
   7   8  -4 7808.44 156.814  18
   7   8  -3 1953.32 122.450  15
   7  -8  -3 2079.85 120.271  15
   7   8  -3 1949.18 111.104  18
   7   8  -2 3606.60 150.756  15
   7  -8  -2 3412.21 149.770  15
   7   8  -2 3560.14 151.590  18
   7   8  -1 199.638 86.9776  18
   7   8  -1 207.400 85.3945  15
   7  -8  -1 144.554 91.3065  15
   7  -8   0 6936.48 201.344  15
   7   8   0 6816.02 202.568  18
   7  -8   1 1922.65 121.679  15
   7   8   1 2156.04 132.796  13
   7  -8   1 1824.14 114.440  22
   7   8   1 1886.39 127.338  11
   7  -8   1 2116.49 131.839  11
   7   8   1 1865.56 127.891  18
   7   8   2 653.579 98.1422  18
   7   8   2 829.058 112.559  13
   7  -8   2 805.638 94.7954  22
   7   8   2 826.026 99.3556  11
   7  -8   2 807.092 102.271  11
   7  -8   2 835.864 96.9267  21
   7   8   3 963.799 112.795  13
   7  -8   3 865.164 94.7685  22
   7   8   3 959.188 97.2123  11
   7  -8   3 936.404 96.7314  11
   7  -8   3 799.038 97.6394  21
   7   8   4 4692.76 160.598  13
   7  -8   4 4397.45 145.655  22
   7  -8   4 4368.94 146.191  21
   7   8   5 1006.28 97.6914  13
   7   8   5 2780.39 128.096   9
   7  -9  -4 4823.62 127.770  15
   7   9  -4 5085.76 130.514  18
   7   9  -3 4265.24 151.452  15
   7  -9  -3 4199.70 148.765  15
   7   9  -3 4320.24 145.472  18
   7   9  -2 2891.22 139.913  15
   7  -9  -2 2639.10 136.350  15
   7   9  -2 2795.95 140.437  18
   7   9  -1 4909.76 166.534  15
   7  -9  -1 4889.73 178.441  15
   7   9  -1 4593.49 169.918  18
   7  -9   0 4455.79 170.818  15
   7   9   0 4648.82 172.128  11
   7  -9   0 4792.19 172.404  11
   7   9   0 4328.34 169.689  18
   7   9   1 203.659 89.6874  18
   7  -9   1 302.103 90.8323  15
   7   9   1 214.394 95.3979  13
   7  -9   1 156.113 79.0453  22
   7   9   1 307.947 84.3790  11
   7  -9   1 280.168 87.2865  11
   7   9   2 202.131 88.6428  18
   7   9   2 101.998 94.7213  13
   7  -9   2 156.930 80.5342  22
   7   9   2 228.449 81.9538  11
   7  -9   2 120.328 80.3425  11
   7  -9   2 101.269 80.5749  21
   7   9   3 1612.52 121.930  13
   7  -9   3 1695.26 110.785  22
   7   9   3 1842.19 111.351  11
   7  -9   3 1857.22 112.496  11
   7  -9   3 1580.98 109.531  21
   7   9   4 1621.62 120.640  13
   7  -9   4 1412.35 96.4874  22
   7  -9   4 1450.46 99.4805  21
   7   9   5 2504.09 106.238  13
   7 -10  -4 745.589 74.5298  15
   7  10  -4 692.425 72.4756  18
   7 -10  -3 1542.16 108.747  15
   7  10  -3 1520.57 100.467  18
   7  10  -2 5747.60 176.424  15
   7 -10  -2 5574.48 178.929  15
   7  10  -2 5520.35 176.010  18
   7  10  -1 991.123 102.017  15
   7 -10  -1 1036.43 110.234  15
   7  10  -1 1000.07 105.116  18
   7 -10   0 2547.28 139.060  15
   7 -10   0 2669.05 125.780  22
   7  10   0 2741.89 134.461  11
   7 -10   0 2824.10 136.125  11
   7  10   0 2662.19 143.320  18
   7 -10   1 6392.46 183.389  15
   7  10   1 6573.91 189.184  13
   7 -10   1 6322.77 181.220  22
   7  10   1 6570.26 189.873  11
   7 -10   1 6531.27 189.061  11
   7  10   2 3773.79 156.742  13
   7 -10   2 4051.61 152.633  22
   7  10   2 4200.43 151.982  11
   7 -10   2 3966.28 158.896  21
   7  10   2 3737.65 159.497  18
   7  10   3 5014.45 166.585  13
   7 -10   3 4755.89 158.683  22
   7  10   3 5407.54 154.825  11
   7 -10   3 5278.82 155.909  11
   7 -10   3 4743.96 163.421  21
   7  10   4 96.5375 93.7525  13
   7 -10   4 35.9525 65.4573  22
   7 -10   4 60.0129 61.4974  21
   7  10   5 1587.11 95.2029  13
   7  11  -4 100.069 61.4725  18
   7 -11  -4 15.3740 57.0096  15
   7 -11  -3 1629.33 105.613  15
   7  11  -3 1804.24 105.182  18
   7  11  -2 9234.14 210.517  15
   7 -11  -2 9240.91 218.233  15
   7  11  -2 8897.11 212.797  18
   7  11  -1 107.744 84.8760  18
   7  11  -1 86.8950 82.6968  15
   7 -11  -1 51.6976 81.1218  15
   7  11   0 407.859 91.9519  18
   7 -11   0 447.247 98.0535  15
   7 -11   0 394.182 80.3838  22
   7  11   1 79.2107 87.8018  18
   7 -11   1 78.2494 83.4313  15
   7  11   1 58.5045 98.6068  13
   7 -11   1 72.7176 78.2292  22
   7 -11   1 42.9588 74.2381  11
   7  11   2 5617.69 177.973  13
   7 -11   2 5946.92 176.087  22
   7 -11   2 5898.00 185.992  21
   7  11   3 352.553 93.4149  13
   7 -11   3 237.090 76.2811  22
   7 -11   3 287.264 73.3466  21
   7  11   4 824.477 101.580  13
   7 -11   4 826.647 80.8448  22
   7 -11   4 722.245 75.0899  21
   7  12  -4 6638.00 133.715  18
   7 -12  -3 1221.87 94.5139  15
   7  12  -3 1143.25 91.2849  18
   7 -12  -2 1937.54 118.515  15
   7  12  -2 2104.68 119.638  18
   7 -12  -1 1674.25 119.873  15
   7  12  -1 1705.08 118.513  18
   7 -12   0 3951.85 155.246  15
   7  12   0 4192.60 155.932  12
   7 -12   0 4020.49 147.807  22
   7  12   0 3656.03 156.688  18
   7 -12   1 15340.3 262.747  15
   7 -12   1 15447.3 266.409  22
   7  12   2 86.7133 83.9784  18
   7  12   2 50.9127 87.5615  13
   7 -12   2 79.1868 76.5429  22
   7 -12   2 185.986 74.9272  21
   7  12   3 456.720 97.9650  13
   7 -12   3 291.688 75.2055  22
   7 -12   3 327.946 73.9441  21
   7  12   4 1758.06 111.654  13
   7 -12   4 1910.83 97.8565  22
   7 -12   4 1803.38 94.6852  21
   7  13  -4 5860.87 122.995  18
   7 -13  -3 1280.31 90.9989  15
   7  13  -3 1331.09 91.4000  18
   7  13  -2 80.8930 74.6275  18
   7 -13  -2 61.2114 78.2832  15
   7 -13  -1 17482.3 290.391  15
   7  13  -1 17189.5 287.296  18
   7  13   0 358.858 90.7281  18
   7 -13   0 397.281 87.9667  15
   7  13   0 429.551 80.7690  12
   7 -13   0 430.335 79.2519  22
   7 -13   1 6203.34 174.575  15
   7  13   1 6389.06 173.659  12
   7 -13   1 6283.37 176.898  22
   7  13   1 5794.09 182.760  18
   7  13   2 1162.42 108.562  13
   7 -13   2 1147.31 98.8009  22
   7 -13   2 1063.06 96.2026  21
   7  13   2 1137.88 105.316  18
   7  13   3 24415.3 305.295  13
   7 -13   3 24357.8 308.894  22
   7 -13   3 24497.9 311.516  21
   7  13   4 64.6184 82.2450  13
   7 -13   4 13.9393 61.2782  22
   7 -13   4 60.1377 58.5798  21
   7 -14  -3 547.520 76.0593  15
   7  14  -3 588.419 75.7889  18
   7  14  -2 34.9694 70.2519  18
   7 -14  -2 5.37312 76.3508  15
   7  14  -1 276.364 84.0528  18
   7 -14  -1 329.836 91.0702  15
   7 -14  -1 356.133 71.7723  22
   7 -14   0 591.481 93.9927  15
   7  14   0 647.922 85.5511  12
   7 -14   0 652.002 82.1824  22
   7  14   0 647.328 94.1628  18
   7 -14   1 29700.2 346.032  15
   7 -14   1 29161.0 351.517  22
   7  14   1 28551.0 365.065  18
   7  14   2 1713.18 115.579  13
   7 -14   2 1640.72 106.352  22
   7 -14   2 1841.10 109.528  21
   7  14   2 1637.89 108.774  18
   7  14   3 10372.3 202.388  13
   7 -14   3 10249.2 201.444  22
   7 -14   3 10344.4 199.457  21
   7  14   4 315.102 81.3312  13
   7 -14   4 283.427 62.3445  22
   7  15  -3 258.812 69.7179  18
   7 -15  -3 219.708 65.8727  15
   7 -15  -2 622.577 87.7807  15
   7  15  -2 627.874 83.2408  18
   7 -15  -1 2230.85 120.446  15
   7 -15  -1 2275.03 106.159  22
   7  15  -1 2153.66 116.710  18
   7 -15   0 1066.98 102.182  15
   7  15   0 1148.38 95.0492  12
   7 -15   0 1037.89 89.3281  22
   7  15   0 1040.91 99.6627  18
   7 -15   1 11278.8 217.509  15
   7  15   1 11869.5 222.106  12
   7 -15   1 11354.2 221.807  22
   7  15   1 11317.0 229.999  18
   7  15   2 359.024 79.8309  18
   7  15   2 464.031 91.0074  13
   7 -15   2 371.325 76.5055  22
   7 -15   2 426.475 73.7121  21
   7  15   3 7532.42 170.940  13
   7 -15   3 7279.66 166.713  22
   7 -15   3 7464.07 162.488  21
   7  15   4 1344.56 91.8213  13
   7 -15   4 1418.37 76.4825  22
   7 -16  -3 4719.90 115.741  15
   7  16  -3 4808.10 123.081  18
   7  16  -2 284.071 72.6865  18
   7 -16  -2 294.543 73.6466  15
   7  16  -1 225.676 75.4196  18
   7 -16  -1 304.143 82.2485  15
   7  16  -1 270.818 71.4472  12
   7 -16  -1 226.084 62.3831  22
   7  16   0 41.8446 72.8974  18
   7 -16   0 21.6664 77.1383  15
   7  16   0-1.61479 64.5532  12
   7 -16   0 16.8098 63.4129  22
   7 -16   1 2941.46 123.557  15
   7  16   1 3101.76 121.887  12
   7 -16   1 3207.85 127.655  22
   7  16   1 3182.73 131.464  18
   7  16   2 627.662 80.3000  18
   7  16   2 615.950 88.0461  13
   7 -16   2 614.153 79.2395  22
   7 -16   2 597.485 75.7236  21
   7  16   3 2923.36 116.594  13
   7 -16   3 2954.65 110.613  22
   7 -16   3 2918.86 104.283  21
   7  16   4 886.118 78.6611  13
   7 -16   4 786.866 62.4368  22
   7  17  -3 55.5442 54.4981  18
   7  17  -3 4.36918 48.5917  12
   7  17  -2 266.326 68.3777  18
   7 -17  -2 115.425 71.4759  15
   7  17  -2 161.195 61.9446  12
   7 -17  -1 2527.96 121.363  15
   7  17  -1 2513.17 113.592  12
   7 -17  -1 2796.49 106.056  22
   7  17  -1 2711.56 117.186  18
   7 -17   0 1639.09 106.772  15
   7  17   0 1771.85 101.729  12
   7 -17   0 1787.92 98.3243  22
   7  17   0 1701.18 103.128  18
   7 -17   1 6524.49 160.642  15
   7  17   1 6978.63 165.628  12
   7 -17   1 6662.13 165.661  22
   7  17   1 6892.87 168.946  18
   7  17   2 4049.72 129.095  13
   7 -17   2 4043.29 131.285  22
   7 -17   2 3975.90 122.940  21
   7  17   2 4002.50 128.627  18
   7  17   3 1454.01 92.5690  13
   7 -17   3 1513.22 84.2568  22
   7 -17   3 1404.97 72.9815  21
   7 -18  -2 2471.59 101.792  15
   7  18  -2 2464.06 102.031  12
   7  18  -2 2630.16 103.339  18
   7 -18  -1 2716.11 114.186  15
   7  18  -1 2833.74 113.800  12
   7 -18  -1 2832.35 102.427  22
   7  18  -1 2866.66 112.730  18
   7  18   0 72.1739 68.2047  18
   7 -18   0 56.6499 70.1514  15
   7  18   0 36.9064 60.6319  12
   7 -18   0 9.93032 60.5791  22
   7 -18   1 982.295 85.2625  15
   7  18   1 949.358 78.1545  12
   7 -18   1 897.389 82.1874  22
   7 -18   1 872.663 75.6060  21
   7  18   1 916.676 84.6665  18
   7  18   2 7586.98 152.010  13
   7 -18   2 7169.28 158.600  22
   7 -18   2 7365.94 146.986  21
   7  18   3 373.331 68.7801  13
   7 -18   3 369.142 58.6901  22
   7  19  -2 155.554 55.9465  18
   7 -19  -2 176.135 60.9425  15
   7  19  -2 134.834 53.6050  12
   7 -19  -1 2579.49 109.928  15
   7  19  -1 2707.88 106.508  12
   7 -19  -1 2576.25 96.8690  22
   7  19  -1 2816.81 106.994  18
   7 -19   0 750.669 82.9072  15
   7  19   0 785.922 75.1525  12
   7 -19   0 712.106 70.7503  22
   7  19   0 720.420 77.5654  18
   7  19   1 378.018 66.7693  18
   7 -19   1 348.976 69.8002  15
   7  19   1 411.087 64.2016  12
   7 -19   1 359.605 67.1459  22
   7 -19   1 310.382 56.9618  21
   7  19   2 972.957 78.1558  13
   7 -19   2 784.031 72.1698  22
   7  19   2 33.4648 34.6878  12
   7 -19   2-8.28133 30.7096  21
   7 -19   3 3145.18 92.2751  22
   7  20  -2 1998.71 79.0068  12
   7 -20  -1 1944.47 93.7598  15
   7  20  -1 2065.25 90.7113  12
   7 -20  -1 2125.79 85.1984  22
   7  20  -1 2249.29 89.5252  18
   7 -20   0 4722.25 128.788  15
   7  20   0 4872.77 128.486  12
   7 -20   0 4672.96 123.182  22
   7  20   0 5096.03 125.137  18
   7 -20   1 819.813 73.7860  15
   7  20   1 965.082 71.7746  12
   7 -20   1 822.149 71.5980  22
   7  20   1 881.269 71.5585  18
   7 -20   2 3164.08 99.2971  22
   7 -21  -1 671.389 64.7935  15
   7  21  -1 735.385 62.0280  12
   7 -21  -1 675.051 56.0084  22
   7  21   0 5376.65 124.407  12
   7 -21   0 5266.03 120.673  22
   7  21   0 5370.02 112.467  18
   7 -21   1 34.9594 53.7929  15
   7  21   1 11.4499 45.2656  12
   7 -21   1 11.7386 49.6811  22
   7 -21   2 1111.19 64.4516  22
   7  22   0 6508.86 121.959  12
   7 -22   0 6247.23 118.270  22
   7 -22   1 6177.10 117.107  22
   8   0  -3 41.4836 65.5090  15
   8   0  -2 7448.33 172.217  15
   8   0  -1 41.7766 72.8478  15
   8   0   0 14006.3 260.360  11
   8   0   1-29.4148 76.9738  11
   8   0   2 35201.3 384.980  11
   8   0   2 38141.1 349.035  21
   8   0   3-2.09542 60.9179  11
   8   0   3 47.3875 54.9339  21
   8   1  -3 372.217 69.0517  15
   8  -1  -3 286.691 66.8154  15
   8   1  -2 5619.93 154.388  15
   8  -1  -2 5780.37 154.593  15
   8   1  -1 408.245 80.2785  15
   8  -1  -1 403.814 81.8178  15
   8   1   0 167.299 76.3994  11
   8  -1   0 181.286 79.6324  11
   8   1   1 88.3395 77.2565  11
   8  -1   1 124.828 81.0500  11
   8  -1   1 68.0802 64.5153  21
   8   1   2 3713.37 141.171  11
   8  -1   2 3664.88 141.707  11
   8  -1   2 3971.14 128.794  21
   8   1   3 854.633 82.0178  11
   8  -1   3 821.823 81.4517  11
   8  -1   3 923.999 74.7611  21
   8   2  -3 1541.78 89.4566  15
   8  -2  -3 1592.13 91.9403  15
   8   2  -2 333.556 79.4693  15
   8  -2  -2 427.690 81.5628  15
   8   2  -1 52.2049 70.7755  15
   8  -2  -1 1.58378 72.0884  15
   8   2   0 3757.01 147.191  11
   8  -2   0 3513.14 142.852  11
   8   2   1 8780.97 207.633  11
   8  -2   1 9085.20 210.835  11
   8  -2   1 8908.44 189.628  21
   8   2   1 8471.18 180.372  18
   8   2   2 19387.7 285.535  11
   8  -2   2 19133.7 283.846  11
   8  -2   2 19460.3 264.132  21
   8   2   3 77.1546 67.7511  11
   8  -2   3 52.3810 64.2999  11
   8  -2   3 70.2829 55.5264  21
   8   3  -3 1882.65 94.6939  15
   8  -3  -3 1947.63 93.5632  15
   8   3  -2 831.083 86.6575  15
   8  -3  -2 906.146 86.4065  15
   8   3  -1 2829.27 118.360  15
   8  -3  -1 2697.72 119.599  15
   8  -3   0 3892.07 132.458  15
   8   3   0 3469.96 141.668  11
   8  -3   0 3587.32 144.176  11
   8   3   0 3699.16 129.949  18
   8   3   1 547.176 80.3590  18
   8   3   1 489.895 85.3083  11
   8  -3   1 499.490 84.0059  11
   8  -3   1 568.411 77.3270  21
   8   3   2 1332.88 101.197  11
   8  -3   2 1153.32 94.5185  11
   8  -3   2 1140.64 88.8096  21
   8   3   3 149.628 65.2811  11
   8  -3   3 189.355 64.7874  11
   8  -3   3 131.339 57.0672  21
   8   4  -3 277.430 68.5144  15
   8  -4  -3 279.486 65.4325  15
   8   4  -2 955.678 85.3961  15
   8  -4  -2 911.438 88.3980  15
   8   4  -1 3044.97 120.336  15
   8  -4  -1 2813.93 124.312  15
   8   4  -1 2797.59 126.381  11
   8  -4  -1 2837.81 126.395  11
   8   4  -1 2797.77 113.349  18
   8  -4   0 1898.70 103.988  15
   8   4   0 1991.22 115.869  11
   8  -4   0 2019.29 115.861  11
   8   4   0 1856.66 104.349  18
   8   4   1 90.0642 72.0443  18
   8   4   1 28.8086 67.5070  11
   8  -4   1 60.6982 70.1024  11
   8  -4   1 293.662 69.8788  21
   8   4   2 2339.66 114.360  11
   8  -4   2 2263.86 111.321  11
   8  -4   2 2356.26 108.050  21
   8   4   3 2153.89 99.8088  11
   8  -4   3 2166.25 101.798  11
   8  -4   3 2083.76 95.1849  21
   8  -5  -3 4862.00 123.678  15
   8   5  -2 1284.75 90.3238  15
   8  -5  -2 1177.10 93.4936  15
   8   5  -1 3998.92 128.713  15
   8  -5  -1 3538.72 130.934  15
   8   5  -1 3800.22 137.045  11
   8  -5  -1 3755.44 135.939  11
   8   5  -1 4045.37 130.090  18
   8  -5   0 8421.42 177.776  15
   8   5   0 8598.53 198.714  11
   8  -5   0 8191.23 194.255  11
   8   5   0 8551.89 184.744  18
   8   5   1 46.5784 69.3227  18
   8   5   1 36.1587 69.3334  11
   8  -5   1 33.0394 68.9257  11
   8  -5   1 9.32940 61.0357  21
   8   5   2 6781.22 168.188  11
   8  -5   2 6834.85 169.096  11
   8  -5   2 6437.79 162.912  21
   8   5   3 1824.67 92.8685  11
   8  -5   3 1873.48 93.9606  11
   8  -5   3 1847.40 91.9475  21
   8  -6  -3 35475.3 290.616  15
   8   6  -2 97.2807 56.8962  18
   8   6  -2 89.1654 67.8168  15
   8  -6  -2 121.320 74.2136  15
   8   6  -1 37.6922 65.4374  18
   8   6  -1 34.7029 68.7726  15
   8  -6  -1 52.6727 69.6886  15
   8   6  -1-13.2680 66.1715  11
   8  -6  -1 28.7110 66.9781  11
   8  -6   0 5756.41 151.546  15
   8   6   0 5912.40 165.652  11
   8  -6   0 5607.72 160.420  11
   8   6   0 5440.77 153.700  18
   8   6   1 3.93855 69.4781  18
   8   6   1 8.52812 65.2820  11
   8  -6   1 34.0953 68.9292  11
   8  -6   1 19.5228 64.6196  21
   8   6   2 342.290 70.2612  11
   8  -6   2 246.165 67.8599  11
   8   6   3 6095.39 139.333  11
   8  -6   3 5885.98 137.383  11
   8  -6   3 6055.95 143.200  21
   8  -7  -3 315.961 62.2609  15
   8   7  -2 779.283 79.9624  15
   8  -7  -2 948.119 88.2272  15
   8   7  -2 855.958 75.4593  11
   8  -7  -2 788.600 72.4617  11
   8   7  -2 912.137 74.5529  18
   8   7  -1 8985.96 168.707  15
   8  -7  -1 8515.16 181.108  15
   8  -7  -1 8933.77 183.741  11
   8   7  -1 8580.94 177.689  18
   8  -7   0 959.363 87.7352  15
   8   7   0 1139.25 90.1770  11
   8  -7   0 990.656 88.1029  11
   8   7   0 973.891 88.1468  18
   8   7   1 238.908 73.7293  18
   8   7   1 179.710 68.0740  11
   8  -7   1 240.081 69.6348  11
   8  -7   1 214.943 67.6124  21
   8   7   2 1549.01 91.6891  11
   8  -7   2 1620.59 93.7893  11
   8  -7   2 1412.20 90.4287  21
   8  -7   3 273.182 61.0808  21
   8  -8  -3 7096.10 129.035  15
   8   8  -2 22028.7 241.172  11
   8  -8  -2 21661.0 238.416  11
   8  -8  -1 758.001 84.2342  15
   8   8  -1 843.149 80.0706  11
   8  -8  -1 897.209 79.0485  11
   8   8  -1 975.798 84.4496  18
   8  -8   0 1066.71 86.4963  15
   8   8   0 1222.80 87.9781  11
   8  -8   0 1127.24 88.0970  11
   8   8   0 1077.38 90.7439  18
   8   8   1 2284.25 105.536  11
   8  -8   1 2248.48 106.355  11
   8   8   1 2140.21 108.007  18
   8  -8   2 3206.81 112.633  11
   8  -8   2 2992.34 114.477  21
   8  -8   3 493.344 62.7237  21
   8  -9  -2 803.722 80.4278  15
   8   9  -2 851.212 73.7619  18
   8  -9  -1 3499.56 121.473  15
   8   9  -1 3883.10 117.230  11
   8  -9  -1 3772.79 116.843  11
   8   9  -1 3577.81 122.751  18
   8  -9   0 8465.03 170.700  15
   8   9   0 8877.13 172.857  11
   8  -9   0 8794.39 172.729  11
   8   9   1 222.062 71.4721  18
   8   9   1 188.749 62.3893  11
   8  -9   1 212.256 64.6680  11
   8  -9   1 204.893 65.3469  21
   8  -9   2 977.698 69.7070  22
   8   9   2 1066.72 73.9339  11
   8  -9   2 818.630 69.5473  11
   8  -9   2 809.709 77.6935  21
   8  -9   3 11.4706 48.3430  21
   8  10  -2 36.8556 55.2340  18
   8 -10  -2 87.6576 61.1307  15
   8 -10  -1 4820.31 136.862  15
   8  10  -1 4976.07 135.788  18
   8 -10   0 1165.27 85.3707  15
   8  10   0 1056.78 85.7986  18
   8  10   1 245.798 72.7810  18
   8 -10   1 367.069 67.4007  21
   8 -10   2 71.0046 54.8597  22
   8 -10   2 90.8790 56.6903  21
   8 -10   3 524.808 57.9872  21
   8 -11  -2 526.687 65.9583  15
   8  11  -2 556.155 63.8187  18
   8 -11  -1 2240.27 100.857  15
   8  11  -1 2419.07 103.020  18
   8 -11   0 3736.79 118.010  15
   8  11   0 3768.39 124.078  18
   8 -11   1 1700.42 91.6192  21
   8  11   1 1865.37 95.1876  18
   8 -11   2 3593.87 100.621  22
   8 -11   2 3544.97 112.444  21
   8 -11   3 249.517 49.6525  21
   8 -12  -2 3239.65 97.7176  15
   8  12  -2 3369.98 96.2065  18
   8 -12  -1 1577.40 87.3829  15
   8  12  -1 1629.80 87.1873  18
   8 -12   0 1524.67 86.7150  15
   8  12   0 1585.35 91.3388  18
   8  12   1 430.332 70.4559  18
   8 -12   1 387.712 63.4957  21
   8 -12   2 354.698 55.8269  22
   8 -12   2 318.687 57.5864  21
   8  13  -1 226.015 60.5359  18
   8 -13  -1 304.359 62.4104  15
   8 -13   0 577.035 68.3137  15
   8  13   0 666.429 72.8654  18
   8 -13   1 962.082 63.7790  22
   8 -13   1 875.247 71.4679  21
   8  13   1 932.821 76.2152  18
   8 -13   2 577.808 60.2997  21
   8  14  -1 37.7792 52.5454  18
   8 -14  -1 98.5780 53.7933  15
   8  14   0 8.20512 55.4153  18
   8 -14   0 43.0147 53.6965  15
   8 -14   1 5777.83 125.373  21
   8  14   1 6321.78 132.785  18
   8 -14   2 466.342 52.2360  21
   8  15  -1 108.009 50.2905  18
   8  15   0 48.0801 52.3116  18
   8 -15   0-5.73892 44.1118  21
   8 -15   1 33.9704 43.7357  21
;
_shelx_hkl_checksum   75692

