data_tf-13
_audit_creation_date               2019-10-30
_audit_creation_method
;
Olex2 1.3-ac4
(compiled 2018.11.30 svn.r3537 for Rigaku Oxford Diffraction, GUI svn.r5622)
;
_shelx_SHELXL_version_number       '2018/3'
_audit_contact_author_address      ?
_audit_contact_author_email        ?
_audit_contact_author_name         ''
_audit_contact_author_phone        ?
_publ_contact_author_id_orcid      ?
_publ_section_references
;
Dolomanov, O.V., Bourhis, L.J., Gildea, R.J, Howard, J.A.K. & Puschmann, H.
 (2009), J. Appl. Cryst. 42, 339-341.

Sheldrick, G.M. (2015). Acta Cryst. A71, 3-8.

Sheldrick, G.M. (2015). Acta Cryst. C71, 3-8.
;
_chemical_name_common              ?
_chemical_name_systematic          ?
_chemical_formula_moiety           '0.33(C13 H8 Br N O Se)'
_chemical_formula_sum              'C H Br N O Se'
_chemical_formula_weight           201.90
_chemical_melting_point            ?
loop_
  _atom_type_symbol
  _atom_type_description
  _atom_type_scat_dispersion_real
  _atom_type_scat_dispersion_imag
  _atom_type_scat_source
 'C' 'C' 0.0181 0.0091 'International Tables Vol C Tables 4.2.6.8 and 6.1.1.4'
 'H' 'H' 0.0000 0.0000 'International Tables Vol C Tables 4.2.6.8 and 6.1.1.4'
 'N' 'N' 0.0311 0.0180 'International Tables Vol C Tables 4.2.6.8 and 6.1.1.4'
 'O' 'O' 0.0492 0.0322 'International Tables Vol C Tables 4.2.6.8 and 6.1.1.4'
 'Se' 'Se' -0.7943 1.1372
 'International Tables Vol C Tables 4.2.6.8 and 6.1.1.4'
 'Br' 'Br' -0.6763 1.2805
 'International Tables Vol C Tables 4.2.6.8 and 6.1.1.4'

_shelx_space_group_comment
;
The symmetry employed for this shelxl refinement is uniquely defined
by the following loop, which should always be used as a source of
symmetry information in preference to the above space-group names.
They are only intended as comments.
;
_space_group_crystal_system        'monoclinic'
_space_group_IT_number             14
_space_group_name_H-M_alt          'P 1 21/c 1'
_space_group_name_Hall             '-P 2ybc'
loop_
  _space_group_symop_operation_xyz
 'x, y, z'
 '-x, y+1/2, -z+1/2'
 '-x, -y, -z'
 'x, -y-1/2, z-1/2'

_cell_length_a                     13.9453(2)
_cell_length_b                     11.7592(2)
_cell_length_c                     7.47100(10)
_cell_angle_alpha                  90
_cell_angle_beta                   102.4360(10)
_cell_angle_gamma                  90
_cell_volume                       1196.39(3)
_cell_formula_units_Z              12
_cell_measurement_reflns_used      ?
_cell_measurement_temperature      293(2)
_cell_measurement_theta_max        ?
_cell_measurement_theta_min        ?
_shelx_estimated_absorpt_T_max     ?
_shelx_estimated_absorpt_T_min     ?
_exptl_absorpt_coefficient_mu      22.937
_exptl_absorpt_correction_T_max    ?
_exptl_absorpt_correction_T_min    ?
_exptl_absorpt_correction_type     ?
_exptl_absorpt_process_details     ?
_exptl_absorpt_special_details     ?
_exptl_crystal_colour              ?
_exptl_crystal_density_diffrn      3.363
_exptl_crystal_density_meas        ?
_exptl_crystal_density_method      ?
_exptl_crystal_description         ?
_exptl_crystal_F_000               1092
_exptl_crystal_size_max            0.124
_exptl_crystal_size_mid            0.046
_exptl_crystal_size_min            0.022
_exptl_transmission_factor_max     ?
_exptl_transmission_factor_min     ?
_diffrn_reflns_av_R_equivalents    0.0227
_diffrn_reflns_av_unetI/netI       0.0211
_diffrn_reflns_Laue_measured_fraction_full  0.994
_diffrn_reflns_Laue_measured_fraction_max  0.973
_diffrn_reflns_limit_h_max         16
_diffrn_reflns_limit_h_min         -17
_diffrn_reflns_limit_k_max         12
_diffrn_reflns_limit_k_min         -14
_diffrn_reflns_limit_l_max         8
_diffrn_reflns_limit_l_min         -9
_diffrn_reflns_number              7959
_diffrn_reflns_point_group_measured_fraction_full  0.994
_diffrn_reflns_point_group_measured_fraction_max  0.973
_diffrn_reflns_theta_full          67.684
_diffrn_reflns_theta_max           76.703
_diffrn_reflns_theta_min           3.245
_diffrn_ambient_temperature        293(2)
_diffrn_detector_area_resol_mean   ?
_diffrn_measured_fraction_theta_full  0.994
_diffrn_measured_fraction_theta_max  0.973
_diffrn_measurement_device_type    ?
_diffrn_measurement_method         ?
_diffrn_radiation_type             CuK\a
_diffrn_radiation_wavelength       1.54184
_diffrn_source                     ?
_reflns_Friedel_coverage           0.000
_reflns_Friedel_fraction_full      .
_reflns_Friedel_fraction_max       .
_reflns_number_gt                  2358
_reflns_number_total               2454
_reflns_special_details
;
 Reflections were merged by SHELXL according to the crystal
 class for the calculation of statistics and refinement.
 
 _reflns_Friedel_fraction is defined as the number of unique
 Friedel pairs measured divided by the number that would be
 possible theoretically, ignoring centric projections and
 systematic absences.
;
_reflns_threshold_expression       'I > 2\s(I)'
_computing_cell_refinement         ?
_computing_data_collection         ?
_computing_data_reduction          ?
_computing_molecular_graphics      'Olex2 (Dolomanov et al., 2009)'
_computing_publication_material    'Olex2 (Dolomanov et al., 2009)'
_computing_structure_refinement    'ShelXL (Sheldrick, 2015)'
_computing_structure_solution      'ShelXT (Sheldrick, 2015)'
_refine_diff_density_max           0.540
_refine_diff_density_min           -0.443
_refine_diff_density_rms           0.097
_refine_ls_extinction_coef         0.00032(8)
_refine_ls_extinction_expression  
 'Fc^*^=kFc[1+0.001xFc^2^\l^3^/sin(2\q)]^-1/4^'
_refine_ls_extinction_method       'SHELXL-2018/3 (Sheldrick 2018)'
_refine_ls_goodness_of_fit_ref     1.097
_refine_ls_hydrogen_treatment      constr
_refine_ls_matrix_type             full
_refine_ls_number_parameters       155
_refine_ls_number_reflns           2454
_refine_ls_number_restraints       0
_refine_ls_R_factor_all            0.0247
_refine_ls_R_factor_gt             0.0239
_refine_ls_restrained_S_all        1.097
_refine_ls_shift/su_max            0.001
_refine_ls_shift/su_mean           0.000
_refine_ls_structure_factor_coef   Fsqd
_refine_ls_weighting_details      
 'w=1/[\s^2^(Fo^2^)+(0.0357P)^2^+1.3234P] where P=(Fo^2^+2Fc^2^)/3'
_refine_ls_weighting_scheme        calc
_refine_ls_wR_factor_gt            0.0651
_refine_ls_wR_factor_ref           0.0658
_refine_special_details            ?
_olex2_refinement_description
;
1. Fixed Uiso
 At 1.2 times of:
  All C(H) groups
2.a Aromatic/amide H refined with riding coordinates:
 C13(H005), C12(H008), C10(H00A), C3(H00C), C6(H00E), C5(H00F), C9(H00G),
 C4(H00H)
;
_atom_sites_solution_hydrogens     geom
_atom_sites_solution_primary       dual
_atom_sites_solution_secondary     ?
loop_
  _atom_site_label
  _atom_site_type_symbol
  _atom_site_fract_x
  _atom_site_fract_y
  _atom_site_fract_z
  _atom_site_U_iso_or_equiv
  _atom_site_adp_type
  _atom_site_occupancy
  _atom_site_site_symmetry_order
  _atom_site_calc_flag
  _atom_site_refinement_flags_posn
  _atom_site_refinement_flags_adp
  _atom_site_refinement_flags_occupancy
  _atom_site_disorder_assembly
  _atom_site_disorder_group
 Se1 Se 0.46153(2) 0.47989(2) 0.74159(3) 0.01274(10) Uani 1 1 d . . . . .
 Br1 Br -0.01302(2) 0.63437(3) 0.21151(4) 0.02998(11) Uani 1 1 d . . . . .
 O1 O 0.46593(12) 0.79864(13) 0.5682(2) 0.0187(3) Uani 1 1 d . . . . .
 N1 N 0.41535(14) 0.61691(15) 0.6183(2) 0.0139(4) Uani 1 1 d . . . . .
 C13 C 0.28285(16) 0.70621(19) 0.3920(3) 0.0164(4) Uani 1 1 d . . . . .
 H005 H 0.326895 0.759160 0.363867 0.020 Uiso 1 1 calc R . . . .
 C2 C 0.58184(16) 0.65995(19) 0.7188(3) 0.0149(4) Uani 1 1 d . . . . .
 C8 C 0.31551(16) 0.62362(18) 0.5255(3) 0.0141(4) Uani 1 1 d . . . . .
 C12 C 0.18499(17) 0.7097(2) 0.3011(3) 0.0188(4) Uani 1 1 d . . . . .
 H008 H 0.163076 0.765638 0.213955 0.023 Uiso 1 1 calc R . . . .
 C7 C 0.48402(16) 0.70133(18) 0.6274(3) 0.0146(4) Uani 1 1 d . . . . .
 C10 C 0.15091(17) 0.5453(2) 0.4706(3) 0.0206(5) Uani 1 1 d . . . . .
 H00A H 0.106949 0.491000 0.495102 0.025 Uiso 1 1 calc R . . . .
 C1 C 0.58612(15) 0.55055(19) 0.7917(3) 0.0144(4) Uani 1 1 d . . . . .
 C3 C 0.66817(16) 0.72240(19) 0.7322(3) 0.0174(4) Uani 1 1 d . . . . .
 H00C H 0.666320 0.794825 0.681549 0.021 Uiso 1 1 calc R . . . .
 C11 C 0.12023(17) 0.6293(2) 0.3412(3) 0.0191(5) Uani 1 1 d . . . . .
 C6 C 0.67422(17) 0.5031(2) 0.8849(3) 0.0163(4) Uani 1 1 d . . . . .
 H00E H 0.676144 0.430946 0.936597 0.020 Uiso 1 1 calc R . . . .
 C5 C 0.75886(17) 0.5669(2) 0.8982(3) 0.0198(5) Uani 1 1 d . . . . .
 H00F H 0.818555 0.536665 0.959524 0.024 Uiso 1 1 calc R . . . .
 C9 C 0.24857(17) 0.5435(2) 0.5630(3) 0.0182(4) Uani 1 1 d . . . . .
 H00G H 0.269781 0.488059 0.651443 0.022 Uiso 1 1 calc R . . . .
 C4 C 0.75693(17) 0.6753(2) 0.8219(3) 0.0198(5) Uani 1 1 d . . . . .
 H00H H 0.814961 0.715995 0.830965 0.024 Uiso 1 1 calc R . . . .

loop_
  _atom_site_aniso_label
  _atom_site_aniso_U_11
  _atom_site_aniso_U_22
  _atom_site_aniso_U_33
  _atom_site_aniso_U_23
  _atom_site_aniso_U_13
  _atom_site_aniso_U_12
 Se1 0.01246(14) 0.01159(14) 0.01344(14) -0.00013(7) 0.00120(9) -0.00037(7)
 Br1 0.01412(15) 0.04224(19) 0.02945(16) 0.00544(11) -0.00449(11) -0.00215(10)
 O1 0.0184(8) 0.0142(8) 0.0220(8) 0.0017(6) 0.0008(6) -0.0008(6)
 N1 0.0147(9) 0.0122(8) 0.0142(8) 0.0004(7) 0.0018(7) 0.0007(7)
 C13 0.0158(10) 0.0173(10) 0.0156(10) -0.0001(8) 0.0024(8) -0.0017(8)
 C2 0.0153(10) 0.0163(10) 0.0124(9) -0.0028(8) 0.0016(8) 0.0003(8)
 C8 0.0123(10) 0.0145(10) 0.0147(9) -0.0025(8) 0.0009(8) 0.0002(8)
 C12 0.0185(11) 0.0200(11) 0.0163(10) 0.0008(9) 0.0002(8) 0.0011(9)
 C7 0.0145(10) 0.0155(10) 0.0141(9) -0.0022(8) 0.0037(8) -0.0021(8)
 C10 0.0160(11) 0.0231(11) 0.0221(11) -0.0003(9) 0.0027(9) -0.0033(9)
 C1 0.0143(10) 0.0161(10) 0.0128(9) -0.0035(8) 0.0027(8) -0.0003(8)
 C3 0.0165(10) 0.0157(10) 0.0200(10) -0.0019(8) 0.0034(8) -0.0009(8)
 C11 0.0132(10) 0.0245(12) 0.0172(10) -0.0011(9) -0.0021(8) 0.0010(8)
 C6 0.0166(11) 0.0157(10) 0.0154(10) -0.0023(8) 0.0007(8) 0.0007(8)
 C5 0.0156(10) 0.0234(12) 0.0184(10) -0.0041(9) -0.0005(8) 0.0024(9)
 C9 0.0171(11) 0.0175(10) 0.0185(10) 0.0031(9) 0.0001(8) 0.0004(9)
 C4 0.0142(10) 0.0215(11) 0.0240(11) -0.0055(9) 0.0046(9) -0.0041(9)

_geom_special_details
;
 All esds (except the esd in the dihedral angle between two l.s. planes)
 are estimated using the full covariance matrix.  The cell esds are taken
 into account individually in the estimation of esds in distances, angles
 and torsion angles; correlations between esds in cell parameters are only
 used when they are defined by crystal symmetry.  An approximate (isotropic)
 treatment of cell esds is used for estimating esds involving l.s. planes.
;
loop_
  _geom_bond_atom_site_label_1
  _geom_bond_atom_site_label_2
  _geom_bond_distance
  _geom_bond_site_symmetry_2
  _geom_bond_publ_flag
 Se1 N1 1.8982(18) . ?
 Se1 C1 1.889(2) . ?
 Br1 C11 1.903(2) . ?
 O1 C7 1.233(3) . ?
 N1 C8 1.418(3) . ?
 N1 C7 1.371(3) . ?
 C13 C8 1.396(3) . ?
 C13 C12 1.388(3) . ?
 C2 C7 1.471(3) . ?
 C2 C1 1.393(3) . ?
 C2 C3 1.395(3) . ?
 C8 C9 1.396(3) . ?
 C12 C11 1.384(3) . ?
 C10 C11 1.384(3) . ?
 C10 C9 1.388(3) . ?
 C1 C6 1.392(3) . ?
 C3 C4 1.390(3) . ?
 C6 C5 1.384(3) . ?
 C5 C4 1.394(3) . ?

loop_
  _geom_angle_atom_site_label_1
  _geom_angle_atom_site_label_2
  _geom_angle_atom_site_label_3
  _geom_angle
  _geom_angle_site_symmetry_1
  _geom_angle_site_symmetry_3
  _geom_angle_publ_flag
 C1 Se1 N1 85.66(9) . . ?
 C8 N1 Se1 118.65(14) . . ?
 C7 N1 Se1 115.48(14) . . ?
 C7 N1 C8 125.86(18) . . ?
 C12 C13 C8 120.3(2) . . ?
 C1 C2 C7 116.38(19) . . ?
 C1 C2 C3 119.6(2) . . ?
 C3 C2 C7 124.0(2) . . ?
 C13 C8 N1 121.5(2) . . ?
 C13 C8 C9 118.9(2) . . ?
 C9 C8 N1 119.51(19) . . ?
 C11 C12 C13 119.5(2) . . ?
 O1 C7 N1 124.6(2) . . ?
 O1 C7 C2 124.8(2) . . ?
 N1 C7 C2 110.59(19) . . ?
 C11 C10 C9 118.7(2) . . ?
 C2 C1 Se1 111.62(15) . . ?
 C6 C1 Se1 126.72(18) . . ?
 C6 C1 C2 121.6(2) . . ?
 C4 C3 C2 119.3(2) . . ?
 C12 C11 Br1 118.65(17) . . ?
 C10 C11 Br1 119.96(18) . . ?
 C10 C11 C12 121.4(2) . . ?
 C5 C6 C1 117.8(2) . . ?
 C6 C5 C4 121.7(2) . . ?
 C10 C9 C8 121.1(2) . . ?
 C3 C4 C5 119.9(2) . . ?

_shelx_res_file
;
TITL tf-13_a.res in P2(1)/c
    tf-13.res
    created by SHELXL-2018/3 at 09:01:05 on 30-Oct-2019
REM Old TITL tf-13 in P2(1)/c
REM SHELXT solution in P2(1)/c: R1 0.086, Rweak 0.007, Alpha 0.019
REM <I/s> 0.759 for 133 systematic absences, Orientation as input
REM Formula found by SHELXT: C13 N O Se Br
CELL 1.54184 13.9453 11.7592 7.471 90 102.436 90
ZERR 12 0.0002 0.0002 0.0001 0 0.001 0
LATT 1
SYMM -X,0.5+Y,0.5-Z
SFAC C H N O Se Br
UNIT 12 12 12 12 12 12

L.S. 4
PLAN  20
BOND
list 4
fmap 2
ACTA
REM <olex2.extras>
REM <HklSrc "%.\\tf-13.hkl">
REM </olex2.extras>

WGHT    0.035700    1.323400
EXTI    0.000315
FVAR       0.35495
SE1   5    0.461533    0.479894    0.741589    11.00000    0.01246    0.01159 =
         0.01344   -0.00013    0.00120   -0.00037
BR1   6   -0.013018    0.634370    0.211510    11.00000    0.01412    0.04224 =
         0.02945    0.00544   -0.00449   -0.00215
O1    4    0.465927    0.798638    0.568181    11.00000    0.01836    0.01417 =
         0.02200    0.00172    0.00077   -0.00077
N1    3    0.415349    0.616906    0.618346    11.00000    0.01471    0.01222 =
         0.01419    0.00041    0.00179    0.00074
C13   1    0.282848    0.706205    0.392011    11.00000    0.01585    0.01728 =
         0.01564   -0.00009    0.00244   -0.00171
AFIX  43
H005  2    0.326895    0.759160    0.363867    11.00000   -1.20000
AFIX   0
C2    1    0.581840    0.659946    0.718826    11.00000    0.01530    0.01627 =
         0.01241   -0.00277    0.00163    0.00028
C8    1    0.315505    0.623618    0.525463    11.00000    0.01229    0.01447 =
         0.01467   -0.00250    0.00092    0.00020
C12   1    0.184987    0.709679    0.301138    11.00000    0.01847    0.01996 =
         0.01633    0.00082    0.00021    0.00108
AFIX  43
H008  2    0.163076    0.765638    0.213955    11.00000   -1.20000
AFIX   0
C7    1    0.484021    0.701326    0.627437    11.00000    0.01446    0.01546 =
         0.01414   -0.00219    0.00367   -0.00213
C10   1    0.150913    0.545253    0.470564    11.00000    0.01597    0.02314 =
         0.02210   -0.00029    0.00269   -0.00328
AFIX  43
H00A  2    0.106949    0.491000    0.495102    11.00000   -1.20000
AFIX   0
C1    1    0.586121    0.550550    0.791720    11.00000    0.01428    0.01608 =
         0.01285   -0.00355    0.00274   -0.00031
C3    1    0.668169    0.722396    0.732171    11.00000    0.01646    0.01565 =
         0.01997   -0.00194    0.00343   -0.00090
AFIX  43
H00C  2    0.666320    0.794825    0.681549    11.00000   -1.20000
AFIX   0
C11   1    0.120228    0.629256    0.341199    11.00000    0.01316    0.02448 =
         0.01716   -0.00105   -0.00215    0.00105
C6    1    0.674222    0.503090    0.884941    11.00000    0.01659    0.01568 =
         0.01543   -0.00232    0.00073    0.00073
AFIX  43
H00E  2    0.676144    0.430946    0.936597    11.00000   -1.20000
AFIX   0
C5    1    0.758865    0.566878    0.898169    11.00000    0.01559    0.02343 =
         0.01838   -0.00413   -0.00050    0.00241
AFIX  43
H00F  2    0.818555    0.536665    0.959524    11.00000   -1.20000
AFIX   0
C9    1    0.248574    0.543508    0.563016    11.00000    0.01707    0.01749 =
         0.01850    0.00307    0.00013    0.00041
AFIX  43
H00G  2    0.269781    0.488059    0.651443    11.00000   -1.20000
AFIX   0
C4    1    0.756934    0.675286    0.821855    11.00000    0.01421    0.02153 =
         0.02396   -0.00548    0.00459   -0.00406
AFIX  43
H00H  2    0.814961    0.715995    0.830965    11.00000   -1.20000
AFIX   0
HKLF 4




REM  tf-13_a.res in P2(1)/c
REM wR2 = 0.0658, GooF = S = 1.097, Restrained GooF = 1.097 for all data
REM R1 = 0.0239 for 2358 Fo > 4sig(Fo) and 0.0247 for all 2454 data
REM 155 parameters refined using 0 restraints

END

WGHT      0.0357      1.3237

REM Highest difference peak  0.540,  deepest hole -0.443,  1-sigma level  0.097
Q1    1   0.0742  0.6346  0.2718  11.00000  0.05    0.54
Q2    1  -0.0100  0.5496  0.2038  11.00000  0.05    0.50
Q3    1   0.4236  0.5594  0.6478  11.00000  0.05    0.49
Q4    1  -0.0237  0.7351  0.1911  11.00000  0.05    0.45
Q5    1   0.1378  0.5723  0.3890  11.00000  0.05    0.44
Q6    1   0.5425  0.5174  0.7634  11.00000  0.05    0.44
Q7    1   0.3687  0.6178  0.5553  11.00000  0.05    0.41
Q8    1   0.5836  0.6075  0.7542  11.00000  0.05    0.39
Q9    1   0.6212  0.6841  0.7183  11.00000  0.05    0.39
Q10   1   0.4662  0.5820  0.7389  11.00000  0.05    0.38
Q11   1   0.5342  0.6923  0.6705  11.00000  0.05    0.36
Q12   1   0.1539  0.6711  0.3146  11.00000  0.05    0.36
Q13   1   0.2817  0.5817  0.5404  11.00000  0.05    0.35
Q14   1   0.2039  0.5369  0.4802  11.00000  0.05    0.35
Q15   1  -0.0995  0.6441  0.1980  11.00000  0.05    0.34
Q16   1   0.5521  0.4667  0.7837  11.00000  0.05    0.32
Q17   1   0.3964  0.4642  0.6651  11.00000  0.05    0.32
Q18   1   0.0418  0.6711  0.3301  11.00000  0.05    0.32
Q19   1   0.4655  0.3789  0.7396  11.00000  0.05    0.32
Q20   1   0.6259  0.5183  0.8093  11.00000  0.05    0.31
;
_shelx_res_checksum                10520
_shelx_hkl_file
;
  -1   0   0  878.33   19.78
  -2   0   0 3096.56   68.68
  -3   0   0    2.03    0.92
  -4   0   0 4063.45   91.08
  -5   0   0  232.53    7.77
  -6   0   0 1102.65   27.91
  -7   0   0 2000.87   48.43
  -8   0   0  121.40    6.33
  -9   0   0 1713.58   40.01
  -9   0   0 1779.00   44.63
  -9   0   0 1736.84   39.87
  -9   0   0 1764.83   40.23
  -9   0   0 1763.16   40.03
 -10   0   0   14.66    1.45
 -10   0   0   12.73    1.25
 -10   0   0   19.29    1.50
 -10   0   0   12.72    2.54
 -10   0   0   13.85    1.47
 -11   0   0  603.27   15.25
 -11   0   0  609.77   15.47
 -11   0   0  614.87   15.49
 -11   0   0  600.94   15.63
 -11   0   0  625.45   20.66
 -11   0   0  610.86   15.88
 -12   0   0   16.45    1.58
 -12   0   0   19.25    1.70
 -12   0   0   17.27    1.70
 -12   0   0   16.39    2.99
 -12   0   0   17.92    1.85
 -13   0   0  770.26   25.26
 -13   0   0  797.42   19.85
 -13   0   0  814.41   19.96
 -13   0   0  823.96   20.34
 -13   0   0  803.20   20.09
 -14   0   0  323.22    9.00
 -14   0   0  313.02    8.83
 -14   0   0  318.57    9.24
 -15   0   0  585.24   14.46
 -16   0   0   40.83    2.74
   0  -1   0    0.44    0.22
  -1  -1   0   55.26    1.74
  -1  -1   0   61.84    1.77
  -1   1   0   54.23    1.75
  -1   1   0   60.59    1.77
  -1   1   0   55.52    1.61
  -2  -1   0   23.82    1.32
  -2  -1   0   20.94    1.24
  -3  -1   0    9.38    1.19
  -4  -1   0  188.00    6.24
   5   1   0  172.47    4.38
  -5  -1   0  198.09    6.65
  -6  -1   0  687.93   18.68
  -7  -1   0   19.15    2.37
  -8  -1   0  105.52    5.85
  -9  -1   0  227.14    6.65
  -9   1   0  207.72    6.56
  -9  -1   0  237.38    6.86
  -9  -1   0  216.34    6.62
  -9  -1   0  225.03    9.76
  -9   1   0  228.14    6.67
  -9  -1   0  231.75    6.69
  -9   1   0  226.64    6.61
  -9  -1   0  234.17    6.56
 -10  -1   0  493.68   12.58
 -10   1   0  487.25   12.35
 -10  -1   0  478.96   12.29
 -10   1   0  471.58   12.45
 -10  -1   0  481.62   12.51
 -10  -1   0  473.81   12.36
 -10  -1   0  468.57   12.62
 -10   1   0  483.10   12.40
 -10  -1   0  455.11   12.45
 -10   1   0  472.44   12.14
 -10  -1   0  480.84   16.68
 -11   1   0   17.06    1.59
 -11  -1   0   16.46    1.48
 -11  -1   0   16.61    1.58
 -11  -1   0   14.92    1.62
 -11  -1   0   18.96    1.70
 -11   1   0   12.83    1.36
 -11  -1   0   15.03    2.79
 -11  -1   0   11.85    1.35
 -11   1   0   15.85    1.57
 -12  -1   0  194.63    6.37
 -12  -1   0  192.05    6.23
 -12  -1   0  189.05    6.34
 -12   1   0  191.36    6.24
 -12   1   0  185.72    6.32
 -12  -1   0  190.04    9.99
 -12  -1   0  191.24    6.53
 -12  -1   0  191.49    6.23
 -12  -1   0  184.54    6.00
 -12   1   0  189.39    6.13
 -13  -1   0  210.47    6.79
 -13   1   0  200.56   10.39
 -13  -1   0  218.82    6.78
 -13  -1   0  215.74    6.89
 -13  -1   0  209.90    6.70
 -13   1   0  209.85    6.56
 -13  -1   0  210.64    6.96
 -13  -1   0  200.10   10.40
 -13   1   0  211.16    6.72
 -13   1   0  217.59    6.94
 -14  -1   0  265.19    7.86
 -14  -1   0  252.67    7.51
 -14  -1   0  257.35    7.82
 -14   1   0  264.93    8.43
 -14   1   0  256.69    7.49
 -14  -1   0  253.83    7.57
 -15  -1   0  106.29    3.84
 -15  -1   0  114.20    3.92
 -15   1   0  104.71    4.23
 -15  -1   0  110.77    5.27
 -16  -1   0  165.97    4.99
   0  -2   0  684.38   15.84
   1  -2   0  943.82   21.27
  -1  -2   0  937.84   21.15
  -1   2   0  912.10   21.54
  -1   2   0  932.49   21.15
  -2   2   0  410.86    9.49
  -2  -2   0  421.47    9.91
  -3   2   0  614.70   15.39
  -3  -2   0  636.23   15.43
  -4  -2   0   41.67    2.53
  -4   2   0   43.85    2.53
  -5   2   0   74.03    3.73
  -5  -2   0   67.12    3.62
  -6   2   0  118.52    5.34
  -6  -2   0  123.82    5.35
   6   2   0  106.09    3.38
  -7   2   0   44.47    3.38
  -7  -2   0   39.75    3.25
  -8   2   0   63.16    2.69
  -8  -2   0   62.13    4.37
  -8  -2   0   60.93    2.65
  -8   2   0   58.72    4.34
  -9  -2   0  210.79    6.35
  -9  -2   0  201.83    6.36
  -9  -2   0  221.54    9.49
  -9   2   0  208.44    6.35
  -9   2   0  220.94    6.44
  -9  -2   0  207.47    6.17
  -9   2   0  214.49    6.45
  -9   2   0  216.36    6.26
  -9  -2   0  210.97    6.30
  -9   2   0  214.65    9.46
  -9   2   0  212.14    6.33
  -9  -2   0  211.55    6.36
 -10   2   0  555.48   14.04
 -10   2   0  574.45   18.73
 -10  -2   0  549.62   14.43
 -10   2   0  563.89   14.47
 -10  -2   0  569.91   14.14
 -10   2   0  575.24   14.30
 -10   2   0  551.39   14.26
 -10  -2   0  555.53   14.27
 -10  -2   0  539.14   18.46
 -10  -2   0  553.86   14.30
 -10   2   0  535.34   14.24
 -11   2   0  125.79    4.46
 -11  -2   0  120.11    4.66
 -11   2   0  123.46    4.69
 -11  -2   0  127.82    4.84
 -11  -2   0  129.27    4.62
 -11   2   0  118.55    7.42
 -11  -2   0  126.71    4.51
 -11  -2   0  120.26    7.49
 -11   2   0  118.53    4.73
 -11   2   0  123.29    4.64
 -11   2   0  125.84    4.63
 -11  -2   0  127.23    4.72
 -12   2   0  260.76    8.06
 -12  -2   0  250.14   11.77
 -12  -2   0  257.33    7.62
 -12   2   0  260.19    7.80
 -12  -2   0  254.90    7.73
 -12   2   0  259.63    7.59
 -12   2   0  253.13    7.88
 -12   2   0  241.95   11.55
 -12  -2   0  254.40    7.84
 -12  -2   0  263.14    8.08
 -12   2   0  260.18    7.88
 -12  -2   0  258.15    7.86
 -13   2   0  426.56   11.39
 -13   2   0  435.99   11.88
 -13  -2   0  432.92   11.85
 -13  -2   0  432.86   11.75
 -13   2   0  423.90   12.06
 -13  -2   0  436.21   11.43
 -13  -2   0  427.00   11.59
 -14   2   0  300.20    8.57
 -14  -2   0  300.48    8.50
 -14   2   0  277.44    8.23
 -14  -2   0  292.43    8.32
 -14  -2   0  295.09    8.37
 -14  -2   0  290.00    8.51
 -15  -2   0  140.36    5.41
 -15  -2   0  137.70    4.48
 -15  -2   0  135.85    4.46
 -16  -2   0   86.51    3.13
   0  -3   0    0.60    0.62
   1  -3   0    1.67    0.57
  -1  -3   0    0.67    0.63
  -1   3   0    0.41    0.25
  -1   3   0    1.24    0.68
  -1  -3   0    0.41    0.24
  -2  -3   0   11.83    0.93
  -2   3   0   12.58    0.94
  -2  -3   0   12.63    1.29
  -2   3   0   11.71    1.11
  -2   3   0   11.48    0.90
   2  -3   0   10.59    0.79
  -3   3   0  122.02    4.07
  -3  -3   0  122.76    4.08
  -4   3   0  297.20    8.73
  -4  -3   0  296.02    8.71
  -5   3   0 1177.89   29.13
  -5  -3   0 1205.07   29.15
  -6   3   0    5.06    1.35
  -6  -3   0    3.49    1.25
  -7   3   0  511.96   15.04
  -7   3   0  481.20   12.05
  -7  -3   0  477.63   12.04
  -7  -3   0  498.31   14.99
  -8  -3   0    6.72    0.93
  -8  -3   0    7.11    1.00
  -8  -3   0    6.52    1.81
  -8   3   0    5.55    0.93
  -8   3   0    6.19    1.67
  -9  -3   0  355.04   13.01
  -9  -3   0  360.54    9.48
  -9   3   0  346.23    9.10
  -9   3   0  351.59   13.02
  -9   3   0  358.18    9.57
  -9  -3   0  352.74    9.58
  -9  -3   0  350.88    9.63
  -9  -3   0  353.55    9.57
  -9  -3   0  345.13    9.54
  -9   3   0  348.80    9.55
  -9   3   0  341.55    9.29
  -9   3   0  366.68    9.80
  -9   3   0  357.34    9.62
 -10  -3   0   43.34    2.41
 -10   3   0   42.14    2.33
 -10  -3   0   39.15    2.38
 -10  -3   0   42.50    2.37
 -10   3   0   42.03    2.21
 -10   3   0   42.50    2.01
 -10  -3   0   42.07    2.40
 -10   3   0   42.22    2.39
 -10   3   0   43.50    2.40
 -10   3   0   41.77    2.45
 -10  -3   0   36.69    2.17
 -10  -3   0   36.41    3.84
 -10   3   0   39.81    4.01
 -10  -3   0   43.30    2.40
 -11   3   0  346.20    9.99
 -11  -3   0  347.98    9.92
 -11   3   0  324.39   13.60
 -11  -3   0  365.12    9.90
 -11   3   0  352.18    9.84
 -11  -3   0  344.39    9.96
 -11  -3   0  353.22    9.75
 -11  -3   0  334.86    9.75
 -11   3   0  354.91    9.94
 -11   3   0  346.42    9.51
 -11  -3   0  348.28   13.92
 -12   3   0   75.10    3.54
 -12   3   0   85.45    3.68
 -12  -3   0   82.31    3.63
 -12   3   0   71.90    5.78
 -12   3   0   85.56    4.43
 -12  -3   0   71.85    5.76
 -12  -3   0   78.10    3.44
 -12  -3   0   83.38    3.69
 -12   3   0   86.59    3.76
 -12  -3   0   80.32    3.55
 -12  -3   0   84.98    3.60
 -13  -3   0   89.90    3.57
 -13   3   0   81.29    4.12
 -13  -3   0   84.59    3.69
 -13   3   0   83.95    3.71
 -13  -3   0   85.35    3.69
 -13  -3   0   86.95    3.70
 -13  -3   0   88.30    3.64
 -14  -3   0   97.56    3.89
 -14  -3   0  102.93    3.82
 -14  -3   0   96.39    3.59
 -15  -3   0   63.33    2.63
 -15  -3   0   66.26    3.86
 -16  -3   0   53.27    2.05
   0  -4   0   25.00    1.75
  -1  -4   0 4248.86   97.41
   1  -4   0 4328.09   96.77
  -1   4   0 4490.16   97.13
  -2   4   0  206.45    5.56
  -2  -4   0  207.14    6.57
   2  -4   0  214.18    5.58
  -2   4   0  209.93    6.06
  -3  -4   0 2781.57   63.75
  -3   4   0 2841.69   62.36
   3  -4   0 2754.14   61.73
  -3  -4   0 2765.31   62.34
  -4  -4   0   28.48    2.00
  -4   4   0   27.61    1.95
  -5   4   0 1773.55   41.79
  -5  -4   0 1760.85   41.77
  -6  -4   0   53.67    3.38
  -6  -4   0   49.08    2.04
  -6   4   0   48.33    2.00
  -6   4   0   48.47    3.28
  -6   4   0   52.92    2.10
  -7   4   0  667.26   15.86
  -7  -4   0  695.61   19.00
  -7   4   0  691.85   18.96
  -7  -4   0  666.51   15.85
  -8  -4   0  874.85   21.19
  -8  -4   0  881.63   21.11
  -8  -4   0  913.05   21.35
  -8   4   0  881.99   21.12
  -8  -4   0  883.43   24.71
  -8  -4   0  907.77   21.34
  -8  -4   0  873.45   21.12
  -8   4   0  896.70   24.74
  -9  -4   0   52.22    2.58
  -9   4   0   49.52    2.49
  -9  -4   0   52.88    2.55
  -9   4   0   57.03    4.43
  -9   4   0   60.49    2.87
  -9   4   0   52.68    2.58
  -9  -4   0   52.02    4.26
  -9  -4   0   47.13    2.43
  -9  -4   0   52.94    2.67
  -9   4   0   47.63    2.33
  -9  -4   0   51.45    2.54
  -9  -4   0   52.33    2.56
 -10  -4   0 1177.02   33.48
 -10   4   0 1164.81   33.44
 -10  -4   0 1251.24   29.16
 -10   4   0 1249.55   29.16
 -10  -4   0 1247.89   29.06
 -10   4   0 1241.80   29.19
 -10  -4   0 1245.03   29.32
 -10  -4   0 1255.44   29.32
 -10  -4   0 1254.84   29.13
 -10   4   0 1231.59   29.21
 -10  -4   0 1211.65   29.16
 -10   4   0 1195.45   28.65
 -11  -4   0  103.33    4.02
 -11  -4   0  107.15    4.14
 -11  -4   0  103.62    4.15
 -11   4   0  101.21    3.69
 -11   4   0   96.12    6.51
 -11  -4   0  104.69    4.16
 -11   4   0   98.50    4.01
 -11   4   0  109.22    4.23
 -11  -4   0  110.97    4.36
 -11  -4   0   97.75    6.58
 -11  -4   0  107.94    4.14
 -12  -4   0  739.64   17.68
 -12   4   0  622.76   21.73
 -12  -4   0  730.28   17.60
 -12   4   0  684.62   17.52
 -12  -4   0  694.42   17.57
 -12  -4   0  620.32   21.82
 -13  -4   0   90.12    3.62
 -13  -4   0   90.97    3.74
 -13  -4   0   89.63    3.70
 -13  -4   0   90.71    3.68
 -14  -4   0  566.31   14.05
 -14  -4   0  562.62   14.11
 -14  -4   0  552.03   14.07
 -14  -4   0  552.20   13.86
 -15  -4   0  107.15    3.59
 -15  -4   0  103.99    3.53
 -16  -4   0  245.72    6.12
 -16  -4   0  232.20    6.19
   0  -5   0    0.17    0.71
  -1  -5   0    7.21    1.31
   1  -5   0    9.36    1.23
  -1   5   0    8.65    1.27
  -2   5   0  473.99   12.14
   2  -5   0  470.46   12.25
  -2  -5   0  478.20   13.58
  -2   5   0  492.16   12.95
  -3  -5   0  191.92    7.14
   3  -5   0  183.15    5.34
  -3   5   0  185.25    5.55
  -3   5   0  191.76    6.41
  -4  -5   0  270.71    8.17
  -4   5   0  302.92    8.33
  -5  -5   0   11.68    1.48
  -5   5   0   14.19    1.59
  -6   5   0  783.99   18.83
  -6  -5   0  776.58   20.71
  -6   5   0  794.14   20.67
  -6   5   0  756.61   18.05
  -7  -5   0   15.55    2.05
  -7  -5   0   18.87    1.57
  -7   5   0   17.70    2.19
  -7   5   0   19.04    1.31
  -7  -5   0   21.84    1.53
  -7  -5   0   20.84    1.50
  -7  -5   0   20.58    1.51
  -8  -5   0  870.23   20.93
  -8   5   0  818.52   23.83
  -8  -5   0  891.48   20.75
  -8   5   0  870.26   20.65
  -8  -5   0  864.61   21.05
  -8  -5   0  862.56   21.17
  -8  -5   0  843.14   20.62
  -8  -5   0  845.56   24.10
  -8  -5   0  877.99   20.97
  -8   5   0  874.73   20.77
  -9   5   0   49.59    2.46
  -9  -5   0   51.15    2.63
  -9   5   0   44.88    3.90
  -9   5   0   48.48    2.44
  -9  -5   0   52.11    2.65
  -9  -5   0   45.22    3.95
  -9  -5   0   52.55    2.54
  -9   5   0   51.07    2.47
  -9  -5   0   48.17    2.46
  -9  -5   0   50.18    2.54
 -10   5   0  253.47   10.83
 -10   5   0  260.20    7.59
 -10  -5   0  257.92    7.60
 -10  -5   0  259.79    7.59
 -10   5   0  262.30    7.52
 -10  -5   0  261.41    7.91
 -10  -5   0  259.66    7.77
 -10  -5   0  237.47   10.63
 -10  -5   0  269.47    7.71
 -11  -5   0   15.98    1.51
 -11   5   0   15.78    1.46
 -11   5   0   18.94    1.47
 -11  -5   0   17.03    1.59
 -11  -5   0   16.66    1.60
 -11  -5   0   16.73    1.56
 -11  -5   0   16.81    1.66
 -12  -5   0  261.66    7.65
 -12  -5   0  273.36    7.78
 -13  -5   0  140.12    4.83
 -13  -5   0  137.57    4.83
 -13  -5   0  147.59    4.83
 -13  -5   0  138.23    4.76
 -14  -5   0  169.79    5.15
 -14  -5   0  168.26    5.25
 -14  -5   0  163.08    5.42
 -14  -5   0  180.08    5.33
 -15  -5   0  309.23    7.82
 -15  -5   0  294.74    7.77
 -16  -5   0   29.22    1.20
 -16  -5   0   27.90    1.48
   0   6   0 1473.44   35.27
   0  -6   0 1446.16   35.14
  -1  -6   0  297.68    9.56
   1  -6   0  278.55    8.87
  -1   6   0  295.37    9.21
   2  -6   0  973.11   23.53
  -2   6   0  950.83   23.23
  -2   6   0  995.16   24.34
  -2  -6   0  950.06   25.04
  -3   6   0   68.80    2.95
  -3   6   0   77.88    3.86
  -6  -6   0   74.71    3.13
  -6   6   0   75.34    3.51
  -7   6   0   77.59    3.19
  -7  -6   0   75.15    3.22
   7   6   0   80.96    4.32
  -7  -6   0   77.50    3.35
  -7  -6   0   78.41    3.19
  -8   6   0    0.94    0.72
  -8  -6   0    0.44    0.75
  -8  -6   0    0.55    0.81
  -8  -6   0    0.44    0.74
  -8  -6   0    1.39    0.76
  -9   6   0  241.92    7.19
  -9  -6   0  239.67    7.33
  -9  -6   0  240.64    7.06
  -9  -6   0  236.78    7.27
  -9  -6   0  241.03    7.43
 -10   6   0   54.57    2.71
 -10  -6   0   58.06    2.94
 -10  -6   0   58.72    2.92
 -10  -6   0   58.76    2.74
 -10  -6   0   56.28    2.83
 -11   6   0  253.51    7.52
 -11  -6   0  261.04    7.56
 -11  -6   0  262.80    7.75
 -11  -6   0  267.97    7.91
 -12   6   0  102.62    3.70
 -12  -6   0  109.11    3.87
 -12  -6   0   99.82    3.97
 -13  -6   0  221.83    6.39
 -13  -6   0  210.07    6.20
 -13  -6   0  207.71    6.33
 -13  -6   0  213.17    6.33
 -14  -6   0  116.92    3.86
 -14  -6   0  117.26    3.81
 -14  -6   0  120.62    3.86
 -15  -6   0  108.71    3.31
 -15  -6   0  111.91    3.32
   0   7   0    0.55    0.93
   1   7   0   95.63    5.01
  -1   7   0   99.48    4.96
  -2   7   0  401.59   12.13
  -2   7   0  379.29   10.69
  -3   7   0  359.52   11.35
  -4  -7   0  416.52   10.52
  -4   7   0  397.72   10.62
  -5  -7   0  312.10    8.31
  -5  -7   0  293.11    8.31
  -5   7   0  298.26    8.39
  -6  -7   0  402.15   10.36
  -6   7   0  398.46   10.55
  -6  -7   0  372.12   10.53
  -7  -7   0   61.42    3.06
   7   7   0   60.08    3.97
  -7  -7   0   62.31    2.82
  -8  -7   0  256.47    7.60
  -8   7   0  265.01    7.78
  -8  -7   0  252.06    7.93
  -8  -7   0  259.82    7.85
  -9  -7   0    1.31    0.90
  -9  -7   0    1.93    0.83
  -9   7   0    1.28    0.93
  -9  -7   0    1.42    0.86
 -10  -7   0   26.15    1.93
 -10  -7   0   26.28    1.97
 -10   7   0   27.57    1.93
 -10  -7   0   27.12    1.93
 -11  -7   0    3.41    0.92
 -11   7   0    3.07    0.95
 -12  -7   0   52.88    2.51
 -13  -7   0    2.96    0.77
 -13  -7   0    2.52    0.78
 -13  -7   0    4.15    0.78
 -14  -7   0   10.25    0.92
 -14  -7   0    9.07    0.83
 -14  -7   0    9.73    0.89
 -15  -7   0   67.82    2.11
   0  -8   0  640.36   15.72
   0   8   0  665.12   18.83
  -1  -8   0   61.65    2.59
  -1   8   0   60.79    3.38
  -1   8   0   63.48    4.14
   1  -8   0   60.07    2.54
   1   8   0   64.36    4.34
  -2   8   0  930.35   22.50
   2   8   0 1020.23   26.49
  -2   8   0  984.68   25.52
  -2  -8   0  920.60   22.53
   2  -8   0  977.62   22.47
   3  -8   0  321.29    8.55
  -3  -8   0  322.71    8.66
  -3   8   0  316.43    8.73
  -3  -8   0  312.46    8.66
  -4  -8   0  122.48    4.28
  -4   8   0  118.12    4.38
  -4  -8   0  123.26    4.28
  -5   8   0   62.63    2.97
  -5  -8   0   64.84    2.92
  -5  -8   0   60.23    2.89
  -5   8   0   61.22    3.97
   6   8   0  409.73   13.93
  -6  -8   0  410.69   11.18
  -6  -8   0  416.24   11.32
  -6   8   0  418.39   11.27
  -7  -8   0  261.95    8.11
  -7  -8   0  270.67    7.70
  -7   8   0  270.32    8.04
   7   8   0  257.34   10.08
  -8  -8   0    4.16    0.89
  -9  -8   0  495.25   12.84
  -9   8   0  498.20   13.13
  -9  -8   0  489.99   13.12
 -10  -8   0   48.03    2.58
 -10   8   0   51.57    2.62
 -11  -8   0  165.54    5.06
 -11  -8   0  159.97    5.33
 -11  -8   0  152.46    5.11
 -11   8   0  158.13    5.14
 -12  -8   0   10.25    1.04
 -13  -8   0  107.63    3.29
 -13  -8   0  108.26    3.51
 -14  -8   0   11.86    0.82
 -14  -8   0   12.67    0.84
   0  -9   0    0.63    0.62
   0   9   0    1.18    1.15
  -1  -9   0   15.97    1.40
  -1   9   0   18.93    1.42
  -1   9   0   20.11    2.52
   1  -9   0   18.71    1.47
   1   9   0   14.64    2.35
   2   9   0  131.46    7.22
   2  -9   0  141.19    4.65
  -2   9   0  135.64    4.66
  -2   9   0  147.80    6.92
  -2  -9   0  134.86    4.68
   3   9   0  506.86   16.72
  -3   9   0  482.83   12.65
  -3  -9   0  466.81   12.41
  -3  -9   0  490.43   12.59
   3  -9   0  488.87   12.39
  -4  -9   0  253.92    7.47
  -4   9   0  241.36    7.54
  -4   9   0  262.07    9.96
  -4  -9   0  253.01    7.50
   5   9   0  832.43   24.38
  -5   9   0  809.55   22.98
  -5  -9   0  842.17   20.68
  -5  -9   0  844.62   20.36
  -5   9   0  816.61   20.68
  -5  -9   0  865.11   20.65
  -6   9   0  221.82    7.16
  -6  -9   0  225.29    7.11
   6   9   0  228.21    9.71
  -6  -9   0  232.75    6.94
  -6  -9   0  225.73    7.15
  -7  -9   0 1175.37   28.11
  -7  -9   0 1135.04   27.98
  -7   9   0 1188.75   28.02
  -8   9   0   83.35    3.66
  -9  -9   0  474.99   12.58
 -10  -9   0   82.71    3.44
 -10  -9   0   73.07    2.87
 -10   9   0   82.85    3.33
 -10  -9   0   77.30    3.24
 -11  -9   0  419.56   10.71
 -11  -9   0  469.31   11.41
 -12  -9   0   52.31    2.22
 -13  -9   0   71.54    2.37
   0 -10   0    8.02    1.09
   0  10   0    7.31    1.74
   1 -10   0  441.30   11.51
   1  10   0  409.83   14.85
  -1  10   0  425.05   14.60
  -1 -10   0  431.46   11.53
   2  10   0    0.71    1.11
   2 -10   0    0.67    0.67
  -2  10   0    2.03    0.86
  -2 -10   0    1.09    0.80
  -3 -10   0  162.19    5.51
  -3 -10   0  163.09    5.40
  -3  10   0  158.78    7.90
  -3  10   0  165.77    5.51
   3 -10   0  163.31    5.33
   3  10   0  164.27    8.58
   4  10   0    1.48    1.18
   4  10   0    1.06    1.38
  -4 -10   0    0.44    0.73
  -4 -10   0    1.53    0.84
  -4  10   0    0.80    0.90
  -4  10   0    0.63    0.84
  -5 -10   0  275.40    8.09
   5  10   0  264.33   11.86
  -5  10   0  254.30    7.97
  -5 -10   0  259.47    7.97
   5  10   0  258.80   11.12
  -5 -10   0  270.13    7.76
   6  10   0    4.39    1.99
  -6  10   0    7.25    1.29
  -6 -10   0    6.63    1.13
  -6 -10   0    6.57    1.19
  -6 -10   0    6.59    1.17
  -7 -10   0   77.58    3.48
  -7 -10   0   87.25    3.77
  -7  10   0   85.47    3.69
  -8  10   0  122.86    4.52
 -10 -10   0   21.22    1.55
 -11 -10   0   28.39    1.56
 -12 -10   0  117.10    3.41
   0  11   0   -0.26    1.02
   0  11   0    0.86    1.23
   0 -11   0   -0.07    0.70
   1  11   0   22.45    2.85
  -1 -11   0   19.97    1.68
   1 -11   0   23.85    1.77
  -1  11   0   20.87    2.98
  -2 -11   0   23.09    1.79
   2  11   0   18.08    2.70
   2  11   0   22.47    3.18
  -2  11   0   24.53    3.07
   2 -11   0   22.76    1.71
   3 -11   0  107.51    4.06
  -3 -11   0  123.52    4.46
   3  11   0  110.73    6.99
   3  11   0  115.62    7.02
  -4 -11   0   75.78    3.23
  -4 -11   0   76.78    3.44
  -5 -11   0  113.04    4.33
  -5 -11   0  106.96    3.98
  -6 -11   0  181.88    5.91
  -6 -11   0  196.49    6.27
  -7 -11   0  320.34    9.02
  -7 -11   0  330.51    9.20
  -8 -11   0  274.66    7.80
  -8 -11   0  284.91    7.92
  -9 -11   0  209.51    5.97
  -9 -11   0  211.85    6.04
 -10 -11   0   86.66    2.88
 -10 -11   0   89.39    2.98
 -11 -11   0   33.41    1.39
   0 -12   0  382.53   10.29
   1 -12   0   31.92    1.96
  -1 -12   0   36.02    2.12
  -2 -12   0   54.19    2.69
   2 -12   0   52.66    2.48
  -3 -12   0   13.29    1.37
  -3 -12   0   14.37    1.31
  -4 -12   0   52.34    2.65
  -4 -12   0   48.66    2.38
  -5 -12   0   19.67    1.49
  -5 -12   0   21.56    1.72
  -6 -12   0   75.82    3.07
  -6 -12   0   79.10    3.24
  -7 -12   0   80.28    3.12
  -7 -12   0   90.14    3.28
  -8 -12   0   28.72    1.57
  -8 -12   0   27.72    1.49
  -8 -12   0   29.23    1.55
  -9 -12   0    2.29    0.52
  -9 -12   0    1.98    0.46
   0 -13   0   -0.54    0.69
  -1 -13   0   76.89    3.07
   1 -13   0   71.09    2.82
  -2 -13   0   58.01    2.59
  -2 -13   0   55.06    2.34
  -3 -13   0   69.99    2.87
  -3 -13   0   64.16    2.58
  -4 -13   0  299.33    8.03
  -4 -13   0  316.27    8.34
  -5 -13   0  168.52    4.92
  -5 -13   0  166.60    5.02
  -6 -13   0  530.55   12.81
  -6 -13   0  526.47   12.71
  -7 -13   0  144.16    3.96
  -7 -13   0  144.42    3.86
  -8 -13   0  266.97    6.40
   0 -14   0   21.63    1.17
  -1 -14   0   48.08    1.79
   1 -14   0   44.88    1.72
   2 -14   0    2.22    0.46
  -2 -14   0    1.47    0.51
  -2 -14   0    1.33    0.47
  -3 -14   0   58.70    2.12
  -3 -14   0   59.06    2.09
  -4 -14   0   10.28    0.80
  -4 -14   0   11.20    0.77
 -17   0   1   -0.70    1.75
 -16   0   1    3.97    2.83
 -15   0   1    0.71    0.72
 -15   0   1   -0.90    2.34
 -14   0   1    0.20    0.73
 -14   0   1   -0.65    1.27
 -14   0   1    0.34    0.89
 -13   0   1    0.09    0.86
 -13   0   1    0.21    0.74
 -13   0   1    0.62    0.93
 -13   0   1   -0.60    1.31
 -12   0   1    0.64    0.76
 -12   0   1    0.29    1.18
 -12   0   1    0.08    0.86
 -12   0   1    0.83    1.09
 -12   0   1    0.18    0.88
 -11   0   1    0.42    0.75
 -11   0   1    0.08    0.81
 -11   0   1    0.07    0.75
 -11   0   1    0.27    1.42
 -11   0   1    0.67    0.74
 -11   0   1    0.16    0.81
 -10   0   1    1.54    0.75
 -10   0   1    0.85    0.75
 -10   0   1   -0.38    0.78
 -10   0   1    1.14    0.71
 -10   0   1   -0.49    1.27
 -10   0   1   -0.06    0.57
  -9   0   1    0.19    0.67
  -9   0   1    0.53    0.66
  -9   0   1    1.71    1.41
  -9   0   1    1.22    0.67
  -8   0   1   -0.18    1.31
  -7   0   1   -0.29    1.22
  -6   0   1    0.12    1.10
  -6   0   1   -0.24    0.58
  -5   0   1    0.95    1.03
   4   0  -1    0.22    0.50
  -4   0   1    0.23    0.87
   3   0  -1    0.25    0.56
   2   0  -1    1.24    0.62
  -1   0   1    0.26    0.36
   1   0  -1    0.55    0.55
   0   0   1    0.13    0.22
  -1   0  -1    0.59    0.57
  -2   0  -1   -0.38    0.74
  -2   0  -1    0.52    0.46
  -2   0  -1    0.11    0.44
  -3   0  -1    0.72    0.47
  -3   0  -1    1.21    0.92
  -3   0  -1    0.52    0.39
  -4   0  -1   -0.09    1.00
  -4   0  -1    0.24    0.54
  -5   0  -1   -2.25    1.26
  -6   0  -1    1.15    1.24
  -6   0  -1    0.27    0.58
  -7   0  -1    0.35    1.08
  -7   0  -1    0.37    0.64
  -8   0  -1   -0.61    1.36
  -8   0  -1   -0.19    0.70
  -9   0  -1    0.29    0.80
  -9   0  -1    2.65    0.76
  -9   0  -1    0.69    0.62
  -9   0  -1    2.77    0.84
  -9   0  -1   -0.07    0.67
  -9   0  -1    0.95    1.44
  -9   0  -1    1.11    0.55
 -10   0  -1   -0.08    0.91
 -10   0  -1    0.07    0.76
 -10   0  -1    0.22    0.79
 -10   0  -1    0.82    1.27
 -10   0  -1    1.20    0.83
 -10   0  -1    0.89    0.77
 -10   0  -1    1.33    0.65
 -11   0  -1    0.32    0.86
 -11   0  -1   -0.23    0.58
 -11   0  -1    1.69    0.90
 -11   0  -1   -0.60    1.60
 -11   0  -1    0.26    0.81
 -11   0  -1    1.44    0.89
 -12   0  -1    0.40    0.88
 -12   0  -1    0.33    0.93
 -12   0  -1    0.73    0.79
 -12   0  -1    0.08    0.92
 -12   0  -1    0.27    0.97
 -13   0  -1    0.23    0.90
 -13   0  -1    0.61    0.85
 -13   0  -1    0.89    0.76
 -13   0  -1    0.56    0.89
 -14   0  -1    1.00    0.90
 -14   0  -1    0.67    0.70
 -14   0  -1    1.62    0.92
 -14   0  -1    1.09    0.88
 -15   0  -1    0.05    2.56
 -15   0  -1    0.56    1.01
 -17  -1   1   12.97    2.24
 -16  -1   1  383.77    9.69
 -16   1   1  348.53    9.63
 -15  -1   1    3.67    0.82
 -15  -1   1    4.82    1.02
 -15  -1   1    6.19    1.67
 -15   1   1    4.49    3.01
 -14  -1   1  271.98    8.01
 -14  -1   1  279.62    9.26
 -14  -1   1  292.02    8.33
 -14   1   1  293.02    8.13
 -14  -1   1  286.82    8.54
 -14   1   1  274.84    8.37
 -13  -1   1   55.11    5.10
 -13  -1   1   53.55    2.97
 -13   1   1   52.23    2.85
 -13   1   1   50.50    4.88
 -13   1   1   47.26    4.79
 -13   1   1   52.26    2.70
 -13  -1   1   58.61    2.81
 -13  -1   1   56.82    3.24
 -12  -1   1   18.94    3.14
 -12   1   1   18.31    1.61
 -12  -1   1   21.36    1.71
 -12  -1   1   21.12    1.93
 -12  -1   1   22.82    1.81
 -12   1   1   19.57    2.39
 -12   1   1   20.87    1.78
 -12  -1   1   22.13    1.89
 -11  -1   1  438.64   12.01
 -11   1   1  450.10   11.93
 -11  -1   1  437.65   11.72
 -11  -1   1  430.29   16.27
 -11  -1   1  448.19   12.19
 -11   1   1  445.89   12.08
 -11  -1   1  457.53   11.90
 -11  -1   1  462.81   12.07
 -11   1   1  448.83   11.77
 -10  -1   1  171.41    5.74
 -10  -1   1  194.44    9.15
 -10  -1   1  175.68    5.67
 -10   1   1  178.20    5.79
 -10  -1   1  187.10    5.89
 -10   1   1  175.36    5.53
 -10   1   1  187.56    5.80
  -9   1   1  788.82   19.33
  -9   1   1  795.74   19.33
  -9  -1   1  820.34   19.30
  -9  -1   1  844.49   23.65
  -9  -1   1  812.42   19.38
  -9   1   1  776.91   19.22
  -9  -1   1  787.28   19.18
  -8  -1   1  336.79   11.82
  -7  -1   1 2335.99   55.45
  -6  -1   1  796.47   19.39
   6  -1  -1  697.31   16.43
  -5  -1   1 1314.17   30.59
   5  -1  -1 1239.32   28.56
   4   1  -1 1031.77   23.93
   4  -1  -1 1097.21   23.92
   3   1  -1  221.92    5.99
   2   1  -1  372.44    9.49
   2   1  -1  399.67    9.70
   1   1  -1  101.18    3.22
  -1   1   1  103.54    3.27
  -1   1   1  105.02    3.20
   0   1   1   78.07    2.48
  -1   1  -1    9.21    0.80
  -1   1  -1    2.83    0.62
  -2  -1  -1   29.73    1.58
  -2  -1  -1   28.83    1.75
  -2   1  -1   28.12    1.01
  -3  -1  -1 1701.49   38.79
  -3   1  -1 1684.58   37.51
  -3  -1  -1 1691.01   39.09
  -4  -1  -1   73.12    3.05
  -4  -1  -1   68.69    3.30
  -4  -1  -1   74.32    3.61
  -5  -1  -1 2506.84   40.91
  -5  -1  -1 2419.51   42.55
  -5  -1  -1 2528.10   42.15
  -6  -1  -1  173.27    5.07
  -6   1  -1  170.54    5.08
  -6  -1  -1  185.71    6.90
  -6  -1  -1  184.92    7.28
  -7  -1  -1 1351.28   34.20
  -7  -1  -1 1324.82   30.70
  -8  -1  -1  159.73    5.17
  -8  -1  -1  160.82    7.68
  -9   1  -1 1592.20   36.57
  -9  -1  -1 1623.67   36.88
  -9  -1  -1 1536.06   41.44
  -9  -1  -1 1612.00   36.27
  -9  -1  -1 1533.47   36.57
  -9   1  -1 1613.79   36.60
  -9  -1  -1 1552.43   36.55
  -9   1  -1 1570.77   36.42
 -10   1  -1   43.08    2.38
 -10  -1  -1   39.82    2.31
 -10  -1  -1   40.30    2.13
 -10  -1  -1   43.12    4.33
 -10  -1  -1   40.51    2.40
 -10  -1  -1   43.37    2.45
 -10  -1  -1   43.03    2.57
 -10   1  -1   44.86    2.44
 -11  -1  -1  705.70   17.83
 -11  -1  -1  758.60   18.42
 -11  -1  -1  702.68   23.68
 -11  -1  -1  752.42   18.69
 -11   1  -1  722.88   18.36
 -11   1  -1  755.68   18.16
 -11   1  -1  719.90   18.35
 -11  -1  -1  744.05   18.42
 -11  -1  -1  727.61   18.45
 -12  -1  -1  103.65    4.39
 -12   1  -1  100.16    3.90
 -12   1  -1  111.28    4.29
 -12   1  -1  107.79    4.27
 -12  -1  -1   96.52    3.70
 -12  -1  -1  104.35    4.23
 -12  -1  -1   99.77    4.12
 -13  -1  -1  111.28    4.20
 -13  -1  -1  113.39    4.44
 -13   1  -1  113.09    4.37
 -13   1  -1  105.44    3.96
 -13   1  -1  119.72    4.42
 -13  -1  -1  109.39    4.30
 -14   1  -1  283.03    8.02
 -14  -1  -1  281.21    7.93
 -14  -1  -1  282.59    7.93
 -14   1  -1  261.62    7.42
 -14  -1  -1  264.55    7.65
 -15  -1  -1   16.89    1.27
 -16  -1  -1  326.90    8.00
 -17  -2   1   65.68    2.90
 -16  -2   1    6.96    0.81
 -15  -2   1  184.19    5.79
 -15  -2   1  188.96    5.54
 -15   2   1  187.19    5.82
 -14  -2   1   31.18    3.99
 -14   2   1   32.15    2.17
 -14   2   1   30.22    3.64
 -14  -2   1   30.24    1.94
 -14  -2   1   31.97    2.14
 -13   2   1  454.48   17.65
 -13  -2   1  502.41   13.45
 -13   2   1  509.04   13.69
 -13   2   1  509.71   13.53
 -13  -2   1  495.27   18.09
 -13  -2   1  529.13   13.44
 -13  -2   1  507.51   13.63
 -13  -2   1  529.02   13.75
 -13  -2   1  514.84   13.30
 -12  -2   1   17.98    1.75
 -12  -2   1   17.25    1.64
 -12   2   1   18.02    3.00
 -12   2   1   14.43    4.07
 -12   2   1   19.39    1.82
 -12  -2   1   16.85    1.59
 -12  -2   1   13.64    2.72
 -12  -2   1   15.97    1.50
 -12  -2   1   18.27    1.73
 -12   2   1   20.42    1.97
 -12   2   1   17.46    1.57
 -11   2   1  809.50   19.98
 -11   2   1  822.48   20.08
 -11   2   1  799.78   20.42
 -11   2   1  818.43   20.33
 -11   2   1  800.09   25.02
 -11  -2   1  813.55   25.11
 -11  -2   1  831.80   20.19
 -11  -2   1  823.09   20.34
 -11  -2   1  845.00   20.24
 -11  -2   1  804.48   20.05
 -10  -2   1  481.73   12.19
 -10  -2   1  473.58   12.44
 -10  -2   1  482.61   12.52
 -10   2   1  486.12   16.69
 -10   2   1  463.20   12.61
 -10   2   1  471.76   12.54
 -10   2   1  478.39   12.35
 -10   2   1  489.18   12.48
 -10  -2   1  485.71   12.62
 -10  -2   1  497.96   16.73
  -9  -2   1  601.41   14.44
  -9   2   1  611.34   14.69
  -9   2   1  592.10   14.79
  -9  -2   1  638.19   18.97
  -9  -2   1  592.43   14.69
  -9   2   1  553.44   14.61
  -9  -2   1  550.34   14.65
  -9   2   1  611.68   18.78
  -8  -2   1  996.70   26.67
  -8   2   1  962.89   26.63
  -7   2   1  433.23   13.55
  -7  -2   1  447.36   13.63
  -6  -2   1 1983.81   44.64
   6  -2  -1 1808.03   42.01
  -6   2   1 1942.71   44.58
   6   2  -1 1866.06   42.42
   5   2  -1  358.94    9.34
  -5   2   1  369.71   10.58
   4   2  -1 1523.88   33.55
  -4   2   1 1541.32   34.34
  -3   2   1  376.64    9.95
  -3  -2   1  403.22   10.18
   3   2  -1  372.08    9.84
  -2   2   1 2418.24   53.48
   2   2  -1 2340.61   53.37
  -1   2   1 6208.38  136.81
  -1   2  -1  488.79   11.24
  -1   2  -1  500.77   12.03
  -2   2  -1 2002.88   44.87
  -3  -2  -1  806.37   19.10
  -3  -2  -1  772.57   19.25
  -3   2  -1  773.87   19.05
  -3   2  -1  781.39   18.17
  -3   2  -1  799.13   19.33
  -3  -2  -1  774.65   19.16
  -4   2  -1  923.68   22.31
  -4  -2  -1  886.36   22.15
  -4  -2  -1  912.70   22.29
  -4  -2  -1  886.85   22.47
  -4   2  -1  906.82   22.54
  -5   2  -1  167.45    6.15
  -5  -2  -1  159.92    6.05
  -5  -2  -1  160.49    6.35
  -5  -2  -1  166.53    5.91
  -5   2  -1  150.90    6.23
  -6  -2  -1 1542.85   35.25
  -6  -2  -1 1590.75   37.86
  -6   2  -1 1517.92   38.26
  -6  -2  -1 1569.79   38.32
  -6   2  -1 1546.72   35.25
  -6   2  -1 1564.29   37.83
  -7   2  -1  660.52   19.31
  -7   2  -1  667.80   16.13
  -7  -2  -1  677.14   19.36
  -7  -2  -1  654.87   16.10
  -8   2  -1   97.82    3.68
  -8  -2  -1  104.74    3.74
  -8  -2  -1   97.22    3.71
  -8  -2  -1  100.88    3.69
  -8  -2  -1  105.26    3.87
  -8   2  -1  104.71    6.07
  -8   2  -1  105.08    3.87
  -8  -2  -1   98.99    5.89
  -8   2  -1  100.94    3.75
  -9  -2  -1  371.74    9.83
  -9   2  -1  370.09   13.86
  -9  -2  -1  376.36   13.86
  -9  -2  -1  369.84   10.00
  -9  -2  -1  353.21   10.02
  -9   2  -1  374.18   10.06
  -9  -2  -1  369.55   10.17
  -9   2  -1  371.95    9.94
  -9   2  -1  376.42   10.20
  -9  -2  -1  367.52   10.07
  -9   2  -1  369.79   10.10
 -10   2  -1    5.90    0.95
 -10  -2  -1    4.89    1.74
 -10  -2  -1    5.94    1.10
 -10   2  -1    4.64    1.09
 -10   2  -1    5.25    1.14
 -10  -2  -1    3.59    0.92
 -10  -2  -1    4.19    0.90
 -10  -2  -1    4.43    1.08
 -10   2  -1    2.45    1.62
 -10   2  -1    5.58    1.02
 -10  -2  -1    5.98    1.05
 -10   2  -1    3.77    0.96
 -11   2  -1  610.75   15.97
 -11  -2  -1  621.78   15.59
 -11  -2  -1  619.01   21.18
 -11  -2  -1  627.15   16.07
 -11   2  -1  635.87   16.22
 -11   2  -1  614.84   21.08
 -11   2  -1  599.30   15.48
 -11   2  -1  618.02   15.92
 -11   2  -1  640.65   16.11
 -11  -2  -1  636.22   16.14
 -11  -2  -1  626.97   16.02
 -11  -2  -1  645.64   16.25
 -11  -2  -1  619.98   15.91
 -12  -2  -1   24.92    1.73
 -12   2  -1   27.57    2.03
 -12   2  -1   21.50    1.60
 -12  -2  -1   25.24    1.93
 -12  -2  -1   23.48    1.91
 -12   2  -1   26.71    1.96
 -12  -2  -1   24.71    1.94
 -13   2  -1   55.24    2.58
 -13  -2  -1   57.61    2.89
 -13  -2  -1   60.72    2.98
 -13   2  -1   62.47    2.98
 -13   2  -1   62.97    2.98
 -13  -2  -1   51.72    2.47
 -13  -2  -1   59.39    2.96
 -13  -2  -1   56.46    2.86
 -14  -2  -1    1.51    0.78
 -14  -2  -1    0.57    0.80
 -14   2  -1    0.90    3.08
 -14  -2  -1    0.78    0.85
 -15  -2  -1   67.52    2.69
 -15  -2  -1   66.24    2.58
 -15  -2  -1   67.41    2.99
 -16  -2  -1    1.59    0.99
 -16  -3   1   16.00    1.98
 -16  -3   1   15.91    1.06
 -15  -3   1  392.33   10.16
 -15  -3   1  381.21   10.32
 -15   3   1  391.20   10.37
 -14  -3   1   86.15    4.91
 -14  -3   1   83.38    3.47
 -14   3   1   73.90    4.87
 -14  -3   1   85.95    3.45
 -14  -3   1   77.29    3.45
 -14   3   1   82.56    3.52
 -14  -3   1   87.94    3.41
 -13  -3   1   36.93    2.28
 -13  -3   1   37.25    2.54
 -13  -3   1   36.55    2.21
 -13   3   1   35.57    2.35
 -13   3   1   33.90    4.19
 -13  -3   1   39.61    2.36
 -13  -3   1   38.49    2.39
 -12  -3   1  225.72    7.02
 -12  -3   1  223.24    7.04
 -12  -3   1  213.57   10.38
 -12  -3   1  230.70    6.93
 -12   3   1  201.68   10.29
 -12   3   1  219.09    7.07
 -12  -3   1  226.90    7.12
 -12   3   1  220.94    7.36
 -12  -3   1  231.89    7.10
 -11  -3   1   19.86    1.76
 -11  -3   1   20.20    3.10
 -11   3   1   20.34    1.77
 -11  -3   1   19.61    1.67
 -11   3   1   20.74    2.61
 -11   3   1   23.57    3.16
 -11  -3   1   17.44    1.63
 -10   3   1 1335.05   35.96
 -10   3   1 1278.06   30.96
 -10  -3   1 1331.04   30.84
 -10   3   1 1325.06   31.04
 -10  -3   1 1337.70   31.17
 -10  -3   1 1317.34   35.74
 -10  -3   1 1334.30   31.07
 -10   3   1 1346.75   31.42
  -9   3   1  169.56    5.35
  -9   3   1  163.52    5.28
  -9   3   1  152.64    5.55
  -9   3   1  148.40    5.14
  -9  -3   1  162.51    5.21
  -9   3   1  174.27    8.12
  -9  -3   1  164.53    5.31
  -9  -3   1  180.60    8.29
  -9  -3   1  168.79    5.19
  -9  -3   1  169.94    5.38
  -8  -3   1  790.66   22.51
  -8   3   1  798.70   22.54
  -7   3   1  193.66    7.69
  -7  -3   1  195.92    7.64
  -6  -3   1 1739.45   40.78
  -6   3   1 1731.58   40.78
   6   3  -1 1647.46   39.12
  -5   3   1 1083.41   26.80
  -5  -3   1 1078.07   26.79
   5   3  -1 1109.25   26.03
  -4  -3   1  673.41   17.42
  -4   3   1  712.74   17.56
   4   3  -1  703.76   17.31
  -3   3   1   11.15    1.16
  -3  -3   1    9.72    1.14
   3   3  -1   10.60    1.28
  -3   3   1    8.67    1.12
  -2   3   1    6.88    1.08
  -1   3   1  954.59   22.67
   0  -3  -1    1.42    0.81
  -1  -3  -1   49.28    2.47
  -1   3  -1   47.90    1.84
  -2   3  -1  696.76   17.05
  -2  -3  -1  730.92   17.10
  -3  -3  -1  240.44    7.52
  -3  -3  -1  257.19    7.44
  -3   3  -1  263.55    7.68
  -3   3  -1  257.52    7.46
  -4   3  -1 2744.04   61.08
  -4   3  -1 2703.83   59.65
  -4  -3  -1 2762.60   61.42
  -4   3  -1 2717.86   61.31
  -4  -3  -1 2599.94   61.00
  -5   3  -1  228.36    7.89
  -5  -3  -1  213.60    5.82
  -5   3  -1  217.45    7.51
  -5  -3  -1  233.00    7.90
  -5  -3  -1  227.57    7.57
  -5  -3  -1  207.82    7.57
  -5   3  -1  212.50    5.81
  -6   3  -1 1827.42   41.22
  -6  -3  -1 1797.37   41.23
  -6   3  -1 1855.31   44.35
  -6  -3  -1 1855.30   44.36
  -7   3  -1   62.34    2.67
  -7  -3  -1   64.49    4.37
  -7  -3  -1   65.36    2.71
  -7   3  -1   59.96    4.25
  -8   3  -1 2039.58   51.12
  -8   3  -1 1961.69   46.64
  -8   3  -1 2064.13   47.07
  -8   3  -1 2058.62   46.84
  -8  -3  -1 2082.59   46.96
  -8  -3  -1 2036.00   51.21
  -8  -3  -1 2082.15   46.87
  -8  -3  -1 2106.41   46.82
  -8  -3  -1 2058.51   46.58
  -8  -3  -1 2066.36   46.85
  -8  -3  -1 2038.87   46.70
  -9   3  -1   16.21    1.58
  -9   3  -1   16.88    1.46
  -9   3  -1   16.83    1.22
  -9  -3  -1   18.01    1.49
  -9  -3  -1   18.11    2.89
  -9   3  -1   17.57    1.55
  -9   3  -1   17.19    2.77
  -9  -3  -1   18.74    1.63
  -9  -3  -1   16.50    1.50
  -9   3  -1   16.58    1.45
 -10  -3  -1  528.18   13.62
 -10   3  -1  531.83   13.53
 -10  -3  -1  508.09   18.18
 -10  -3  -1  514.54   13.71
 -10   3  -1  524.85   13.66
 -10  -3  -1  523.70   13.69
 -10  -3  -1  518.71   13.50
 -10   3  -1  526.08   13.75
 -10   3  -1  514.69   18.08
 -11   3  -1  165.81    5.65
 -11  -3  -1  160.28    5.62
 -11  -3  -1  166.97    5.42
 -11   3  -1  157.28    5.42
 -11  -3  -1  163.92    5.58
 -11   3  -1  162.05    5.70
 -11  -3  -1  156.19    5.64
 -12  -3  -1  200.00    6.42
 -12  -3  -1  201.15    6.18
 -12  -3  -1  196.43    6.48
 -12   3  -1  206.83    6.52
 -12   3  -1  196.45    6.37
 -12  -3  -1  198.43    6.43
 -13  -3  -1  440.90   11.64
 -13  -3  -1  430.52   11.64
 -13  -3  -1  410.03   11.14
 -13   3  -1  452.63   11.67
 -13  -3  -1  447.97   11.61
 -13   3  -1  444.90   11.85
 -14  -3  -1   80.33    3.19
 -14  -3  -1   72.97    3.07
 -14  -3  -1   74.68    3.15
 -15  -3  -1  555.40   13.27
 -15  -3  -1  535.75   13.29
 -15  -3  -1  548.74   13.44
 -16  -3  -1    4.48    0.85
 -16  -4   1   23.44    1.19
 -16  -4   1   26.32    1.96
 -15  -4   1   15.38    1.41
 -15  -4   1   15.51    1.21
 -14  -4   1   47.41    2.38
 -14   4   1   44.88    2.35
 -14  -4   1   50.15    2.51
 -14  -4   1   48.43    2.42
 -14  -4   1   47.56    2.35
 -13  -4   1  103.98    4.33
 -13   4   1   94.21    5.24
 -13   4   1  107.55    4.13
 -13  -4   1  104.86    4.06
 -13  -4   1  105.91    4.15
 -13  -4   1  105.69    4.02
 -12  -4   1  183.04    6.05
 -12   4   1  188.75    7.05
 -12   4   1  172.76    5.49
 -12  -4   1  202.11    6.26
 -12  -4   1  193.93    6.14
 -12   4   1  157.06    8.70
 -12   4   1  192.89    6.17
 -12  -4   1  163.62    8.80
 -11  -4   1    9.68    1.19
 -11  -4   1    7.56    1.20
 -11  -4   1    7.54    1.97
 -11   4   1    9.34    3.78
 -11  -4   1    7.85    1.19
 -11   4   1    8.07    2.06
 -11   4   1    7.74    1.16
 -10   4   1  126.29    7.21
 -10   4   1  132.96    5.57
 -10  -4   1  143.64    4.82
 -10   4   1  136.53    4.77
 -10  -4   1  129.13    7.22
 -10  -4   1  136.34    4.88
 -10  -4   1  130.40    4.71
 -10  -4   1  138.62    4.75
  -9   4   1   86.20    4.36
  -9  -4   1   92.12    5.69
  -9   4   1   98.30    5.88
  -9  -4   1  100.15    3.76
  -9  -4   1   92.69    3.68
  -9  -4   1   94.51    3.59
  -9  -4   1   88.14    3.55
  -9  -4   1   93.02    3.60
  -8   4   1   63.99    4.35
  -8  -4   1   58.12    2.62
  -8  -4   1   58.31    2.62
  -8  -4   1   56.09    2.59
  -8  -4   1   63.22    4.30
   7   4  -1   72.23    3.54
  -7  -4   1   86.63    4.78
  -7   4   1   85.44    4.82
   6   4  -1    2.92    0.86
  -6   4   1    2.94    1.03
  -6  -4   1    2.69    1.08
  -5  -4   1  157.10    5.90
   5   4  -1  161.75    5.82
  -5   4   1  164.43    6.01
   4   4  -1   77.32    3.61
  -4   4   1   80.97    3.48
  -4  -4   1   73.68    3.35
  -3   4   1  190.87    5.98
  -3  -4   1  172.99    5.53
  -3   4   1  193.73    5.67
  -3   4   1  183.22    6.25
  -2   4   1  113.54    3.71
  -2  -4   1  117.71    3.64
   1  -4  -1  341.27    9.59
   0  -4  -1   24.54    1.89
  -1   4  -1 1077.81   23.93
  -1   4  -1 1072.04   23.43
  -1  -4  -1 1040.68   24.99
  -1  -4  -1 1034.20   23.40
  -2   4  -1  112.15    3.77
  -2  -4  -1  118.67    3.88
  -2   4  -1  114.77    3.83
  -2  -4  -1  120.36    4.84
  -3   4  -1  407.09   10.88
  -3   4  -1  407.54   10.88
  -3  -4  -1  402.97   10.86
  -4   4  -1  116.36    4.14
  -4  -4  -1  122.03    4.73
  -4   4  -1  117.85    4.67
  -5   4  -1  327.29    8.80
  -5  -4  -1  354.03   11.02
  -5  -4  -1  330.30    8.37
  -5  -4  -1  340.53   10.62
  -5   4  -1  324.67    8.34
  -5   4  -1  353.11   10.67
  -6  -4  -1    3.70    1.30
  -6   4  -1    6.28    1.58
  -6   4  -1    5.20    0.74
  -6  -4  -1    3.79    0.70
  -7  -4  -1   18.86    1.42
  -7  -4  -1   18.00    1.43
  -7  -4  -1   18.12    1.47
  -7  -4  -1   17.20    1.34
  -7   4  -1   20.82    2.50
  -7   4  -1   17.67    1.37
  -7  -4  -1   15.42    2.31
  -8   4  -1   24.60    1.59
  -8   4  -1   27.35    1.78
  -8  -4  -1   24.92    1.63
  -8  -4  -1   23.41    2.93
  -8   4  -1   24.81    2.96
  -8  -4  -1   26.25    1.68
  -8  -4  -1   23.33    1.68
  -8  -4  -1   24.70    1.81
  -8  -4  -1   23.82    1.79
  -8   4  -1   23.94    1.64
  -8  -4  -1   24.27    1.70
  -8  -4  -1   23.58    1.70
  -9   4  -1    0.46    0.59
  -9  -4  -1    1.28    0.75
  -9  -4  -1    1.30    0.68
  -9   4  -1    0.25    0.68
  -9  -4  -1    0.53    0.80
  -9  -4  -1    0.53    0.72
  -9   4  -1    0.86    0.73
  -9   4  -1    1.27    0.75
  -9  -4  -1    0.99    0.68
 -10  -4  -1  222.01    6.74
 -10  -4  -1  211.72    6.74
 -10  -4  -1  222.74    6.69
 -10   4  -1  215.38    6.52
 -10   4  -1  207.10    6.22
 -10  -4  -1  209.15    6.88
 -10   4  -1  211.54    6.66
 -11   4  -1   69.94    3.48
 -11  -4  -1   73.80    3.34
 -11  -4  -1   77.96    3.36
 -11  -4  -1   80.72    3.63
 -11   4  -1   75.83    3.38
 -11  -4  -1   80.80    3.51
 -12  -4  -1   22.43    1.82
 -12  -4  -1   21.33    1.83
 -12  -4  -1   23.31    1.74
 -12   4  -1   23.35    1.80
 -12  -4  -1   22.20    1.68
 -13  -4  -1   41.79    2.32
 -13  -4  -1   40.45    2.11
 -14  -4  -1   80.36    2.86
 -14  -4  -1   84.22    3.20
 -14  -4  -1   82.81    3.18
 -15  -4  -1   43.79    1.93
 -15  -4  -1   48.71    2.57
 -16  -4  -1   23.03    1.18
 -16  -5   1   -0.05    1.34
 -16  -5   1    0.10    0.32
 -15  -5   1  147.35    4.41
 -15  -5   1  153.29    4.58
 -14  -5   1   12.06    1.24
 -14  -5   1   11.39    1.17
 -13   5   1   85.57    3.13
 -13   5   1   85.28    3.39
 -13  -5   1   96.15    4.40
 -13  -5   1   91.99    3.58
 -13  -5   1   81.15    3.34
 -13  -5   1   97.03    3.72
 -12   5   1  121.26    4.13
 -12  -5   1  122.72    4.47
 -12  -5   1  119.87    4.47
 -12   5   1  114.05    4.26
 -12  -5   1  113.18    4.25
 -11   5   1   91.83    4.93
 -11  -5   1  101.86    3.93
 -11   5   1  102.94    3.93
 -11  -5   1  103.69    3.98
 -11  -5   1  102.66    4.16
 -11   5   1   99.66    3.80
 -11  -5   1  102.25    3.94
 -10   5   1  282.17   11.59
 -10  -5   1  307.58    8.61
 -10   5   1  304.77    8.56
 -10  -5   1  269.11   11.51
 -10   5   1  298.39    9.17
 -10  -5   1  304.13    8.56
 -10  -5   1  324.74    9.02
 -10  -5   1  314.05    8.79
  -9  -5   1  132.17    4.56
  -9  -5   1  125.52    4.31
  -9  -5   1  119.38    6.48
  -9  -5   1  121.85    4.49
  -9  -5   1  123.15    4.27
  -9  -5   1  126.03    4.52
  -9   5   1  113.82    6.36
  -9   5   1  117.55    4.20
  -8  -5   1  381.88   12.71
  -8   5   1  375.73    9.76
  -8  -5   1  387.28   10.06
  -8  -5   1  375.20   10.01
  -8  -5   1  361.75    9.71
  -8   5   1  362.96   12.59
  -7  -5   1  118.29    5.73
  -7   5   1  128.45    5.94
  -7  -5   1  128.74    4.13
   7   5  -1  120.86    5.20
   6   5  -1  759.55   19.96
  -6  -5   1  736.28   20.04
  -6   5   1  776.00   20.22
   5   5  -1  478.92   13.33
  -5   5   1  461.02   12.77
   4  -5  -1  167.52    5.75
  -4   5   1  168.94    5.87
  -4   5   1  164.90    5.56
  -4  -5   1  161.08    5.51
  -3   5   1  239.71    7.38
  -3   5   1  228.89    6.47
   3  -5  -1  245.26    7.46
  -3   5   1  239.91    7.87
   2  -5  -1   38.28    2.44
  -2   5   1   41.23    2.53
  -2   5   1   37.14    2.57
  -2   5   1   32.79    1.36
   1  -5  -1    7.18    1.26
   0  -5  -1    6.00    1.30
  -1  -5  -1  407.30   11.27
  -1   5  -1  383.47   10.03
  -2   5  -1   17.08    1.45
  -2  -5  -1   18.64    2.07
  -3  -5  -1  231.06    8.35
  -3   5  -1  236.19    7.55
  -4   5  -1 1002.64   24.46
  -5   5  -1  181.73    5.94
  -6  -5  -1  805.58   19.35
  -7   5  -1   71.85    2.95
  -7  -5  -1   73.33    2.96
  -7  -5  -1   73.46    2.99
  -7  -5  -1   71.62    3.12
  -7  -5  -1   69.81    3.11
  -8   5  -1 1091.77   25.58
  -8  -5  -1 1093.89   25.91
  -8  -5  -1 1073.42   25.64
  -8  -5  -1 1084.27   25.65
  -8  -5  -1 1107.95   25.79
  -8   5  -1 1051.61   25.37
  -9  -5  -1  344.29    9.30
  -9  -5  -1  329.31    9.15
  -9  -5  -1  323.11    9.02
  -9   5  -1  332.93    9.11
  -9  -5  -1  330.26    9.59
  -9  -5  -1  327.25    9.45
  -9  -5  -1  326.74    9.24
  -9   5  -1  328.44    9.07
 -10   5  -1  417.83   11.15
 -10  -5  -1  423.60   11.49
 -10  -5  -1  444.06   11.78
 -10  -5  -1  441.12   11.35
 -10   5  -1  410.67   11.26
 -11   5  -1    2.27    0.82
 -11  -5  -1    1.79    0.90
 -11  -5  -1    1.42    0.91
 -11  -5  -1    2.20    0.93
 -11  -5  -1    0.59    0.70
 -12  -5  -1  143.85    4.81
 -12  -5  -1  136.29    4.85
 -12  -5  -1  138.76    5.04
 -13  -5  -1   78.57    3.16
 -13  -5  -1   74.89    2.98
 -14  -5  -1   36.30    1.67
 -14  -5  -1   37.02    1.92
 -14  -5  -1   36.71    1.90
 -15  -5  -1   77.54    2.57
 -15  -6   1   27.83    1.64
 -15  -6   1   26.40    1.33
 -14  -6   1  259.24    6.96
 -14  -6   1  246.14    6.90
 -13  -6   1   11.65    1.25
 -13  -6   1   13.07    1.36
 -13   6   1   10.36    1.03
 -12  -6   1  679.26   16.92
 -12  -6   1  684.57   17.03
 -12  -6   1  693.95   16.84
 -12  -6   1  664.84   16.72
 -12   6   1  669.58   16.61
 -11  -6   1    0.50    0.78
 -11  -6   1    0.24    0.85
 -11  -6   1    1.86    0.98
 -11   6   1   -0.07    0.75
 -11  -6   1    0.72    0.75
 -10   6   1  769.11   18.66
 -10  -6   1  749.35   18.87
 -10  -6   1  742.94   18.76
  -9  -6   1   59.03    2.98
  -9  -6   1   62.00    2.93
  -8  -6   1  622.77   15.62
  -8  -6   1  630.72   15.73
  -7  -6   1  406.22   10.46
   7   6  -1  373.33   12.18
  -7  -6   1  399.75   10.73
  -7  -6   1  405.46   10.45
  -6  -6   1  180.75    5.54
  -6  -6   1  171.05    5.50
   6   6  -1  168.04    7.01
  -6  -6   1  180.09    5.28
   5   6  -1  638.39   17.95
   4  -6  -1  134.68    5.17
  -4   6   1  133.59    5.28
  -3   6   1 2875.55   64.13
   3  -6  -1 2714.45   64.13
  -3   6   1 2791.13   64.94
  -2   6   1   14.69    1.69
   2  -6  -1   10.11    1.49
  -2   6   1   10.12    1.65
   1  -6  -1 1657.83   39.22
  -1   6   1 1592.93   39.25
   0  -6  -1   43.70    3.03
   0   6  -1   38.32    2.53
  -1  -6  -1 2580.08   61.57
  -1   6  -1 2665.72   60.23
  -2  -6  -1  172.36    6.96
  -2   6  -1  159.06    5.67
  -3  -6  -1  703.36   19.81
  -3   6  -1  697.44   18.67
  -4  -6  -1   57.11    4.06
  -4   6  -1   54.16    3.22
  -5   6  -1  403.23   11.36
  -5  -6  -1  392.92   10.08
  -5  -6  -1  393.47   10.07
  -5  -6  -1  383.50   10.27
  -6  -6  -1  322.51    8.54
  -6   6  -1  303.16    8.63
  -6  -6  -1  320.37    8.74
  -6  -6  -1  319.08    8.59
  -6  -6  -1  301.53    8.64
  -7  -6  -1   10.70    1.29
  -7  -6  -1   10.07    1.24
  -7  -6  -1   10.88    1.16
  -7   6  -1   11.41    1.27
  -7  -6  -1    9.94    1.27
  -7  -6  -1   10.13    1.18
  -8   6  -1  918.53   22.03
  -8  -6  -1  904.36   21.89
  -8  -6  -1  900.52   22.08
  -8  -6  -1  895.18   22.38
  -8  -6  -1  918.19   22.23
  -8  -6  -1  929.49   22.22
  -9  -6  -1   97.63    3.97
  -9  -6  -1   93.50    3.75
  -9   6  -1   92.91    3.77
  -9  -6  -1   97.87    3.90
  -9  -6  -1   92.17    3.71
 -10  -6  -1  186.48    6.27
 -10  -6  -1  186.99    5.94
 -10   6  -1  195.78    6.02
 -10  -6  -1  189.03    6.05
 -10  -6  -1  189.49    6.10
 -11  -6  -1  208.33    6.65
 -11  -6  -1  214.37    6.79
 -11  -6  -1  219.28    6.58
 -12  -6  -1  431.18   11.29
 -12  -6  -1  434.68   11.22
 -13  -6  -1   65.19    2.60
 -13  -6  -1   61.82    2.57
 -13  -6  -1   68.89    2.81
 -14  -6  -1  130.13    3.79
 -14  -6  -1  125.68    4.07
 -15  -6  -1   14.30    0.87
 -15  -7   1   19.19    0.97
 -14  -7   1   70.25    2.56
 -14  -7   1   68.97    2.60
 -14  -7   1   68.12    2.46
 -13  -7   1  160.85    4.78
 -13   7   1  151.38    4.63
 -13  -7   1  156.74    4.96
 -12   7   1   41.06    2.18
 -12  -7   1   44.12    2.22
 -12  -7   1   40.40    2.19
 -12  -7   1   41.34    2.34
 -11  -7   1  157.60    5.51
 -11   7   1  164.90    5.35
 -11  -7   1  157.33    5.23
 -11  -7   1  166.69    5.43
 -10   7   1   11.84    1.36
 -10  -7   1   12.60    1.33
 -10  -7   1   12.98    1.52
 -10  -7   1   13.53    1.51
  -9   7   1  483.57   12.88
  -9  -7   1  491.65   13.04
  -8  -7   1   27.70    1.85
  -8  -7   1   34.49    2.23
  -8  -7   1   29.38    2.02
   7   7  -1  589.33   17.54
  -7  -7   1  614.27   15.14
  -7  -7   1  598.74   15.46
   6   7  -1  174.13    7.59
  -6  -7   1  180.87    5.70
  -6  -7   1  169.59    5.64
  -5  -7   1  433.08   11.74
   5   7  -1  457.17   14.53
  -5  -7   1  480.76   11.83
  -4  -7   1  194.31    5.83
   4   7  -1  216.91    8.45
   3  -7  -1   26.90    2.34
  -3   7   1   26.67    2.26
   2  -7  -1   48.45    3.39
  -2   7   1   49.32    3.24
  -2   7   1   51.58    3.60
  -1   7   1    7.55    1.59
   1  -7  -1    8.07    1.63
   0  -7  -1    1.40    1.07
   0   7  -1    1.68    0.91
   0   7   1    1.10    1.20
  -1  -7  -1  486.02   14.41
  -1   7  -1  416.11   12.62
  -2  -7  -1   57.50    4.14
  -2   7  -1   55.75    3.21
  -2   7  -1   56.54    3.78
  -3  -7  -1  418.53   13.72
  -3   7  -1  412.23   12.57
  -3   7  -1  391.63   10.29
  -3  -7  -1  383.08   10.17
  -4  -7  -1   23.79    1.63
  -4  -7  -1   28.22    3.13
  -4   7  -1   24.36    2.34
  -4   7  -1   23.29    1.67
  -5  -7  -1  755.89   17.81
  -5  -7  -1  720.93   17.98
  -5   7  -1  720.01   18.03
  -5  -7  -1  733.14   17.81
  -5   7  -1  740.73   19.57
  -5  -7  -1  728.51   17.94
  -6  -7  -1    8.18    1.05
  -6  -7  -1    8.09    1.10
  -6  -7  -1   10.98    1.21
  -6  -7  -1    7.52    1.14
  -7   7  -1  890.21   21.53
  -7  -7  -1  849.88   21.69
  -7  -7  -1  868.45   21.44
  -7  -7  -1  910.70   21.63
  -7  -7  -1  886.52   21.45
  -8  -7  -1    5.47    1.14
  -8  -7  -1    4.25    1.08
  -8  -7  -1    5.91    1.26
  -8   7  -1    5.33    1.11
  -9   7  -1  317.60    8.93
  -9  -7  -1  305.63    8.57
  -9  -7  -1  313.92    8.98
  -9  -7  -1  311.39    8.89
  -9  -7  -1  312.36    8.95
  -9  -7  -1  292.50    9.21
 -10  -7  -1   16.18    1.50
 -10  -7  -1   14.91    1.33
 -10  -7  -1   17.51    1.65
 -10  -7  -1   19.66    1.57
 -11  -7  -1  326.84    9.03
 -11  -7  -1  311.74    8.50
 -11  -7  -1  317.98    8.95
 -12  -7  -1  171.31    5.06
 -12  -7  -1  181.33    5.45
 -12  -7  -1  172.68    5.35
 -13  -7  -1  105.70    3.34
 -13  -7  -1  107.40    3.43
 -14  -7  -1  277.31    6.71
 -14  -7  -1  257.49    6.51
 -14  -8   1   54.24    1.97
 -14  -8   1   56.75    2.04
 -13  -8   1  365.93    8.93
 -13  -8   1  368.08    8.87
 -12  -8   1  155.49    4.83
 -12   8   1  156.75    4.85
 -12  -8   1  157.07    4.96
 -12  -8   1  148.15    4.55
 -11  -8   1  173.45    5.53
 -11  -8   1  171.62    5.22
 -11   8   1  176.51    5.58
 -11  -8   1  166.76    5.57
 -10  -8   1   46.39    2.32
 -10   8   1   52.16    2.65
 -10  -8   1   46.61    2.63
 -10  -8   1   54.20    2.77
  -9  -8   1  483.51   12.84
  -9  -8   1  469.92   12.78
  -8   8   1   -0.08    0.81
  -8  -8   1    1.83    0.89
  -8  -8   1    0.17    0.86
  -7  -8   1   28.11    1.95
   7   8  -1   32.12    3.14
  -7  -8   1   30.99    2.22
   6   8  -1  258.51   10.14
  -6  -8   1  260.24    7.76
  -6  -8   1  253.62    7.40
  -6  -8   1  256.61    7.66
  -5  -8   1   24.69    1.79
  -5  -8   1   22.65    1.71
   5   8  -1   26.79    2.99
   4   8  -1  303.02   11.59
  -4  -8   1  303.62    8.51
   4  -8  -1  309.91    8.55
  -3  -8   1   32.77    1.91
   3  -8  -1   33.10    1.94
  -3   8   1   29.64    2.48
  -3   8   1   38.49    3.36
   3   8  -1   38.25    3.54
   2  -8  -1 1047.64   24.71
  -2  -8   1 1059.36   24.59
  -2   8   1 1045.87   26.94
   2  -8  -1 1003.03   27.37
  -2   8   1 1073.36   28.36
   1   8  -1   84.39    4.76
   1  -8  -1   87.84    3.29
  -1   8   1   85.18    5.21
  -1   8   1   84.08    4.71
   1  -8  -1   81.81    5.00
  -1  -8   1   84.18    3.13
   1  -8  -1   78.80    3.06
   0  -8  -1  736.92   20.60
   0   8   1  766.22   20.76
   0  -8   1  691.04   16.65
   0   8  -1  653.28   18.97
   0  -8  -1  676.70   16.68
   0  -8  -1  690.43   16.82
  -1  -8  -1  163.92    5.07
  -1  -8  -1  153.61    4.93
  -1  -8  -1  161.01    7.71
  -1   8  -1  163.59    5.03
  -1   8  -1  169.82    7.65
  -1   8  -1  148.43    6.37
   1   8   1  156.42    7.67
  -2  -8  -1  730.60   21.75
  -2   8  -1  673.72   19.31
  -2  -8  -1  760.38   17.79
  -2  -8  -1  718.30   17.68
  -2   8  -1  754.67   21.12
  -2   8  -1  728.24   17.78
  -3  -8  -1   25.14    1.71
  -3   8  -1   32.31    2.98
  -3  -8  -1   29.84    1.83
  -3   8  -1   26.53    1.83
  -4   8  -1  306.62   10.73
  -4  -8  -1  301.99    8.72
  -4   8  -1  310.26    8.85
  -4  -8  -1  324.60    8.54
  -5  -8  -1   18.00    1.51
  -5  -8  -1   21.28    1.70
  -5   8  -1   22.08    1.77
  -5   8  -1   19.29    2.16
  -5  -8  -1   20.14    1.56
  -6   8  -1  195.73    6.47
  -6  -8  -1  205.37    6.55
  -6  -8  -1  198.38    6.34
  -6  -8  -1  209.61    6.39
  -6  -8  -1  196.83    6.29
  -7  -8  -1   22.13    1.73
  -7  -8  -1   20.88    1.90
  -7  -8  -1   22.72    1.83
  -7  -8  -1   24.56    1.86
  -8   8  -1    2.13    0.96
  -8  -8  -1    1.36    0.90
  -8  -8  -1    2.72    0.94
  -8  -8  -1    2.47    1.07
  -8  -8  -1    2.29    0.92
  -9  -8  -1  117.26    4.50
  -9   8  -1  129.00    4.62
  -9  -8  -1  119.44    4.49
  -9  -8  -1  129.55    4.58
 -10  -8  -1  126.27    4.45
 -10  -8  -1  121.99    4.36
 -10  -8  -1  124.61    4.35
 -11  -8  -1  271.05    7.70
 -12  -8  -1  107.37    3.54
 -12  -8  -1  102.83    3.42
 -12  -8  -1   99.26    3.46
 -13  -8  -1  180.20    4.82
 -13  -8  -1  174.39    4.85
 -13  -8  -1  186.33    4.96
 -13  -9   1    0.55    0.44
 -13  -9   1    0.60    0.49
 -12   9   1    7.99    0.93
 -12  -9   1    7.56    0.94
 -11  -9   1    0.86    0.73
 -11   9   1    0.69    0.73
 -11  -9   1    1.25    0.72
 -10  -9   1    7.77    1.17
 -10  -9   1    6.53    1.13
  -9  -9   1   34.24    2.26
  -9  -9   1   34.72    2.25
  -8   9   1    6.83    1.21
  -8  -9   1    5.77    1.21
  -8  -9   1    4.37    1.04
   7   9  -1    8.25    1.79
   7  -9  -1    8.12    1.12
  -7   9   1    7.39    1.23
  -7  -9   1    5.86    1.07
  -7  -9   1    7.04    1.27
  -6  -9   1  124.83    4.76
  -6  -9   1  123.39    4.48
  -6   9   1  125.64    4.71
   6   9  -1  127.47    6.77
   6  -9  -1  116.76    4.48
   5   9  -1  277.01   11.12
  -5   9   1  261.14    8.03
   5  -9  -1  287.37    8.11
  -5  -9   1  269.30    7.94
  -5  -9   1  267.80    8.09
  -4  -9   1  213.53    6.58
   4  -9  -1  207.05    6.54
   4   9  -1  225.66    9.83
  -4   9   1  207.36    6.58
   3   9  -1  149.48    7.56
  -3   9   1  155.59    5.17
  -3  -9   1  147.70    5.11
   3  -9  -1  166.27    5.34
   3   9  -1  163.28    8.20
   2  -9  -1  106.66    3.97
  -2   9   1  103.45    6.14
  -2  -9   1  103.28    3.83
  -2   9   1  102.63    3.77
   2   9  -1  100.83    5.84
  -1  -9   1    2.12    0.72
  -1   9   1    1.15    0.92
   1  -9  -1    2.55    0.74
  -1   9   1    1.93    1.39
   1   9  -1    0.72    0.91
   1  -9  -1    1.39    0.69
   0  -9   1    5.86    0.90
   0  -9  -1    5.08    0.96
   0   9   1    4.87    1.75
   0   9  -1    5.83    1.76
   0   9   1    5.74    1.53
   0   9  -1    4.66    1.35
   0  -9  -1    5.77    0.91
  -1   9  -1   34.71    3.54
  -1  -9  -1   31.46    2.00
  -1   9  -1   33.90    2.91
   1   9   1   37.98    3.81
  -1  -9  -1   34.22    1.97
   2   9   1   25.40    3.30
  -2   9  -1   26.09    1.88
  -2   9  -1   27.54    3.06
  -2  -9  -1   28.03    1.91
  -2  -9  -1   28.07    1.85
  -3   9  -1  133.69    4.80
  -3  -9  -1  134.84    4.76
  -3  -9  -1  133.63    4.72
  -3   9  -1  136.94    6.87
   3   9   1  130.00    7.64
  -4  -9  -1  193.16    6.24
  -4  -9  -1  194.31    6.30
  -4   9  -1  192.64    8.17
  -4   9  -1  203.89    6.43
  -4  -9  -1  196.19    6.03
  -5   9  -1  299.46    8.97
  -5  -9  -1  308.07    8.93
  -5  -9  -1  313.96    8.68
  -6  -9  -1    1.64    0.77
  -6  -9  -1    1.77    1.04
  -6  -9  -1    2.20    0.84
  -6   9  -1    1.90    1.02
  -7  -9  -1    8.66    1.13
  -7   9  -1    9.80    1.36
  -7  -9  -1    9.40    1.29
  -7  -9  -1    7.80    1.36
  -7  -9  -1    9.37    1.30
  -8  -9  -1    2.18    0.77
  -8  -9  -1    1.17    0.91
  -8  -9  -1    1.91    0.85
  -8  -9  -1    2.16    1.04
  -9  -9  -1   55.62    2.65
  -9  -9  -1   54.27    2.52
  -9  -9  -1   48.91    2.57
 -10  -9  -1    9.76    1.08
 -10  -9  -1    7.51    1.00
 -11  -9  -1   17.30    1.17
 -12  -9  -1    2.98    0.62
 -12  -9  -1    4.20    0.63
 -12  -9  -1    2.52    0.46
 -13  -9  -1   23.35    0.99
 -13  -9  -1   20.53    0.94
 -12 -10   1   76.82    2.53
 -11 -10   1  454.47   11.38
 -11 -10   1  469.44   11.40
 -10 -10   1    6.40    0.96
 -10 -10   1    5.61    0.92
  -9 -10   1  179.28    5.61
  -9 -10   1  178.20    5.66
  -9  10   1  181.19    5.71
  -9 -10   1  168.96    5.66
  -8  10   1  104.36    4.07
  -8 -10   1  102.15    4.03
  -8 -10   1   99.55    4.05
  -7  10   1  194.04    6.41
  -7 -10   1  199.31    6.50
  -7 -10   1  199.77    6.30
  -6  10   1   50.51    2.80
   6 -10  -1   50.35    2.59
  -6 -10   1   52.84    2.87
  -6 -10   1   53.76    2.68
   5 -10  -1    3.62    0.96
  -5  10   1    3.70    1.07
   5  10  -1    3.04    1.39
   5  10  -1    4.32    1.62
  -5 -10   1    3.52    1.11
   4 -10  -1  745.79   18.28
  -4 -10   1  775.97   18.52
   4  10  -1  732.92   22.49
   4  10  -1  674.12   22.18
  -4  10   1  705.13   18.25
  -3 -10   1   42.27    2.42
   3  10  -1   38.31    3.75
   3  10  -1   36.28    3.91
   3 -10  -1   43.17    2.43
  -3  10   1   38.49    2.28
   2 -10  -1  787.66   18.85
  -2  10   1  729.53   18.40
  -2 -10   1  766.67   18.70
  -2  10   1  787.96   22.91
   2  10  -1  726.92   22.02
  -1 -10   1    5.56    1.00
   1 -10  -1    4.13    0.94
   1  10  -1    4.24    1.29
  -1  10   1    6.80    1.93
   0 -10   1 1271.92   28.67
   0  10  -1 1152.02   31.52
   0  10  -1 1185.56   33.67
   0 -10  -1 1186.01   28.55
   0  10   1 1267.84   33.73
   0 -10  -1 1222.65   28.87
   1  10   1   93.41    6.27
  -1 -10  -1   89.72    3.60
  -1  10  -1   91.66    5.99
   1  10   1   92.33    5.59
  -1 -10  -1   95.58    3.85
  -2 -10  -1  835.98   20.72
   2  10   1  868.42   25.76
  -2  10  -1  853.67   24.77
  -2 -10  -1  864.21   20.96
  -3 -10  -1  129.70    4.72
  -3  10  -1  121.37    6.59
   3  10   1  127.11    7.67
  -3 -10  -1  127.09    4.65
  -4 -10  -1  497.04   12.91
   4  10   1  457.60   17.21
  -4 -10  -1  483.40   12.85
  -4 -10  -1  487.04   12.59
  -5 -10  -1   45.57    2.59
  -5 -10  -1   41.15    2.49
  -5 -10  -1   43.54    2.37
  -6 -10  -1   67.74    3.29
  -6 -10  -1   64.77    3.06
  -7 -10  -1   90.89    3.84
  -7 -10  -1   92.59    3.91
  -7 -10  -1   86.47    3.66
  -8 -10  -1    0.27    0.75
  -8 -10  -1    1.56    0.77
  -9 -10  -1  355.84    9.19
  -9 -10  -1  341.33    9.28
 -10 -10  -1   89.99    3.03
 -10 -10  -1   84.99    3.21
 -11 -10  -1  264.75    6.76
 -12 -10  -1  110.25    3.01
 -12 -10  -1  107.03    2.92
 -11 -11   1    0.76    0.38
 -10 -11   1   11.06    0.98
 -10 -11   1   10.43    0.92
  -9 -11   1   44.78    2.05
  -9  11   1   42.12    2.12
  -9 -11   1   41.67    2.09
  -8 -11   1   40.79    2.09
  -8  11   1   38.00    2.16
  -8 -11   1   42.87    2.27
  -8 -11   1   39.50    2.18
  -7 -11   1    1.79    0.86
  -7  11   1    1.10    0.84
  -7 -11   1    2.28    0.85
  -6 -11   1   69.86    3.27
  -6  11   1   68.63    3.22
  -6 -11   1   74.19    3.16
   5 -11  -1    0.89    0.71
  -5  11   1    0.53    0.82
  -5 -11   1   -0.08    0.88
  -4 -11   1   21.80    1.81
  -4  11   1   21.73    1.73
   4 -11  -1   21.33    1.69
  -3  11   1   32.96    1.99
  -3 -11   1   33.35    2.19
   3 -11  -1   35.26    2.19
  -2 -11   1   19.20    1.62
   2 -11  -1   17.74    1.59
   1 -11  -1    8.81    1.24
   1  11  -1    8.32    2.19
  -1  11   1   11.03    2.21
  -1 -11   1    9.09    1.18
   0 -11  -1   21.34    1.77
   0 -11   1   20.95    1.59
   0  11  -1   19.97    2.95
   0  11   1   15.89    2.71
  -1 -11  -1    4.41    0.92
  -1 -11  -1    4.69    1.01
   1  11   1    3.78    1.61
  -1  11  -1    5.17    1.73
  -2 -11  -1  115.99    4.37
  -2 -11  -1  112.10    4.18
   2  11   1  106.91    6.87
  -3 -11  -1    0.37    0.81
  -3 -11  -1    1.06    0.75
  -3 -11  -1    1.16    0.70
  -4 -11  -1  113.42    4.31
  -4 -11  -1  114.34    4.32
  -4 -11  -1  108.50    4.00
  -5 -11  -1   76.46    3.47
  -5 -11  -1   81.30    3.46
  -5 -11  -1   73.70    3.17
  -6 -11  -1  102.92    3.98
  -6 -11  -1   98.18    3.79
  -7 -11  -1    6.50    1.00
  -8 -11  -1   84.22    3.08
  -8 -11  -1   88.82    3.32
  -9 -11  -1   36.09    1.65
  -9 -11  -1   36.28    1.74
 -10 -11  -1  128.48    3.77
 -10 -12   1  177.50    4.56
  -9 -12   1    5.24    0.58
  -9 -12   1    5.98    0.69
  -8 -12   1   97.73    3.13
  -8 -12   1  103.30    3.44
  -7 -12   1   11.86    1.14
  -7 -12   1    8.76    0.91
  -6 -12   1    7.66    1.08
  -5 -12   1  187.64    5.71
   5 -12  -1  169.87    5.20
   4 -12  -1   22.83    1.63
  -4 -12   1   24.99    1.81
   3 -12  -1  336.95    9.30
  -3 -12   1  341.52    9.41
   2 -12  -1   66.48    2.96
  -2 -12   1   59.25    2.82
   1 -12  -1  731.72   18.32
  -1 -12   1  757.27   18.26
   0 -12  -1  186.08    5.95
  -1 -12  -1  650.87   16.30
  -2 -12  -1  121.22    4.36
  -2 -12  -1  113.18    3.93
  -3 -12  -1  290.46    8.19
  -3 -12  -1  308.09    8.52
  -3 -12  -1  298.93    8.10
  -4 -12  -1    3.71    0.79
  -4 -12  -1    3.18    0.91
  -4 -12  -1    4.66    0.85
  -5 -12  -1   66.59    2.97
  -5 -12  -1   65.88    2.73
  -6 -12  -1   18.51    1.49
  -6 -12  -1   17.53    1.27
  -7 -12  -1    1.21    0.51
  -8 -12  -1  140.95    3.90
  -9 -12  -1   82.62    2.57
  -6 -13   1    0.85    0.52
  -5 -13   1    0.81    0.58
  -4 -13   1    1.07    0.60
  -3 -13   1    5.38    0.84
   3 -13  -1    3.72    0.76
  -3 -13   1    5.66    0.85
   2 -13  -1   72.12    2.89
  -2 -13   1   74.87    2.84
   1 -13  -1    3.86    0.83
   0 -13  -1   38.48    2.02
   0 -13  -1   33.47    1.64
  -1 -13  -1   10.40    1.15
  -1 -13  -1   10.35    0.93
  -2 -13  -1    0.34    0.67
  -2 -13  -1   -0.04    0.52
  -3 -13  -1   -0.22    0.67
  -3 -13  -1    0.08    0.53
  -4 -13  -1    0.05    0.60
  -4 -13  -1   -0.39    0.52
  -5 -13  -1    5.43    0.85
  -5 -13  -1    4.71    0.63
  -6 -13  -1    1.16    0.54
  -6 -13  -1    0.38    0.31
  -7 -13  -1   -0.08    0.35
  -7 -13  -1    0.66    0.40
  -5 -14   1   51.39    1.84
  -4 -14   1   24.58    1.24
  -3 -14   1  249.07    6.42
  -2 -14   1  122.45    3.63
   1 -14  -1  491.95   12.92
  -1 -14   1  609.88   13.10
   0 -14  -1   74.87    2.64
   0 -14   1   74.85    2.57
  -1 -14  -1  219.52    5.93
  -2 -14  -1   82.45    2.81
  -3 -14  -1  205.11    5.48
  -4 -14  -1   30.19    1.34
  -5 -14  -1   34.74    1.31
 -17   0   2  244.95    6.49
 -16   0   2    3.20    3.48
 -16   0   2    0.22    0.57
 -15   0   2  874.78   21.14
 -15   0   2  853.83   21.08
 -14   0   2   11.70    1.16
 -14   0   2    8.64    2.95
 -14   0   2   10.01    1.38
 -13   0   2  177.31    9.71
 -13   0   2  188.16    5.78
 -13   0   2  185.52    6.44
 -12   0   2  152.60    5.00
 -12   0   2  148.80    8.66
 -11   0   2 1970.69   44.13
 -11   0   2 1830.62   43.14
 -11   0   2 1984.71   50.05
 -10   0   2   50.93    3.19
 -10   0   2   52.38    2.34
 -10   0   2   59.80    4.92
  -9   0   2 1134.92   26.39
  -9   0   2 1119.32   30.66
  -9   0   2 1110.54   26.63
  -8   0   2  611.99   15.35
  -8   0   2  637.94   18.62
  -7   0   2  903.48   24.18
  -7   0   2  901.44   21.28
  -6   0   2 1048.40   24.50
  -6   0   2 1096.45   27.13
   6   0  -2 1067.42   25.36
   5   0  -2  130.96    4.69
   4   0  -2 3812.40   85.41
   3   0  -2  122.20    4.46
  -2   0   2 9924.26  218.92
   2   0  -2 9999.00  219.40
  -1   0   2  468.36   11.41
   1   0  -2  440.01   12.07
   0   0   2 6259.73  137.98
   1   0   2   56.41    1.88
  -1   0  -2   62.86    2.80
  -2   0  -2 2135.15   48.44
  -3   0  -2   17.58    1.35
  -4   0  -2  448.12   11.24
  -4   0  -2  449.91   11.61
  -5   0  -2 1851.14   43.43
  -5   0  -2 1920.25   42.71
  -6   0  -2  168.95    5.19
  -7   0  -2  389.96   10.38
  -8   0  -2  107.21    3.98
  -8   0  -2  111.57    3.94
  -8   0  -2  111.38    3.96
  -8   0  -2  106.74    4.03
  -9   0  -2  983.17   23.42
  -9   0  -2  993.93   23.59
  -9   0  -2  955.34   23.57
  -9   0  -2  975.53   23.45
 -10   0  -2   26.38    1.88
 -10   0  -2   25.46    1.94
 -10   0  -2   25.51    1.92
 -10   0  -2   24.00    1.92
 -11   0  -2  297.79    8.92
 -11   0  -2  310.01    8.94
 -12   0  -2  454.98   11.98
 -12   0  -2  467.73   12.40
 -12   0  -2  458.74   12.40
 -13   0  -2  429.54   11.19
 -13   0  -2  438.94   11.59
 -13   0  -2  447.56   11.76
 -14   0  -2  249.90    7.09
 -14   0  -2  252.44    7.16
 -15   0  -2  104.97    3.86
 -17  -1   2   38.83    2.58
 -17   1   2   33.69    1.67
 -16  -1   2  150.58    4.79
 -16   1   2  157.82    5.64
 -15   1   2   47.51    4.59
 -15  -1   2   40.42    1.95
 -15  -1   2   44.33    2.44
 -14  -1   2   58.97    2.58
 -14   1   2   53.54    4.59
 -14  -1   2   54.71    2.91
 -13  -1   2  117.43    4.61
 -13  -1   2  114.63    7.52
 -13  -1   2  113.85    4.65
 -13  -1   2  119.31    4.17
 -13   1   2  116.01    4.11
 -13   1   2  117.55    5.22
 -13   1   2  103.85    7.18
 -12   1   2    4.12    1.87
 -12   1   2    1.75    0.75
 -12  -1   2    1.72    0.74
 -12  -1   2   -1.60    3.94
 -12  -1   2    2.35    1.53
 -12  -1   2    2.23    1.00
 -11   1   2   52.67    2.50
 -11  -1   2   58.40    3.75
 -11  -1   2   54.19    2.55
 -11  -1   2   58.29    2.91
 -11  -1   2   63.93    5.41
 -11   1   2   62.25    3.08
 -10  -1   2   60.01    2.57
 -10   1   2   64.75    3.01
 -10  -1   2   61.30    2.93
 -10  -1   2   62.14    2.89
 -10  -1   2   63.25    3.20
 -10  -1   2   64.26    5.08
  -9   1   2   51.23    2.59
  -9  -1   2   53.99    2.60
  -9  -1   2   53.64    2.66
  -9  -1   2   53.85    4.37
  -9  -1   2   59.90    2.61
  -8  -1   2    1.28    0.73
  -8  -1   2    2.92    1.41
  -7  -1   2  159.36    4.85
   7  -1  -2  148.76    5.08
  -7  -1   2  165.48    6.95
  -6   1   2  276.85    7.47
  -6  -1   2  291.06    9.60
   6  -1  -2  290.89    8.23
  -6  -1   2  286.48    7.49
   5  -1  -2   90.73    3.68
   4  -1  -2   30.12    2.02
   4   1  -2   27.11    1.97
   3  -1  -2   14.77    1.50
  -3   1   2   18.70    1.61
   3   1  -2   17.53    1.67
   2   1  -2 3469.57   81.66
  -2   1   2 3756.12   81.12
  -1   1   2  832.77   18.55
   1   1  -2  809.45   19.27
   0  -1   2  212.38    5.57
   0   1   2  207.14    5.80
   1  -1   2   84.92    2.67
  -1   1  -2   90.82    3.56
  -2   1  -2  398.14   10.52
  -3   1  -2  443.51   11.08
  -3  -1  -2  465.24   12.03
  -3  -1  -2  466.50   11.73
  -4  -1  -2  332.41    9.45
  -4   1  -2  321.35    8.37
  -4  -1  -2  335.94    8.79
  -5  -1  -2  693.01   17.00
  -5  -1  -2  731.16   19.41
  -6  -1  -2  166.44    5.94
  -6  -1  -2  154.53    6.73
  -6  -1  -2  147.95    4.81
  -7  -1  -2  505.29   15.69
  -7  -1  -2  489.66   12.64
  -8  -1  -2  108.03    3.97
  -8   1  -2  102.89    3.90
  -8  -1  -2  107.26    3.88
  -8   1  -2  106.46    4.02
  -8   1  -2  107.96    3.97
  -8   1  -2  109.40    3.80
  -8  -1  -2  106.66    4.01
  -9   1  -2  483.48   12.12
  -9   1  -2  480.82   12.40
  -9  -1  -2  469.61   12.28
  -9   1  -2  465.21   12.28
  -9  -1  -2  458.67   12.36
  -9  -1  -2  445.40   12.23
 -10  -1  -2  428.57   11.45
 -10  -1  -2  418.60   11.52
 -10  -1  -2  414.31   11.39
 -10   1  -2  429.34   11.50
 -11  -1  -2  149.08    5.21
 -11  -1  -2  143.92    5.24
 -11  -1  -2  149.16    5.24
 -11   1  -2  143.18    5.18
 -12   1  -2  176.56    5.72
 -12  -1  -2  169.57    5.77
 -12   1  -2  158.53    5.19
 -12  -1  -2  167.72    5.67
 -13   1  -2  360.08    9.72
 -13  -1  -2  346.34    9.48
 -13  -1  -2  359.18    9.85
 -14  -1  -2  158.71    4.77
 -14   1  -2  157.54    5.02
 -14  -1  -2  162.42    5.10
 -14  -1  -2  167.58    5.12
 -15  -1  -2  223.02    6.18
 -16  -2   2  266.20    7.15
 -16   2   2  251.12    7.16
 -16  -2   2  262.74    7.54
 -16   2   2  258.12    7.11
 -15  -2   2  282.71    8.16
 -15   2   2  277.41    8.68
 -15  -2   2  274.97    7.34
 -15   2   2  262.92    7.86
 -15  -2   2  279.99    7.94
 -14  -2   2  222.89    6.56
 -14   2   2  220.85    8.02
 -14  -2   2  239.18    7.17
 -14   2   2  221.66    7.07
 -14  -2   2  232.89    7.15
 -13   2   2  242.02   11.65
 -13   2   2  261.98    8.85
 -13   2   2  271.83    8.29
 -13  -2   2  264.25    8.23
 -13  -2   2  279.06    8.19
 -13  -2   2  277.35    7.74
 -13  -2   2  271.73   12.17
 -12   2   2  912.33   28.84
 -12   2   2  997.02   24.01
 -12  -2   2  978.73   23.78
 -12  -2   2  998.95   24.23
 -12  -2   2  968.18   23.31
 -12  -2   2  959.85   29.04
 -12  -2   2  976.54   23.75
 -11  -2   2  567.92   14.86
 -11   2   2  587.91   15.03
 -11  -2   2  571.84   14.77
 -11  -2   2  554.92   19.41
 -11  -2   2  586.07   15.12
 -11   2   2  559.04   19.53
 -10   2   2  443.45   11.79
 -10  -2   2  440.89   11.65
 -10  -2   2  449.43   11.74
 -10  -2   2  449.82   15.92
 -10  -2   2  445.57   11.60
 -10  -2   2  413.92   11.06
 -10   2   2  437.09   15.75
  -9  -2   2  255.41    7.27
  -9   2   2  254.55   10.43
  -9  -2   2  256.40   10.40
  -9  -2   2  253.39    7.31
  -9   2   2  251.13    7.43
  -9  -2   2  249.33    7.33
  -8   2   2  234.17    9.48
  -8  -2   2  239.51    9.43
  -7  -2   2    9.23    1.01
  -7   2   2   10.27    1.85
  -7   2   2    9.99    1.07
   7  -2  -2   10.07    1.16
  -7  -2   2    8.79    1.71
  -6  -2   2   43.20    3.15
  -6   2   2   43.09    3.15
   6  -2  -2   41.19    2.41
  -6   2   2   41.07    1.89
  -6  -2   2   37.94    1.87
   5  -2  -2  336.15    9.47
  -5  -2   2  320.41   10.06
   4   2  -2  143.46    5.12
   3   2  -2  475.66   12.61
   2   2  -2 3483.04   76.79
  -2   2   2 3290.58   76.70
  -2   2   2 3464.06   76.54
  -1   2   2 4734.22  105.18
   0   2   2  220.06    6.46
  -1   2  -2  840.73   20.33
  -2  -2  -2 1089.40   26.21
  -3   2  -2 1096.58   24.88
  -3  -2  -2 1216.23   27.15
  -4  -2  -2  661.68   16.85
  -4   2  -2  650.48   17.09
  -5  -2  -2  206.83    7.12
  -5  -2  -2  194.85    5.96
  -5   2  -2  204.12    7.53
  -5  -2  -2  194.53    7.40
  -6  -2  -2   15.82    1.85
  -6   2  -2   15.12    2.09
  -6  -2  -2   18.38    2.28
  -7  -2  -2    5.52    0.95
  -7   2  -2    5.41    0.97
  -7  -2  -2    6.64    0.98
  -7  -2  -2    6.11    0.98
  -7   2  -2    6.46    0.96
  -7   2  -2    6.66    1.57
  -7  -2  -2    8.21    1.74
  -8  -2  -2   69.11    2.89
  -8  -2  -2   66.90    3.06
  -8  -2  -2   66.46    3.01
  -8   2  -2   63.27    2.96
  -8   2  -2   69.80    2.92
  -8  -2  -2   64.39    2.90
  -8   2  -2   68.77    3.06
  -8  -2  -2   69.02    3.08
  -9   2  -2   40.11    2.36
  -9  -2  -2   44.40    2.45
  -9   2  -2   42.99    2.36
  -9  -2  -2   41.54    2.48
  -9  -2  -2   47.43    2.43
  -9  -2  -2   42.00    2.40
  -9  -2  -2   43.62    2.16
 -10  -2  -2   97.46    3.94
 -10   2  -2   94.62    3.94
 -10  -2  -2   84.31    3.35
 -10  -2  -2   90.83    3.91
 -10  -2  -2   98.00    3.90
 -10   2  -2   90.41    3.42
 -10  -2  -2   97.21    3.92
 -10   2  -2   95.93    3.81
 -11  -2  -2  264.18    7.80
 -11  -2  -2  235.04    6.96
 -11   2  -2  248.26    7.07
 -11  -2  -2  261.18    7.72
 -11   2  -2  261.19    7.62
 -11   2  -2  249.91    7.74
 -11  -2  -2  250.67    7.78
 -11  -2  -2  252.16    7.70
 -12  -2  -2  454.09   12.30
 -12   2  -2  465.45   12.41
 -12   2  -2  459.85   12.16
 -12  -2  -2  464.17   12.43
 -12  -2  -2  459.54   12.29
 -12  -2  -2  470.58   12.38
 -13  -2  -2  370.31   10.06
 -13   2  -2  363.69    9.80
 -13   2  -2  372.51   10.04
 -13  -2  -2  354.71    9.78
 -13  -2  -2  372.48    9.98
 -13  -2  -2  369.68   10.02
 -14  -2  -2  191.48    5.43
 -14   2  -2  186.38    5.59
 -14  -2  -2  190.87    5.58
 -15  -2  -2   93.32    2.86
 -17  -3   2   17.75    1.81
 -16  -3   2   40.74    1.59
 -16   3   2   42.50    1.90
 -16  -3   2   42.77    1.91
 -15  -3   2   16.82    1.38
 -15  -3   2   15.84    2.26
 -15  -3   2   14.67    1.15
 -15   3   2   14.59    2.90
 -15   3   2   18.22    1.42
 -14  -3   2   24.96    2.03
 -14   3   2   22.25    1.79
 -14  -3   2   25.78    1.88
 -14  -3   2   26.89    1.67
 -14   3   2   22.69    4.43
 -13   3   2   92.57    5.98
 -13   3   2   96.20    4.00
 -13  -3   2   95.10    3.63
 -13  -3   2   97.17    3.98
 -13  -3   2   93.97    3.97
 -13  -3   2   95.79    3.94
 -12  -3   2    1.59    3.73
 -12   3   2   -0.76    4.48
 -12  -3   2    2.18    0.98
 -12  -3   2    3.50    1.04
 -12  -3   2    0.75    0.82
 -12   3   2    2.51    1.59
 -12   3   2    1.34    0.84
 -12  -3   2    1.38    1.44
 -11  -3   2   19.75    1.52
 -11   3   2   21.55    4.09
 -11  -3   2   23.23    1.85
 -11  -3   2   26.49    2.74
 -11  -3   2   22.04    3.18
 -11  -3   2   22.18    1.84
 -11   3   2   23.93    3.30
 -10  -3   2   32.98    2.11
 -10   3   2   29.46    3.63
 -10  -3   2   32.44    2.27
 -10   3   2   30.87    3.54
 -10  -3   2   33.02    3.62
 -10  -3   2   31.19    1.84
 -10  -3   2   32.53    2.04
  -9  -3   2   90.46    5.76
  -9   3   2   95.72    4.43
  -9  -3   2   98.20    3.69
  -9  -3   2   96.46    3.69
  -9  -3   2   92.27    3.44
  -9   3   2   94.90    5.91
  -9  -3   2   96.70    3.66
  -8   3   2   56.25    4.15
  -8  -3   2   52.41    4.02
  -7  -3   2   34.54    3.02
  -7   3   2   32.60    1.79
  -7  -3   2   28.48    1.72
  -7   3   2   30.02    2.88
   7  -3  -2   29.51    2.11
  -6   3   2   33.80    1.73
  -6  -3   2   33.43    1.73
   6   3  -2   36.63    2.43
  -6   3   2   32.31    2.78
  -6  -3   2   32.28    2.76
   5   3  -2   -0.09    0.76
  -5   3   2    0.45    0.89
  -5  -3   2    0.56    1.01
  -4   3   2  343.88    9.88
   4   3  -2  316.89    9.62
   3   3  -2   44.48    2.71
   2   3  -2    1.11    0.86
  -2   3   2    2.66    0.91
  -1   3   2    1.23    0.79
   0   3  -2   28.43    2.08
   0   3   2   27.02    1.95
  -1   3  -2  510.25   13.38
  -2   3  -2    0.81    0.77
  -3  -3  -2 1008.02   25.19
  -4  -3  -2   17.63    1.95
  -4   3  -2   17.29    1.82
  -4  -3  -2   16.68    1.82
  -5  -3  -2  721.59   20.14
  -5   3  -2  772.54   20.45
  -5  -3  -2  767.14   20.32
  -6  -3  -2    0.58    0.99
  -6  -3  -2    0.47    0.92
  -6   3  -2    1.43    0.94
  -7  -3  -2  670.93   16.54
  -7  -3  -2  677.02   16.28
  -7  -3  -2  639.77   16.61
  -7   3  -2  707.33   19.93
  -7  -3  -2  726.37   19.94
  -8  -3  -2   37.75    2.20
  -8   3  -2   36.41    2.16
  -8  -3  -2   42.04    2.33
  -8   3  -2   39.49    2.07
  -8  -3  -2   36.85    2.15
  -9  -3  -2  138.63    4.71
  -9  -3  -2  140.80    5.08
  -9   3  -2  135.22    4.71
  -9  -3  -2  141.41    4.88
  -9  -3  -2  143.84    4.96
  -9  -3  -2  139.11    5.03
  -9   3  -2  141.25    4.97
 -10  -3  -2  132.40    4.91
 -10  -3  -2  133.11    4.78
 -10  -3  -2  126.14    4.45
 -10   3  -2  129.24    4.60
 -10  -3  -2  136.84    5.00
 -10  -3  -2  135.15    4.82
 -10   3  -2  124.38    4.76
 -11  -3  -2  215.44    6.85
 -11  -3  -2  211.13    6.72
 -11  -3  -2  225.12    6.82
 -11   3  -2  212.05    6.50
 -11  -3  -2  214.54    6.83
 -11  -3  -2  201.83    6.20
 -11   3  -2  208.67    6.71
 -12  -3  -2  110.45    4.23
 -12   3  -2  102.22    3.83
 -12  -3  -2  106.62    4.20
 -12  -3  -2   95.72    3.50
 -12  -3  -2  105.32    4.06
 -12   3  -2  109.74    4.16
 -12  -3  -2  107.63    4.11
 -13  -3  -2   68.30    2.95
 -13   3  -2   65.03    3.44
 -13  -3  -2   70.49    3.07
 -13   3  -2   67.52    2.98
 -13  -3  -2   68.48    2.95
 -14  -3  -2  191.54    5.57
 -14  -3  -2  189.86    5.51
 -14  -3  -2  191.56    5.62
 -15  -3  -2   29.67    1.35
 -15  -3  -2   34.86    1.79
 -16  -4   2  328.14    7.81
 -16  -4   2  276.32    7.03
 -15  -4   2   42.91    1.88
 -15  -4   2   44.75    2.74
 -15   4   2   41.32    2.01
 -15  -4   2   43.69    2.04
 -14  -4   2  751.20   17.80
 -14  -4   2  756.27   17.83
 -14  -4   2  686.83   17.31
 -14   4   2  726.48   17.54
 -14   4   2  714.56   17.71
 -14  -4   2  706.89   17.66
 -13  -4   2    8.32    1.25
 -13   4   2    5.25    0.79
 -13  -4   2    6.24    0.95
 -13   4   2    6.07    3.85
 -13  -4   2    4.53    1.11
 -13   4   2    6.99    1.10
 -13  -4   2    4.50    1.02
 -12  -4   2  897.52   21.49
 -12   4   2  903.93   21.83
 -12   4   2  884.69   21.48
 -12  -4   2  886.57   21.45
 -12  -4   2  809.95   25.64
 -12  -4   2  885.41   21.54
 -11  -4   2   23.22    3.05
 -11  -4   2   21.15    1.81
 -11   4   2   27.27    4.76
 -11  -4   2   21.20    2.99
 -11  -4   2   20.45    1.58
 -11   4   2   22.51    3.06
 -11  -4   2   24.76    1.92
 -10  -4   2  939.03   22.77
 -10  -4   2  940.70   22.75
 -10  -4   2  968.03   22.82
 -10   4   2  913.17   23.09
 -10  -4   2  950.68   27.27
 -10  -4   2  932.96   22.47
 -10   4   2  951.87   27.31
  -9   4   2  206.44    7.29
  -9  -4   2  209.71    6.35
  -9  -4   2  206.88    6.31
  -9   4   2  215.14    9.32
  -9  -4   2  204.03    9.15
  -9  -4   2  201.51    6.24
  -9  -4   2  210.77    6.41
  -8  -4   2  840.55   20.41
  -8   4   2  837.36   23.72
  -8   4   2  859.35   20.67
  -8  -4   2  876.21   20.36
  -8  -4   2  865.07   23.82
  -8  -4   2  841.84   20.25
  -8  -4   2  832.99   20.39
   7   4  -2  804.65   20.94
  -7  -4   2  809.66   22.11
  -7   4   2  810.88   22.17
  -6   4   2   54.36    3.60
  -6   4   2   54.50    2.29
   6   4  -2   63.10    3.45
  -6  -4   2   51.71    2.27
  -6  -4   2   55.60    3.53
  -5   4   2 1468.75   33.79
  -5  -4   2 1511.44   36.05
   5   4  -2 1561.95   36.08
  -5   4   2 1491.18   36.00
   4   4  -2  208.53    7.45
  -4  -4   2  202.57    7.19
  -4   4   2  222.74    7.33
   3   4  -2 1976.42   46.85
  -3   4   2 1935.75   46.70
  -2   4   2  136.96    5.41
  -2   4   2  120.11    5.19
  -1   4   2 3704.02   83.86
   0  -4  -2    8.94    1.40
   0   4  -2   12.70    1.88
  -1  -4  -2 3316.14   70.92
  -1   4  -2 3238.74   70.28
   1   4   2 3332.30   70.62
  -2   4  -2    1.60    0.80
  -3   4  -2  942.23   22.76
  -3   4  -2  920.33   23.00
  -3  -4  -2  903.96   22.86
  -4  -4  -2   24.98    2.45
  -4   4  -2   20.34    2.08
  -4  -4  -2   23.63    2.15
  -5   4  -2  741.18   20.20
  -5  -4  -2  742.43   20.58
  -5  -4  -2  744.72   20.23
  -6  -4  -2  143.46    6.35
  -6  -4  -2  128.98    6.32
  -6  -4  -2  131.08    4.46
  -6   4  -2  124.94    6.08
  -6  -4  -2  127.42    4.32
  -7  -4  -2   56.79    2.61
  -7   4  -2   61.13    2.70
  -7  -4  -2   57.02    2.86
  -7  -4  -2   60.58    2.83
  -7  -4  -2   64.10    2.69
  -7  -4  -2   56.02    2.47
  -8  -4  -2  936.49   22.72
  -8  -4  -2  899.68   22.51
  -8   4  -2  929.02   22.35
  -8  -4  -2  931.29   22.65
  -8  -4  -2  937.49   22.33
  -8  -4  -2  950.81   22.26
  -9  -4  -2  133.37    4.85
  -9  -4  -2  129.26    4.62
  -9  -4  -2  129.69    4.87
  -9   4  -2  132.20    4.70
 -10  -4  -2  307.17    8.67
 -10   4  -2  312.69    8.85
 -10  -4  -2  308.40    8.89
 -10  -4  -2  309.36    9.00
 -10   4  -2  297.75    8.41
 -10  -4  -2  310.98    8.79
 -11  -4  -2  196.23    6.29
 -11  -4  -2  180.44    5.75
 -11  -4  -2  194.12    6.15
 -11   4  -2  178.56    5.68
 -11   4  -2  187.18    6.05
 -11  -4  -2  202.70    6.15
 -12  -4  -2  300.23    8.62
 -12  -4  -2  309.69    8.58
 -12   4  -2  304.87    8.49
 -12  -4  -2  309.73    8.49
 -12  -4  -2  290.68    8.04
 -13  -4  -2  252.06    7.08
 -13  -4  -2  245.92    7.10
 -13   4  -2  253.15    6.99
 -13  -4  -2  243.17    6.89
 -14  -4  -2  260.88    6.80
 -14  -4  -2  243.54    6.79
 -14  -4  -2  251.81    6.78
 -15  -4  -2   86.93    2.62
 -15  -4  -2   88.45    2.95
 -16  -5   2   11.93    1.54
 -15  -5   2   82.88    2.81
 -15  -5   2   93.82    3.47
 -14  -5   2   30.95    2.03
 -14  -5   2   28.70    1.65
 -14  -5   2   31.95    1.89
 -14   5   2   25.89    1.58
 -13   5   2   44.00    2.13
 -13   5   2   43.30    2.34
 -13  -5   2   46.77    2.44
 -13   5   2   40.05    2.21
 -13  -5   2   38.03    2.14
 -13  -5   2   46.27    2.29
 -13  -5   2   47.15    2.52
 -12  -5   2   86.87    3.58
 -12   5   2   79.72    3.80
 -12   5   2   83.47    3.43
 -12  -5   2   79.80    3.36
 -12  -5   2   84.70    3.37
 -12  -5   2   87.37    3.65
 -11  -5   2   17.28    1.64
 -11  -5   2   14.66    1.49
 -11   5   2   13.88    1.37
 -11  -5   2   15.79    1.42
 -11  -5   2   14.67    1.39
 -11   5   2   11.90    2.26
 -10  -5   2  154.18    7.93
 -10   5   2  173.77    6.44
 -10  -5   2  179.58    5.71
 -10   5   2  164.71    8.24
 -10  -5   2  167.47    5.96
 -10  -5   2  169.53    5.61
 -10  -5   2  176.72    5.77
  -9   5   2   78.94    4.18
  -9  -5   2   86.46    3.39
  -9   5   2   79.36    5.23
  -9  -5   2   79.80    3.36
  -9  -5   2   82.30    3.47
  -8   5   2  498.00   13.05
   8   5  -2  493.90   14.54
  -8   5   2  519.41   16.10
  -8  -5   2  496.79   15.81
  -8  -5   2  499.96   12.81
  -8  -5   2  523.09   12.84
  -8  -5   2  500.62   12.99
  -7   5   2  275.73    9.85
  -7  -5   2  266.09    9.75
   7   5  -2  277.85    9.43
  -7  -5   2  259.53    7.37
   6   5  -2  423.33   12.66
  -6  -5   2  406.71   12.42
  -6   5   2  397.37   12.37
  -5   5   2  368.77   11.16
  -5  -5   2  376.16   11.17
   5   5  -2  382.41   11.82
  -4   5   2  165.07    5.87
   4   5  -2  166.01    6.60
  -4   5   2  165.06    6.43
  -4  -5   2  166.41    5.83
  -3   5   2  367.19   11.10
  -3   5   2  364.96   11.43
  -3  -5   2  349.35    9.97
  -3   5   2  329.44   10.06
  -2   5   2   20.91    2.10
  -2   5   2   26.03    2.45
   1  -5  -2   68.31    3.80
  -1   5   2   65.30    3.75
   0   5  -2  333.11    9.25
   0  -5  -2  365.28   11.17
   0   5   2  341.66   10.89
  -1  -5  -2    6.31    1.36
  -1   5  -2    6.25    1.27
  -1   5  -2    5.83    0.71
   1   5   2    5.15    1.31
  -2  -5  -2  534.30   15.99
  -2  -5  -2  536.28   14.17
  -2   5  -2  542.09   14.23
  -3   5  -2    2.62    0.89
  -3   5  -2    2.12    0.80
  -3  -5  -2    2.09    0.78
  -4   5  -2  842.34   21.61
  -4   5  -2  855.47   22.09
  -4  -5  -2  877.00   22.15
  -5  -5  -2   98.97    3.55
  -5  -5  -2  101.99    5.71
  -5   5  -2   94.21    3.50
  -5   5  -2  101.16    4.92
  -5  -5  -2  103.69    4.94
  -5  -5  -2   91.00    3.61
  -6   5  -2 1093.94   25.69
  -6  -5  -2 1091.54   25.99
  -6  -5  -2 1076.80   25.82
  -6  -5  -2 1095.32   25.81
  -6  -5  -2 1125.46   25.71
  -6  -5  -2 1109.65   29.54
  -6  -5  -2 1068.12   25.37
  -7  -5  -2   54.71    2.80
  -7  -5  -2   53.35    2.68
  -7   5  -2   55.13    2.52
  -7  -5  -2   51.02    2.65
  -7  -5  -2   53.56    2.54
  -7  -5  -2   54.60    2.49
  -8  -5  -2  543.53   13.73
  -8   5  -2  541.35   13.79
  -8  -5  -2  539.40   14.11
  -8  -5  -2  557.38   14.37
  -8  -5  -2  552.33   14.35
  -8  -5  -2  575.93   13.96
  -8  -5  -2  514.46   13.67
  -9  -5  -2    1.77    0.93
  -9  -5  -2    1.64    0.91
  -9   5  -2    1.46    0.71
  -9  -5  -2    0.52    0.68
  -9  -5  -2    1.76    1.02
  -9  -5  -2    1.09    0.61
 -10  -5  -2  674.55   16.46
 -10  -5  -2  662.89   16.58
 -10  -5  -2  662.07   16.76
 -10  -5  -2  657.41   17.00
 -10   5  -2  650.19   16.45
 -11  -5  -2  123.66    4.57
 -11  -5  -2  124.62    4.50
 -11  -5  -2  123.31    4.68
 -11   5  -2  124.30    4.34
 -11  -5  -2  118.42    4.25
 -11  -5  -2  129.51    4.38
 -12  -5  -2  395.13   10.25
 -12  -5  -2  361.58    9.58
 -12  -5  -2  356.41    9.51
 -12  -5  -2  375.70   10.00
 -12  -5  -2  380.82    9.96
 -12   5  -2  364.06    9.61
 -13  -5  -2  217.55    6.24
 -13  -5  -2  223.40    6.30
 -14  -5  -2  185.16    5.01
 -14  -5  -2  178.00    5.01
 -15  -6   2  132.84    3.74
 -15  -6   2  135.52    4.03
 -14  -6   2   52.27    2.49
 -14  -6   2   52.45    2.20
 -14  -6   2   56.91    2.44
 -13  -6   2  214.31    6.27
 -13   6   2  210.82    6.10
 -13  -6   2  212.25    6.41
 -12  -6   2   31.17    1.98
 -12   6   2   34.53    2.01
 -12  -6   2   32.90    1.94
 -12  -6   2   36.56    2.20
 -11  -6   2  237.16    6.91
 -11  -6   2  224.47    7.01
 -11  -6   2  217.00    6.76
 -10  -6   2   28.91    1.93
 -10  -6   2   30.16    2.09
 -10  -6   2   28.06    1.94
  -9  -6   2  125.99    4.61
  -9  -6   2  123.36    4.36
  -9  -6   2  120.20    4.48
  -9  -6   2  124.05    4.61
   8   6  -2   72.39    4.38
  -8  -6   2   83.38    3.29
  -8  -6   2   79.60    3.43
   7   6  -2   17.47    2.19
  -7  -6   2   18.07    1.54
  -7  -6   2   17.09    1.33
   6   6  -2   69.05    4.25
  -6  -6   2   64.62    2.89
   5  -6  -2   16.20    2.07
   5   6  -2   18.75    2.24
   4  -6  -2  331.10   11.19
   4   6  -2  351.01   11.49
  -4   6   2  339.89   10.98
   3  -6  -2   61.13    3.88
   3   6  -2   57.96    3.84
  -3   6   2   53.66    3.53
   2  -6  -2  826.89   21.54
  -2   6   2  758.66   21.21
  -1   6   2  237.22    8.59
   1  -6  -2  213.21    8.30
   0  -6  -2 1080.69   26.90
   0   6   2 1059.77   26.58
   0   6  -2 1016.32   26.25
  -1  -6  -2  144.94    6.49
  -1   6  -2  139.76    6.04
  -1   6  -2  128.10    4.48
   1   6   2  141.28    6.35
  -2   6  -2  485.74   14.34
   2   6   2  455.19   14.84
  -3   6  -2  125.59    4.19
  -3   6  -2  127.25    5.59
  -3  -6  -2  136.76    6.56
  -3  -6  -2  120.63    4.11
  -4  -6  -2  435.49   11.18
  -4  -6  -2  470.34   11.64
  -4   6  -2  433.54   12.88
  -4  -6  -2  429.03   11.33
  -5   6  -2    0.91    0.73
  -5  -6  -2    0.81    0.51
  -5  -6  -2    0.42    0.67
  -5  -6  -2   -0.12    0.58
  -5  -6  -2    0.82    0.59
  -6  -6  -2    2.80    0.71
  -6  -6  -2    2.77    0.93
  -6  -6  -2    3.55    0.83
  -6   6  -2    2.61    0.86
  -6  -6  -2    2.57    0.83
  -7  -6  -2  191.55    6.33
  -7  -6  -2  198.13    6.15
  -7  -6  -2  192.09    6.05
  -7  -6  -2  188.63    5.95
  -8  -6  -2   40.10    2.36
  -8  -6  -2   41.06    2.52
  -8  -6  -2   39.74    2.27
  -8  -6  -2   40.16    2.51
  -8  -6  -2   38.64    2.21
  -9  -6  -2  178.06    5.91
  -9  -6  -2  186.27    6.31
  -9  -6  -2  183.11    6.18
  -9  -6  -2  193.79    5.87
 -10  -6  -2  126.32    4.82
 -10  -6  -2  131.01    4.65
 -11  -6  -2  151.33    5.14
 -11  -6  -2  139.11    4.79
 -11  -6  -2  141.48    4.81
 -11  -6  -2  140.43    4.71
 -12  -6  -2  142.87    4.75
 -12  -6  -2  138.71    4.31
 -12  -6  -2  140.06    4.52
 -12  -6  -2  137.56    4.49
 -13  -6  -2  163.69    4.76
 -13  -6  -2  166.01    4.87
 -13  -6  -2  161.64    4.70
 -14  -6  -2   88.32    2.62
 -14  -6  -2   87.06    2.53
 -15  -7   2   12.76    0.71
 -14  -7   2    0.62    0.55
 -14  -7   2    0.71    0.46
 -14  -7   2    0.81    0.95
 -13  -7   2    0.97    0.68
 -13   7   2    0.91    0.59
 -13  -7   2    1.22    0.88
 -12  -7   2   11.74    1.20
 -12  -7   2   14.24    1.41
 -12   7   2   13.64    1.28
 -12  -7   2   12.61    1.22
 -11  -7   2    1.20    0.85
 -11  -7   2    1.94    0.77
 -11   7   2    1.90    0.82
 -11  -7   2    2.32    0.80
 -10  -7   2  116.17    4.17
 -10  -7   2  123.20    4.56
 -10  -7   2  123.23    4.55
  -9  -7   2  264.79    7.86
  -9  -7   2  253.80    7.80
  -9  -7   2  275.17    8.03
  -8  -7   2  297.49    8.44
  -8  -7   2  288.05    8.13
   7   7  -2  310.84   11.30
   7  -7  -2  323.11    9.15
  -7  -7   2  311.12    8.68
  -7  -7   2  326.61    9.15
   6   7  -2  518.74   16.39
   6  -7  -2  528.44   13.52
  -6  -7   2  522.18   13.57
   5   7  -2  875.60   24.87
   5  -7  -2  909.17   21.75
  -5  -7   2  919.26   21.87
   4   7  -2  554.45   16.57
   4  -7  -2  523.73   13.28
  -4   7   2  561.87   15.89
  -4  -7   2  529.98   13.39
   3  -7  -2  492.57   14.90
   3   7  -2  456.94   14.97
  -3   7   2  453.35   14.24
  -3   7   2  492.65   15.15
   3  -7  -2  468.83   11.95
  -2   7   2   89.75    5.01
   2  -7  -2   89.35    5.09
   1  -7  -2  132.72    6.46
   1  -7  -2  126.34    4.22
   1   7  -2  130.35    5.32
   0  -7  -2  113.45    5.96
   0  -7  -2  114.57    3.82
   0   7   2   95.06    5.50
   0   7  -2   94.78    4.22
   0   7  -2   94.67    5.39
  -1   7  -2   56.55    3.93
  -1  -7  -2   54.60    4.23
   1   7   2   53.32    4.11
  -1  -7  -2   55.72    2.46
  -2  -7  -2  119.29    6.43
  -2  -7  -2  129.71    4.30
  -2   7  -2  134.79    6.24
   2   7   2  125.07    6.57
  -2  -7  -2  117.44    4.13
  -2  -7  -2  118.34    4.08
  -3  -7  -2   55.21    2.58
  -3  -7  -2   61.32    4.64
  -3  -7  -2   66.72    2.88
  -3   7  -2   61.18    3.96
   3   7   2   70.42    4.89
  -3  -7  -2   62.71    2.77
  -3  -7  -2   63.59    2.52
  -4  -7  -2  697.10   17.83
  -4   7  -2  733.39   19.97
  -4  -7  -2  698.19   17.96
  -4  -7  -2  745.33   17.57
  -4  -7  -2  735.84   17.68
  -5  -7  -2  141.23    5.13
  -5  -7  -2  149.78    4.85
  -5  -7  -2  146.57    5.06
  -5  -7  -2  150.42    4.93
  -6  -7  -2  508.88   12.83
  -6  -7  -2  487.76   12.78
  -6  -7  -2  495.13   13.16
  -6  -7  -2  495.78   13.13
  -6  -7  -2  497.92   12.98
  -7  -7  -2    7.85    1.26
  -7  -7  -2    6.69    1.05
  -7  -7  -2    4.87    0.91
  -7  -7  -2    7.76    1.13
  -8  -7  -2  219.68    6.92
  -8  -7  -2  206.30    6.49
  -8  -7  -2  215.87    6.55
  -8  -7  -2  213.02    6.63
  -9  -7  -2  114.75    4.47
  -9  -7  -2  119.32    4.22
  -9  -7  -2  112.74    4.14
  -9  -7  -2  110.75    4.09
 -10  -7  -2  205.20    6.60
 -10  -7  -2  218.97    6.38
 -11  -7  -2   -0.06    0.63
 -11  -7  -2    0.39    0.59
 -11  -7  -2    0.98    0.68
 -11  -7  -2    0.26    0.77
 -12  -7  -2  127.63    3.94
 -12  -7  -2  117.38    3.73
 -12  -7  -2  125.71    3.83
 -13  -7  -2   22.46    1.15
 -13  -7  -2   23.13    1.24
 -14  -8   2    1.25    0.38
 -13   8   2  403.30   10.03
 -13  -8   2  402.01   10.10
 -12  -8   2   13.06    1.14
 -12   8   2   14.41    1.26
 -12  -8   2   13.95    1.28
 -11   8   2  522.69   13.09
 -11  -8   2  501.46   12.95
 -11  -8   2  497.27   12.88
 -10  -8   2    1.12    0.81
 -10  -8   2    8.61    1.21
  -9  -8   2  733.78   17.95
  -9  -8   2  708.90   17.93
  -9  -8   2  708.55   17.99
  -8  -8   2   74.35    3.25
  -8  -8   2   72.64    3.38
   7   8  -2   94.25    5.79
   7  -8  -2  107.77    4.18
  -7  -8   2  101.79    3.90
  -7  -8   2  105.20    4.21
   6   8  -2  297.20   11.48
  -6  -8   2  305.19    8.85
   6  -8  -2  305.43    8.69
   5   8  -2  210.26    9.10
   5  -8  -2  202.13    6.23
  -5  -8   2  199.93    6.43
   4   8  -2  496.74   16.14
  -4   8   2  487.61   15.01
   4  -8  -2  492.14   12.52
  -4  -8   2  477.51   12.65
   3  -8  -2    0.19    0.94
  -3  -8   2    0.80    0.63
   3  -8  -2    1.14    0.73
   3   8  -2    2.91    1.47
  -3   8   2    1.17    1.01
  -3   8   2    1.44    1.22
   3  -8  -2    1.24    0.66
  -2  -8   2 1189.00   27.96
   2  -8  -2 1250.88   28.34
   2  -8  -2 1174.42   31.97
   2   8  -2 1148.60   30.37
  -2   8   2 1233.78   32.38
   2  -8  -2 1210.87   28.19
  -2   8   2 1148.73   31.36
   1  -8  -2   27.95    3.05
   1  -8  -2   25.54    1.72
  -1   8   2   23.09    2.80
   1   8  -2   21.16    2.10
   1  -8  -2   24.95    1.72
   0  -8  -2  763.06   22.64
   0   8  -2  793.31   22.49
   0  -8  -2  772.55   18.76
   0  -8  -2  765.76   18.75
  -1  -8  -2   12.64    2.26
  -1   8  -2   11.49    2.06
  -1  -8  -2   11.50    1.19
   1   8   2    9.42    2.19
  -2  -8  -2  438.35   11.61
   2   8   2  419.17   15.25
  -2  -8  -2  440.33   11.61
  -2   8  -2  444.36   14.50
   3   8   2   -0.73    1.44
  -3  -8  -2    0.46    0.66
  -3  -8  -2    0.36    0.70
  -3   8  -2    1.58    1.22
  -3  -8  -2   -0.49    1.42
  -3  -8  -2    0.28    0.72
  -3  -8  -2    1.02    0.55
  -4  -8  -2  486.13   16.77
  -4  -8  -2  478.38   12.60
  -4   8  -2  462.13   14.54
  -4  -8  -2  461.64   12.24
   4   8   2  487.78   16.89
  -4  -8  -2  482.10   12.51
  -4  -8  -2  463.67   12.07
  -5  -8  -2    5.86    1.10
  -5  -8  -2    4.73    0.96
   5   8   2    1.89    1.73
  -5  -8  -2    3.89    1.01
  -5  -8  -2    4.77    0.97
  -6  -8  -2  115.65    4.36
  -6  -8  -2  128.40    4.69
  -6  -8  -2  120.17    4.69
  -6  -8  -2  121.26    4.50
   6   8   2  128.73    7.78
  -7  -8  -2  179.89    6.03
  -7  -8  -2  182.47    6.31
  -7  -8  -2  182.66    5.88
  -7  -8  -2  186.14    5.96
  -8  -8  -2  119.88    4.51
  -8  -8  -2  123.28    4.84
  -8  -8  -2  119.76    4.30
  -8  -8  -2  117.47    4.41
  -9  -8  -2    4.60    1.01
  -9  -8  -2    6.44    1.00
  -9  -8  -2    5.47    0.89
 -10  -8  -2   51.94    2.54
 -11  -8  -2  132.78    4.33
 -11  -8  -2  132.94    4.15
 -11  -8  -2  135.01    4.23
 -12  -8  -2   58.06    2.09
 -12  -8  -2   59.84    2.22
 -12  -8  -2   58.75    2.13
 -13  -8  -2   36.53    1.34
 -13   9   2   76.44    2.51
 -13  -9   2   72.62    2.41
 -13  -9   2   77.63    2.48
 -12  -9   2    9.75    0.94
 -12   9   2   11.36    1.06
 -12  -9   2    8.50    0.88
 -11  -9   2   99.15    3.59
 -11  -9   2  111.14    3.72
  10  -9  -2   21.42    1.46
 -10  -9   2   25.61    1.72
 -10  -9   2   25.16    1.77
   9  -9  -2  288.35    8.06
  -9  -9   2  285.83    8.07
  -9  -9   2  273.12    8.15
  -9   9   2  276.96    8.18
  -8  -9   2  114.52    4.27
  -8   9   2  116.85    4.49
   8  -9  -2  113.40    4.42
  -8  -9   2  119.30    4.37
  -8  -9   2  116.68    4.48
   7  -9  -2  328.11    9.71
  -7  -9   2  331.60    9.24
  -7  -9   2  349.87    9.62
   6  -9  -2  109.89    4.51
   6   9  -2  109.19    6.46
  -6  -9   2  119.49    4.55
   5   9  -2  105.82    6.52
  -5  -9   2  113.90    4.40
   5  -9  -2  104.62    4.08
   5  -9  -2  115.47    4.42
   4  -9  -2  409.24   11.12
   4   9  -2  401.98   14.60
   4  -9  -2  393.09   10.83
  -4  -9   2  411.83   11.06
   3  -9  -2   11.15    1.30
   3   9  -2    7.81    1.94
  -3   9   2    8.83    1.73
   3  -9  -2    9.43    1.21
   3   9  -2    5.73    1.57
  -3  -9   2    6.75    1.06
   2  -9  -2   19.53    1.68
  -2   9   2   15.68    2.28
  -2  -9   2   18.96    1.51
   2  -9  -2   20.39    1.60
  -2   9   2   18.01    2.79
   1  -9  -2   12.24    1.40
   1   9  -2   10.68    2.24
  -1   9   2   11.21    2.10
   1  -9  -2   11.79    1.24
  -1   9   2   11.88    2.41
   1  -9  -2   13.63    2.37
   0  -9  -2   14.88    2.54
   0   9  -2   15.13    2.61
   0  -9  -2   17.89    1.53
   0   9   2   17.41    2.58
   0  -9  -2   16.94    1.48
  -1  -9  -2  443.46   11.86
  -1  -9  -2  444.44   15.97
  -1  -9  -2  446.09   11.90
  -1   9  -2  484.32   15.66
  -2  -9  -2  109.52    6.89
  -2   9  -2  115.31    6.35
  -2  -9  -2  106.96    4.18
  -2  -9  -2  113.25    4.29
  -2  -9  -2  112.11    3.88
  -3  -9  -2  819.53   24.98
  -3   9  -2  767.15   23.01
   3   9   2  858.84   25.29
  -3  -9  -2  841.88   20.13
  -3  -9  -2  797.60   19.51
  -4  -9  -2   26.83    1.89
   4   9   2   26.72    3.66
  -4  -9  -2   27.67    2.04
  -4  -9  -2   27.68    1.94
  -4  -9  -2   26.23    1.77
  -5  -9  -2 1013.39   24.63
  -5  -9  -2 1032.45   24.66
   5   9   2 1032.84   30.42
  -5  -9  -2 1029.72   24.94
  -5  -9  -2 1029.28   24.55
  -6  -9  -2   97.65    3.86
  -6  -9  -2   90.92    3.75
  -6  -9  -2   89.36    3.95
   6   9   2   88.91    6.55
  -6  -9  -2   92.38    3.71
  -7  -9  -2  964.89   23.22
  -7  -9  -2  979.55   23.77
  -7  -9  -2  967.76   23.07
  -7  -9  -2  953.39   23.31
  -8  -9  -2    1.72    0.80
  -8  -9  -2    2.53    1.02
  -8  -9  -2    2.91    0.87
  -8  -9  -2    1.58    0.62
  -9  -9  -2  397.66   10.13
  -9  -9  -2  370.75    9.91
 -10  -9  -2   12.31    1.16
 -10  -9  -2   12.05    1.08
 -10  -9  -2   12.91    1.04
 -11  -9  -2  177.82    4.87
 -11  -9  -2  185.21    5.02
 -12  -9  -2   85.59    2.42
 -12  10   2   16.69    1.04
 -12 -10   2   14.61    0.89
 -11 -10   2    0.45    0.52
 -11 -10   2    1.01    0.56
 -10  10   2  156.56    4.91
 -10 -10   2  147.20    4.75
 -10 -10   2  156.86    4.67
  -9  10   2   38.78    2.18
   9 -10  -2   36.22    1.85
  -9 -10   2   34.45    2.08
  -9 -10   2   36.82    1.96
  -8 -10   2    2.81    0.80
  -8  10   2    2.27    0.93
   8 -10  -2    2.54    0.82
  -8 -10   2    2.18    0.90
  -8 -10   2    3.23    0.90
  -7  10   2  198.37    6.54
   7 -10  -2  211.98    6.68
  -7 -10   2  209.08    6.37
  -7 -10   2  204.22    6.51
  -6  10   2    3.03    1.05
   6 -10  -2    2.64    0.96
  -6 -10   2    3.91    1.00
  -6 -10   2    2.08    0.86
  -5  10   2   67.25    3.36
   5  10  -2   73.36    5.39
   5 -10  -2   81.22    3.62
  -5 -10   2   80.88    3.50
  -4  10   2    2.08    0.92
   4 -10  -2    1.79    0.92
   4  10  -2    1.50    1.27
  -4 -10   2    1.41    0.82
   4 -10  -2    0.82    0.68
   3 -10  -2  463.76   11.92
   3  10  -2  454.53   15.98
   3 -10  -2  430.38   11.49
  -3  10   2  412.16   11.34
  -3 -10   2  433.63   11.67
   2 -10  -2   28.16    2.02
   2 -10  -2   27.44    1.88
  -2 -10   2   27.40    1.88
   1 -10  -2   48.97    2.64
  -1  10   2   42.00    3.74
   1  10  -2   40.83    4.14
  -1  10   2   41.31    4.25
   1 -10  -2   45.46    2.45
   0  10   2    4.91    1.58
   0  10  -2    1.95    1.48
   0 -10  -2    3.60    0.99
   0  10   2    2.61    1.70
   0 -10  -2    4.33    0.94
  -1 -10  -2   66.01    3.14
   1  10   2   64.28    5.03
  -1  10  -2   59.27    4.74
  -1 -10  -2   67.21    3.09
  -1 -10  -2   63.81    2.68
  -2  10  -2  101.07    6.06
  -2 -10  -2   96.32    3.99
  -2 -10  -2   96.03    3.94
  -2 -10  -2  100.38    3.59
  -3  10  -2   24.50    2.84
  -3 -10  -2   25.30    1.94
   3  10   2   20.18    3.21
  -3 -10  -2   26.59    1.71
   4  10   2    6.55    2.13
  -4 -10  -2    8.62    1.25
  -4 -10  -2    8.14    1.05
  -5 -10  -2   59.77    2.90
  -5 -10  -2   56.90    3.00
  -5 -10  -2   61.58    2.84
  -6 -10  -2   18.09    1.43
  -6 -10  -2   17.73    1.57
  -6 -10  -2   19.65    1.80
  -6 -10  -2   16.84    1.40
  -7 -10  -2    0.70    0.62
  -7 -10  -2    1.14    0.73
  -7 -10  -2    1.20    0.88
  -7 -10  -2    1.79    0.66
  -8 -10  -2   45.77    2.10
  -8 -10  -2   46.61    2.30
  -8 -10  -2   49.45    2.10
  -9 -10  -2    1.43    0.56
  -9 -10  -2    0.75    0.50
 -10 -10  -2   47.04    1.66
 -10 -10  -2   47.33    1.90
 -11 -10  -2   28.66    1.19
 -11 -11   2  124.18    3.45
 -10  11   2  120.38    3.67
 -10 -11   2  110.26    3.47
 -10 -11   2  109.25    3.23
  -9  11   2  213.73    6.02
  -9 -11   2  207.43    5.96
  -9 -11   2  202.06    5.56
   8 -11  -2  465.90   11.60
  -8 -11   2  469.51   12.06
  -8 -11   2  454.75   11.55
  -7  11   2  471.77   12.32
   7 -11  -2  468.76   12.10
  -7 -11   2  475.87   12.18
  -7 -11   2  494.50   12.27
  -7 -11   2  465.38   11.79
   6 -11  -2  380.57   10.49
  -6  11   2  366.03   10.42
  -6 -11   2  389.36   10.26
  -6 -11   2  404.20   10.44
  -5  11   2  211.78    6.83
   5 -11  -2  224.45    7.01
  -5 -11   2  231.22    6.77
  -5 -11   2  237.81    6.92
   4 -11  -2  233.14    7.11
  -4  11   2  219.36    6.76
  -4 -11   2  231.92    6.94
   3 -11  -2  125.34    4.55
  -3 -11   2  120.77    4.33
   2 -11  -2  225.35    6.91
   2 -11  -2  213.81    6.56
   1 -11  -2   61.42    3.04
   1 -11  -2   64.74    2.93
   0 -11  -2   15.92    1.45
   0 -11  -2   14.86    1.52
   0 -11  -2   13.84    1.16
  -1 -11  -2    8.14    1.23
  -1 -11  -2    9.31    1.19
  -1 -11  -2    7.70    0.94
  -2 -11  -2   50.01    2.60
  -2 -11  -2   49.67    2.61
  -2 -11  -2   45.06    2.19
  -3 -11  -2  108.90    4.14
  -3 -11  -2  107.67    4.15
  -3 -11  -2  108.49    3.80
  -4 -11  -2   58.91    2.89
  -4 -11  -2   57.84    2.58
  -5 -11  -2  367.24   10.01
  -5 -11  -2  381.10   10.18
  -5 -11  -2  361.31    9.58
  -6 -11  -2  394.07   10.62
  -6 -11  -2  384.81    9.98
  -6 -11  -2  417.37   10.63
  -7 -11  -2  292.20    7.55
  -7 -11  -2  301.23    8.09
  -8 -11  -2  171.48    4.94
 -10 -11  -2   69.57    2.10
 -10 -12   2   72.66    2.14
  -9 -12   2   29.17    1.38
  -8 -12   2   28.48    1.56
   7 -12  -2   16.03    1.07
  -7  12   2   15.30    1.28
  -7 -12   2   18.29    1.33
  -6  12   2   50.75    2.44
   6 -12  -2   53.94    2.35
  -6 -12   2   58.10    2.46
   5 -12  -2   14.64    1.37
  -5  12   2   15.18    1.33
  -5 -12   2   18.20    1.39
  -5 -12   2   17.67    1.34
   4 -12  -2   82.94    3.37
  -4 -12   2   78.33    3.13
  -4 -12   2   77.57    3.05
   3 -12  -2    9.25    1.25
   2 -12  -2  128.81    4.58
   1 -12  -2  167.19    5.51
   0 -12  -2    3.79    0.98
   0 -12  -2    1.57    0.70
  -1 -12  -2   40.23    2.26
  -1 -12  -2   39.93    2.13
  -2 -12  -2    3.26    0.88
  -2 -12  -2    2.55    0.77
  -3 -12  -2  124.83    4.34
  -3 -12  -2  121.87    4.25
  -4 -12  -2    7.97    1.04
  -5 -12  -2  110.75    3.82
  -6 -12  -2   24.84    1.53
  -7 -12  -2    0.43    0.47
  -8 -12  -2    4.48    0.58
  -8 -13   2  177.12    4.51
  -7 -13   2   62.43    2.21
  -6 -13   2  104.19    3.33
   5 -13  -2  179.81    4.97
  -5 -13   2  184.16    5.18
   4 -13  -2   94.77    3.33
  -4 -13   2   97.34    3.27
   3 -13  -2   90.00    3.34
  -3 -13   2   95.50    3.25
   2 -13  -2    4.28    0.83
   1 -13  -2    3.52    0.79
   0 -13  -2   25.75    1.62
  -1 -13  -2    9.51    1.06
  -2 -13  -2  175.11    5.26
  -3 -13  -2   19.31    1.21
  -3 -13  -2   24.50    1.50
  -4 -13  -2  559.66   13.58
  -6 -13  -2  362.11    8.74
  -5 -14   2   49.34    1.71
  -4 -14   2    0.17    0.35
  -3 -14   2   37.96    1.55
   2 -14  -2    0.60    0.46
  -2 -14   2    1.07    0.48
   1 -14  -2   97.85    3.10
   0 -14  -2    9.69    0.85
  -1 -14  -2   37.54    1.65
  -2 -14  -2    0.32    0.42
  -3 -14  -2   28.05    1.27
 -17   0   3   -0.32    0.84
 -16   0   3    0.43    0.55
 -15   0   3    0.34    0.69
 -14   0   3    0.08    0.82
 -13   0   3    2.39    3.89
 -13   0   3   -0.30    1.15
 -12   0   3   -0.60    1.45
 -12   0   3    0.99    3.20
 -11   0   3    0.28    1.27
 -11   0   3   -0.08    2.39
 -10   0   3    0.68    1.72
 -10   0   3   -0.25    1.54
  -9   0   3    1.04    1.38
  -9   0   3    0.46    0.81
  -9   0   3    0.23    1.43
  -8   0   3    0.74    0.70
  -8   0   3    0.20    1.17
  -7   0   3    0.70    1.28
  -7   0   3    0.52    0.62
   7   0  -3    0.56    0.86
  -6   0   3    0.45    0.57
   6   0  -3    0.12    0.77
  -5   0   3    0.93    0.56
   5   0  -3    1.25    0.91
   4   0  -3    0.44    0.96
   3   0  -3    0.44    1.04
  -2   0   3    0.79    0.77
   2   0  -3    0.55    1.04
  -1   0   3   -0.07    0.68
   0   0   3    1.25    0.70
   0   0  -3    0.42    0.95
   1   0   3    1.40    0.72
  -1   0  -3    0.59    0.89
  -2   0  -3    0.95    0.84
  -3   0  -3    0.41    0.61
  -3   0  -3    1.38    0.81
  -4   0  -3    0.68    0.56
  -4   0  -3    0.42    0.61
  -5   0  -3    0.09    0.55
  -6   0  -3    0.13    0.57
  -6   0  -3    0.51    0.61
  -7   0  -3    0.79    0.66
  -7   0  -3    0.19    0.54
  -7   0  -3   -0.07    0.67
  -7   0  -3    0.21    0.75
  -8   0  -3   -0.08    0.66
  -8   0  -3    0.20    0.69
  -8   0  -3   -0.15    0.74
  -8   0  -3    0.53    0.69
  -9   0  -3    0.62    0.71
  -9   0  -3    1.17    0.80
  -9   0  -3    1.50    1.05
  -9   0  -3    0.79    0.77
 -10   0  -3    0.50    0.89
 -10   0  -3    1.75    0.90
 -10   0  -3    0.16    0.77
 -10   0  -3    0.82    0.69
 -11   0  -3    1.04    0.92
 -11   0  -3    0.23    0.88
 -11   0  -3    1.04    0.94
 -12   0  -3    0.29    0.93
 -12   0  -3   -0.05    0.62
 -12   0  -3    0.13    0.73
 -13   0  -3    0.18    0.77
 -13   0  -3   -0.75    0.76
 -14   0  -3    0.67    0.60
 -14   0  -3    0.04    0.55
 -17  -1   3   31.03    1.67
 -16   1   3  226.54    6.53
 -16  -1   3  224.34    6.84
 -16  -1   3  222.67    6.37
 -15  -1   3    5.17    3.72
 -15   1   3    8.06    4.04
 -15  -1   3    3.30    0.91
 -14  -1   3  129.74    5.89
 -14  -1   3  130.60    4.86
 -13  -1   3    2.70    3.18
 -13   1   3    3.25    1.65
 -13  -1   3    3.53    1.71
 -12  -1   3  130.88    5.32
 -12  -1   3  143.80    8.49
 -11  -1   3  439.69   11.98
 -11  -1   3  435.74   16.38
 -10  -1   3  247.55    7.56
 -10  -1   3  242.64   10.93
 -10  -1   3  253.43    7.46
  -9  -1   3  748.71   22.65
  -9   1   3  739.85   18.63
  -9  -1   3  740.66   18.47
  -9  -1   3  777.57   18.80
  -9  -1   3  750.24   18.36
  -8  -1   3 1151.84   26.72
  -8  -1   3 1172.69   30.51
  -8   1   3 1115.06   26.54
   8  -1  -3 1093.33   27.70
  -7  -1   3 1070.61   25.22
   7  -1  -3 1046.52   26.73
  -7  -1   3 1127.40   28.79
  -6  -1   3 1547.32   35.21
   6  -1  -3 1610.11   37.22
   5  -1  -3  245.02    8.14
   5   1  -3  222.54    8.02
  -5  -1   3  240.89    6.49
   4  -1  -3  761.23   19.98
   4   1  -3  771.85   20.18
  -3   1   3   17.94    1.77
   3  -1  -3   22.32    2.15
   3   1  -3   19.27    2.14
  -2   1   3   25.43    2.05
   2  -1  -3   25.54    2.28
   2   1  -3   27.06    2.51
  -1   1   3  132.94    5.04
   0   1   3  279.78    8.49
   0  -1   3  282.56    7.74
   0   1   3  271.51    7.70
   0  -1  -3  269.44    8.87
   0   1  -3  299.94    9.32
   1  -1   3  908.31   21.94
   1   1   3  924.30   21.97
  -1  -1  -3  953.70   23.44
  -1   1  -3  961.53   23.61
   2  -1   3   22.79    1.52
   2   1   3   22.06    1.48
  -2  -1  -3   20.76    1.89
  -2   1  -3   25.01    2.10
   3   1   3 1570.99   37.51
  -3  -1  -3 1648.55   38.70
  -3   1  -3 1629.99   37.68
  -3  -1  -3 1683.22   38.63
  -3   1  -3 1685.07   38.56
  -4   1  -3    4.72    0.76
  -4  -1  -3    5.12    1.08
  -4  -1  -3    5.24    1.02
  -5  -1  -3 1510.86   36.46
  -5  -1  -3 1507.33   35.50
  -5  -1  -3 1552.83   38.14
  -6  -1  -3  120.39    4.19
  -6   1  -3  110.94    3.94
  -6  -1  -3  105.91    4.92
  -6  -1  -3  112.67    4.06
  -6   1  -3  115.89    4.10
  -6   1  -3  114.06    4.01
  -6  -1  -3  115.63    6.17
  -7   1  -3 2041.87   46.55
  -7   1  -3 1947.73   47.11
  -7  -1  -3 2054.47   47.16
  -7  -1  -3 2078.20   46.71
  -7   1  -3 2003.09   46.85
  -7  -1  -3 2086.03   46.96
  -7   1  -3 2118.72   46.99
  -7  -1  -3 2113.69   47.19
  -8  -1  -3   94.72    3.74
  -8  -1  -3   89.37    3.61
  -8   1  -3   96.28    3.55
  -8   1  -3   89.85    3.70
  -8  -1  -3   96.51    3.91
  -8  -1  -3   93.21    6.08
  -8   1  -3   92.90    3.74
  -8  -1  -3   89.91    3.90
  -9  -1  -3 1457.50   33.27
  -9   1  -3 1432.15   33.28
  -9  -1  -3 1435.00   33.15
  -9  -1  -3 1419.32   33.46
  -9   1  -3 1350.36   32.72
  -9   1  -3 1434.32   33.25
  -9  -1  -3 1398.47   33.39
 -10  -1  -3    4.82    1.14
 -10  -1  -3    3.85    0.95
 -10   1  -3    4.58    1.01
 -10  -1  -3    6.44    1.23
 -10  -1  -3    3.25    0.99
 -11  -1  -3  317.09    8.97
 -11  -1  -3  315.10    8.97
 -11  -1  -3  317.24    8.84
 -11   1  -3  284.63    8.11
 -11   1  -3  318.87    8.84
 -11  -1  -3  301.50    8.67
 -12   1  -3  181.65    5.78
 -12  -1  -3  190.01    5.99
 -12  -1  -3  187.04    5.86
 -12  -1  -3  189.23    6.01
 -13   1  -3  126.79    4.08
 -13  -1  -3  133.13    4.31
 -13  -1  -3  131.41    4.32
 -14   1  -3  290.95    7.71
 -14  -1  -3  305.78    7.88
 -17  -2   3  112.79    3.34
 -16  -2   3   52.00    3.29
 -16   2   3   53.47    2.37
 -16   2   3   49.44    2.21
 -16  -2   3   50.85    2.21
 -15   2   3  178.97    5.67
 -15  -2   3  177.29    5.63
 -15   2   3  180.93    6.19
 -15  -2   3  181.35    6.47
 -14  -2   3   14.94    3.23
 -14   2   3   11.89    4.50
 -14   2   3   10.49    1.29
 -14  -2   3   10.76    1.36
 -13  -2   3  522.95   13.85
 -13   2   3  517.42   14.61
 -12   2   3  322.04   10.12
 -12  -2   3  314.28    9.27
 -12   2   3  301.88   13.24
 -12  -2   3  296.57   13.15
 -11  -2   3  554.74   14.45
 -11  -2   3  542.93   18.99
 -11   2   3  520.80   18.84
 -11   2   3  547.78   15.05
 -11  -2   3  567.77   14.39
 -10   2   3  316.69    9.73
 -10  -2   3  327.71    9.14
 -10   2   3  309.64   12.80
 -10  -2   3  307.26   12.69
 -10  -2   3  325.25    9.06
  -9   2   3  761.17   19.62
  -9   2   3  774.17   23.59
  -9  -2   3  771.79   23.42
  -9  -2   3  781.02   19.33
  -9   2   3  813.03   19.73
  -9  -2   3  796.00   19.60
  -9  -2   3  819.53   19.31
  -8   2   3  555.66   17.50
  -8  -2   3  530.12   17.26
  -8  -2   3  557.82   13.92
  -8   2   3  569.83   14.21
  -8  -2   3  567.11   14.17
  -8  -2   3  539.96   13.81
  -7   2   3  181.55    7.91
  -7  -2   3  185.59    8.03
  -7   2   3  178.07    5.59
  -7  -2   3  184.25    5.62
   7  -2  -3  195.27    6.98
  -6   2   3  665.05   16.36
  -6  -2   3  679.62   16.34
   6  -2  -3  708.75   18.37
  -5  -2   3 1020.90   24.26
  -5   2   3 1066.34   24.36
   5  -2  -3 1097.64   26.59
   4  -2  -3  926.56   23.67
  -3   2   3  570.62   15.87
   3  -2  -3  600.41   16.25
   3   2  -3  615.98   16.78
  -2   2   3 1055.45   25.81
   2   2  -3 1022.99   26.71
  -1   2   3  786.19   18.54
  -1   2   3  640.14   17.43
   0   2   3 1045.32   25.47
   0   2  -3 1090.31   26.92
   1   2   3  124.27    4.58
  -2  -2  -3  306.10    9.51
   2   2   3  291.71    8.67
  -2  -2  -3  301.20    9.39
  -3  -2  -3   97.53    4.49
  -3   2  -3   84.67    3.08
   3   2   3   98.98    4.05
  -3  -2  -3   95.96    4.28
  -4  -2  -3  765.34   20.43
  -4  -2  -3  767.19   19.62
  -5  -2  -3   51.85    3.38
  -5  -2  -3   47.34    2.70
  -5   2  -3   51.47    3.74
  -5  -2  -3   47.22    3.59
  -6  -2  -3   60.27    2.69
  -6  -2  -3   64.08    2.58
  -6  -2  -3   60.46    3.82
  -6  -2  -3   63.23    2.81
  -6   2  -3   60.10    4.36
  -6  -2  -3   57.28    4.28
  -6   2  -3   60.37    2.77
  -7  -2  -3  112.69    4.24
  -7   2  -3  112.13    4.26
  -7  -2  -3  114.05    4.30
  -7  -2  -3  111.63    3.96
  -7   2  -3  114.95    4.04
  -7  -2  -3  107.46    4.08
  -7  -2  -3  111.69    4.00
  -7   2  -3  114.93    6.62
  -7  -2  -3  116.28    6.57
  -8  -2  -3   19.42    1.51
  -8   2  -3   17.13    1.47
  -8  -2  -3   18.05    2.74
  -8   2  -3   13.80    2.49
  -8  -2  -3   18.83    1.68
  -9  -2  -3   12.35    1.46
  -9   2  -3   14.50    1.57
  -9  -2  -3   12.50    1.49
  -9  -2  -3   13.78    1.39
  -9   2  -3   12.57    1.35
 -10  -2  -3   15.30    1.54
 -10  -2  -3   13.93    1.57
 -10  -2  -3   12.76    1.38
 -10   2  -3   17.26    1.67
 -10   2  -3   15.31    1.47
 -11  -2  -3    0.36    0.78
 -11  -2  -3    1.38    0.82
 -11   2  -3    0.77    0.87
 -11   2  -3    0.85    0.71
 -11  -2  -3    0.30    0.85
 -12   2  -3   31.19    1.84
 -12  -2  -3   31.82    1.95
 -12   2  -3   34.86    2.14
 -12  -2  -3   33.20    2.07
 -13  -2  -3    0.18    0.56
 -13  -2  -3    0.05    0.69
 -13   2  -3    0.82    0.71
 -17  -3   3  140.85    3.75
 -16  -3   3   14.48    2.19
 -15   3   3  153.66    4.81
 -15  -3   3  149.69    5.44
 -15   3   3  140.27    4.69
 -15  -3   3  142.96    4.69
 -14   3   3   54.13    3.65
 -14  -3   3   54.75    3.66
 -14   3   3   53.66    2.69
 -14  -3   3   49.93    2.60
 -13   3   3   58.28    4.78
 -13  -3   3   54.79    3.45
 -12   3   3  216.66    8.10
 -12  -3   3  211.92    6.89
 -12   3   3  210.55   10.38
 -12  -3   3  196.39   10.20
 -12  -3   3  221.53    6.83
 -11   3   3   35.63    4.68
 -11  -3   3   39.53    2.51
 -11   3   3   37.49    4.13
 -11  -3   3   34.94    4.02
 -11  -3   3   39.42    2.35
 -10   3   3  194.22    7.31
 -10  -3   3  194.70    6.25
 -10   3   3  210.57    9.71
 -10  -3   3  201.50    9.57
 -10  -3   3  195.05    6.22
  -9  -3   3  235.57    6.92
  -9   3   3  231.87   10.11
  -9  -3   3  223.94    9.90
  -9   3   3  237.92    7.61
  -9  -3   3  223.01    6.84
  -8   3   3  446.97   11.89
  -8   3   3  454.84   15.01
  -8  -3   3  423.38   11.44
  -8   3   3  475.08   11.83
  -8  -3   3  447.41   11.71
  -8  -3   3  443.83   14.83
  -8  -3   3  436.63   11.44
  -7   3   3  727.60   20.91
  -7  -3   3  725.85   20.78
  -7  -3   3  723.01   17.66
   7  -3  -3  680.32   19.31
  -7   3   3  755.48   17.76
  -6  -3   3  347.57    9.03
  -6   3   3  357.51   11.78
  -6   3   3  335.28    9.01
   6  -3  -3  355.03   11.06
  -6  -3   3  335.81   11.41
  -5  -3   3  481.23   12.23
  -5   3   3  511.70   12.33
   5  -3  -3  519.19   14.59
  -4   3   3   24.84    1.40
  -4  -3   3   25.87    1.41
  -3   3   3 1457.93   35.35
  -2   3   3   80.92    4.15
  -2   3   3   77.48    3.88
  -1   3   3  851.68   21.80
  -1   3   3  830.21   21.20
   0   3   3   19.69    1.86
   1   3   3   20.30    1.94
  -2  -3  -3 1177.45   28.51
   2   3   3 1077.64   27.39
  -3  -3  -3    5.37    1.30
   3   3   3    6.58    1.25
  -4  -3  -3 2497.09   58.18
  -4  -3  -3 2430.13   57.07
  -5  -3  -3    2.49    1.10
  -5  -3  -3    2.62    0.72
  -5  -3  -3    3.26    0.89
  -5   3  -3    2.06    1.06
  -5  -3  -3    2.18    1.02
  -6  -3  -3 1461.75   33.85
  -6  -3  -3 1443.66   33.87
  -6   3  -3 1461.93   33.89
  -6  -3  -3 1397.81   36.66
  -6  -3  -3 1479.28   34.02
  -6  -3  -3 1454.45   33.62
  -6   3  -3 1502.36   37.88
  -6  -3  -3 1461.95   37.69
  -7  -3  -3   93.40    3.78
  -7  -3  -3   96.49    5.87
  -7  -3  -3   90.58    3.74
  -7  -3  -3   96.13    3.53
  -7   3  -3   92.40    3.44
  -7  -3  -3   92.50    3.85
  -7  -3  -3   95.12    3.67
  -7   3  -3   95.12    5.95
  -7   3  -3   91.39    3.78
  -7  -3  -3   93.45    3.84
  -8   3  -3 1338.40   31.77
  -8  -3  -3 1406.17   31.52
  -8  -3  -3 1320.18   31.88
  -8   3  -3 1368.49   31.35
  -8  -3  -3 1319.46   31.99
  -8  -3  -3 1296.01   31.61
  -8  -3  -3 1375.37   31.80
  -9  -3  -3   79.15    3.60
  -9   3  -3   84.89    3.64
  -9  -3  -3   83.14    3.62
  -9  -3  -3   84.15    3.47
  -9   3  -3   82.57    3.33
  -9  -3  -3   76.72    3.62
 -10  -3  -3  337.58    9.85
 -10  -3  -3  348.86    9.64
 -10  -3  -3  355.76   10.03
 -10  -3  -3  362.02    9.85
 -10   3  -3  330.74    9.33
 -10   3  -3  361.56    9.90
 -11   3  -3  229.84    6.96
 -11  -3  -3  225.08    6.90
 -11  -3  -3  224.07    6.98
 -11  -3  -3  236.15    6.86
 -11   3  -3  216.60    6.47
 -11  -3  -3  232.65    7.13
 -12  -3  -3  293.40    8.29
 -12  -3  -3  295.75    8.14
 -12  -3  -3  303.89    8.43
 -12   3  -3  298.97    8.30
 -12  -3  -3  293.23    8.23
 -13  -3  -3  255.00    6.84
 -13  -3  -3  249.00    6.81
 -13  -3  -3  260.96    7.08
 -13   3  -3  254.59    6.94
 -13  -3  -3  245.70    6.88
 -14  -3  -3   40.91    1.61
 -14  -3  -3   48.69    1.91
 -16  -4   3   57.09    2.41
 -15  -4   3   47.47    3.00
 -15   4   3   47.97    2.12
 -15  -4   3   45.29    2.06
 -14  -4   3  247.14    7.28
 -14   4   3  235.13    6.94
 -14  -4   3  239.84    6.95
 -13  -4   3   44.62    2.11
 -13  -4   3   52.16    3.10
 -13   4   3   49.18    3.03
 -13   4   3   44.80    2.46
 -13  -4   3   42.97    2.38
 -13  -4   3   47.93    2.51
 -12  -4   3  118.31    4.45
 -12   4   3  112.35    5.00
 -12   4   3   92.49    6.46
 -12  -4   3  110.90    4.27
 -12  -4   3   96.19    6.49
 -11  -4   3   19.36    1.80
 -11   4   3   18.95    3.23
 -11   4   3   22.37    3.19
 -11  -4   3   16.69    2.73
 -11  -4   3   18.97    1.39
 -11  -4   3   19.67    1.72
 -10   4   3  110.38    5.01
 -10  -4   3  105.70    4.05
 -10   4   3  108.79    6.76
 -10  -4   3   96.41    6.38
 -10  -4   3   99.21    3.65
 -10  -4   3  105.82    4.08
  -9  -4   3    8.06    1.09
  -9  -4   3    5.76    1.76
  -9  -4   3    7.43    1.09
  -9   4   3    6.97    2.13
  -9   4   3    9.51    2.16
  -9  -4   3    6.74    0.89
  -8   4   3   13.41    1.80
  -8   4   3   13.22    1.32
  -8  -4   3    9.01    1.17
  -8  -4   3   12.23    1.23
  -8   4   3   16.42    2.47
  -8  -4   3   12.24    2.11
  -8  -4   3   11.88    1.20
  -7   4   3   73.65    4.78
  -7  -4   3   73.50    4.69
  -7   4   3   77.23    3.25
  -7  -4   3   80.46    3.14
  -7   4   3   78.06    3.13
   7  -4  -3   70.38    4.18
  -6  -4   3   49.24    3.61
  -6   4   3   45.61    2.15
  -6  -4   3   43.30    2.08
  -6   4   3   48.10    3.55
  -5  -4   3  274.41    7.38
  -5   4   3  279.59    7.46
   5   4  -3  292.36    9.77
  -4  -4   3  270.41    7.11
   4   4  -3  269.05    9.43
  -4   4   3  272.68    7.16
   3   4  -3   56.35    3.60
  -2   4   3   52.86    3.50
  -2   4   3   46.19    3.17
  -1   4   3 1338.41   33.93
  -1   4   3 1400.87   33.55
   0   4  -3  513.99   14.74
   0   4   3  508.64   14.50
   1   4   3  275.74    9.17
   2   4   3   77.35    4.21
  -3  -4  -3  277.98    9.93
   3   4   3  276.28    9.56
  -4  -4  -3   84.86    4.89
  -4   4  -3   74.30    4.44
  -4  -4  -3   76.17    4.38
  -5   4  -3   62.97    2.72
  -5  -4  -3   58.68    2.64
  -5  -4  -3   63.10    4.29
  -5  -4  -3   60.78    2.64
  -5  -4  -3   58.25    3.51
  -5   4  -3   66.17    4.39
  -5  -4  -3   64.91    4.24
  -6   4  -3  137.97    4.73
  -6  -4  -3  132.02    4.67
  -6  -4  -3  132.96    6.78
  -6  -4  -3  137.76    4.88
  -6  -4  -3  136.49    4.66
  -6   4  -3  140.23    7.03
  -6  -4  -3  143.68    6.96
  -6  -4  -3  136.45    4.83
  -7  -4  -3   29.09    2.06
  -7  -4  -3   30.10    2.16
  -7   4  -3   33.99    3.41
  -7  -4  -3   27.46    3.07
  -7  -4  -3   29.22    1.94
  -8  -4  -3   40.96    2.22
  -8  -4  -3   38.85    2.30
  -8  -4  -3   38.84    2.39
  -8  -4  -3   40.13    2.49
  -8   4  -3   37.68    2.28
  -9  -4  -3  239.62    7.06
  -9   4  -3  249.20    7.52
  -9  -4  -3  253.13    7.50
  -9  -4  -3  256.37    7.41
  -9  -4  -3  252.03    7.76
 -10  -4  -3  321.70    9.01
 -10  -4  -3  333.33    9.38
 -10  -4  -3  332.58    9.00
 -10   4  -3  338.28    9.14
 -10  -4  -3  329.96    9.34
 -11  -4  -3  106.68    4.18
 -11  -4  -3  110.70    3.98
 -11  -4  -3  109.02    4.19
 -11   4  -3  111.43    4.05
 -11  -4  -3  111.04    4.02
 -12  -4  -3   77.53    3.15
 -12  -4  -3   73.41    2.90
 -12  -4  -3   75.26    3.12
 -12   4  -3   76.71    2.97
 -12  -4  -3   72.08    2.90
 -13  -4  -3  114.74    3.60
 -13  -4  -3  123.47    3.85
 -13  -4  -3  113.63    3.68
 -14  -4  -3   41.19    1.62
 -14  -4  -3   53.10    1.83
 -16  -5   3   19.18    1.08
 -15  -5   3   12.51    1.74
 -14  -5   3   -0.14    0.44
 -14  -5   3   -0.10    1.79
 -14   5   3    0.05    0.52
 -13  -5   3    0.29    0.54
 -13  -5   3    0.54    1.61
 -13  -5   3    1.15    0.86
 -13   5   3    1.06    0.70
 -13  -5   3    0.81    0.62
 -12  -5   3   84.01    3.54
 -12   5   3   83.62    3.40
 -12  -5   3   79.85    3.34
 -12  -5   3   82.18    3.49
 -11   5   3  211.21    6.85
 -11  -5   3  229.87    6.73
 -11  -5   3  205.35    6.21
 -11  -5   3  222.95    6.72
 -10   5   3  135.22    5.05
 -10  -5   3  133.34    4.69
 -10   5   3  119.98    7.09
 -10  -5   3  125.42    4.42
 -10  -5   3  139.10    4.79
  -9   5   3  129.51    4.82
  -9  -5   3  125.40    4.45
  -9   5   3  127.86    6.94
  -9  -5   3  127.28    6.88
  -9  -5   3  125.51    4.43
  -9  -5   3  132.76    4.60
  -8   5   3  305.78   11.76
  -8  -5   3  335.59   11.98
  -8  -5   3  335.78    8.90
  -8  -5   3  335.88    9.12
  -7   5   3  607.28   17.82
  -7  -5   3  584.35   17.58
  -7   5   3  625.21   14.80
  -7  -5   3  564.30   14.62
   7  -5  -3  587.97   17.19
  -7  -5   3  594.56   14.37
  -7  -5   3  581.37   14.61
  -6   5   3  318.69    8.55
   6   5  -3  341.85   11.25
  -6   5   3  308.59   10.86
  -6  -5   3  312.14   10.78
  -6  -5   3  321.23    8.68
  -5   5   3  595.84   16.93
   5   5  -3  616.46   17.45
  -5   5   3  582.02   14.29
  -5  -5   3  586.59   16.66
  -4   5   3   24.14    1.38
  -4   5   3   24.29    2.48
   4   5  -3   24.45    2.60
   3   5  -3  431.77   13.09
  -3   5   3  441.96   12.98
  -2   5   3   45.05    3.31
  -1   5   3   68.76    4.18
   0  -5  -3  213.86    8.60
   0   5   3  221.41    8.38
  -1   5  -3   30.10    2.68
   1   5   3   36.56    3.02
   2   5   3  830.75   22.64
  -3  -5  -3  175.65    5.66
   3   5   3  190.38    7.96
  -3  -5  -3  194.70    5.66
  -3   5  -3  186.98    7.18
  -3  -5  -3  189.97    7.16
  -4  -5  -3 1130.49   26.19
  -4  -5  -3 1127.34   30.42
  -4  -5  -3 1135.04   26.80
   4   5   3 1130.37   29.95
  -4  -5  -3 1126.36   26.57
  -4   5  -3 1173.88   29.36
  -4  -5  -3 1133.88   29.13
  -5  -5  -3  208.03    9.09
  -5  -5  -3  210.86    6.52
  -5   5  -3  203.09    6.07
  -5  -5  -3  202.91    6.20
  -5  -5  -3  199.56    5.80
  -5   5  -3  221.76    8.61
  -5  -5  -3  212.34    8.45
  -5  -5  -3  200.75    5.84
  -6  -5  -3 1623.02   37.31
  -6  -5  -3 1673.82   42.35
  -6  -5  -3 1637.18   38.12
  -6   5  -3 1671.41   41.46
  -6  -5  -3 1594.14   41.00
  -6  -5  -3 1641.77   37.90
  -6  -5  -3 1639.53   37.39
  -7   5  -3  168.25    5.34
  -7  -5  -3  156.49    5.70
  -7  -5  -3  165.26    5.64
  -7  -5  -3  163.09    5.55
  -7  -5  -3  156.64    5.21
  -8  -5  -3  377.49   10.11
  -8  -5  -3  379.22   10.10
  -8   5  -3  370.16   10.12
  -8  -5  -3  370.70   10.63
  -8  -5  -3  380.19   10.55
  -8  -5  -3  366.18   10.49
  -9   5  -3   15.33    1.40
  -9  -5  -3   17.45    1.49
  -9  -5  -3   17.73    1.69
  -9  -5  -3   17.15    1.47
  -9  -5  -3   17.13    1.67
  -9  -5  -3   17.04    1.75
 -10  -5  -3  395.39   10.09
 -10  -5  -3  378.47   10.38
 -10   5  -3  376.53    9.97
 -10  -5  -3  380.28    9.95
 -11  -5  -3   15.19    1.29
 -11  -5  -3   15.88    1.48
 -11   5  -3   15.57    1.27
 -11  -5  -3   17.27    1.29
 -12  -5  -3   62.73    2.43
 -12  -5  -3   64.84    2.66
 -13  -5  -3  115.22    3.38
 -13  -5  -3  119.23    3.60
 -13  -5  -3  114.81    3.58
 -15  -6   3    8.18    0.95
 -14   6   3  520.66   11.87
 -14  -6   3  493.44   11.90
 -13  -6   3    4.40    0.88
 -13   6   3    6.10    0.89
 -13  -6   3    4.44    0.71
 -13  -6   3    4.63    1.33
 -12  -6   3  554.35   13.85
 -12  -6   3  540.83   13.61
 -12  -6   3  574.31   14.13
 -11  -6   3    0.28    0.80
 -11  -6   3    0.56    0.71
 -11  -6   3    0.29    0.58
 -10  -6   3  779.75   19.28
 -10  -6   3  807.55   19.50
  -9  -6   3  174.73    5.70
  -9  -6   3  186.34    5.84
  -8  -6   3  246.73    7.20
  -8  -6   3  260.67    7.43
   7   6  -3  350.04   11.93
  -7  -6   3  335.39    8.87
  -7  -6   3  328.76    9.06
   6   6  -3  209.17    8.79
  -6  -6   3  212.82    6.42
   5   6  -3  411.12   13.69
  -5  -6   3  415.09   10.80
   4   6  -3    0.91    1.12
  -4   6   3    1.03    1.11
   4  -6  -3    0.95    0.67
   3  -6  -3 1799.41   45.75
   3   6  -3 1808.46   45.63
  -3   6   3 1923.23   45.61
   3  -6  -3 1847.40   42.16
   2  -6  -3  105.56    5.78
  -2   6   3  110.92    5.72
   2  -6  -3  100.90    3.71
   1  -6  -3  630.59   18.45
  -1   6   3  644.86   18.58
  -1   6   3  667.13   18.39
   0  -6  -3   30.13    1.72
   0  -6  -3   37.42    3.36
   0   6  -3   33.52    3.06
   0   6   3   27.57    2.84
   0  -6  -3   32.17    1.85
  -1  -6  -3  689.09   16.83
  -1   6  -3  720.11   19.98
  -1  -6  -3  730.98   20.79
  -1  -6  -3  677.52   17.05
   1   6   3  731.05   20.40
  -1  -6  -3  709.04   17.12
  -2  -6  -3   12.87    1.09
  -2  -6  -3   12.75    1.25
  -2   6  -3   13.21    1.90
   2   6   3   13.29    2.09
  -3  -6  -3  504.58   12.78
  -3  -6  -3  518.72   13.29
   3   6   3  537.42   16.60
  -4  -6  -3    5.50    0.80
  -4  -6  -3    3.64    0.97
   4   6   3    5.65    1.69
  -4  -6  -3    3.99    0.86
  -5  -6  -3  154.94    4.95
  -5  -6  -3  160.20    8.16
  -5  -6  -3  160.78    5.58
  -5  -6  -3  159.53    5.40
   5   6   3  141.10    7.67
  -5  -6  -3  164.00    5.41
  -5  -6  -3  168.03    5.02
  -6  -6  -3   69.39    2.92
  -6  -6  -3   68.96    5.20
  -6  -6  -3   70.04    3.40
  -6  -6  -3   77.68    3.44
   6   6   3   69.98    5.30
  -6  -6  -3   74.64    3.34
  -6  -6  -3   72.06    2.93
  -7  -6  -3  154.79    5.56
  -7  -6  -3  156.37    5.40
   7   6   3  154.92    8.08
  -7  -6  -3  145.79    5.33
  -7  -6  -3  156.27    4.90
  -7  -6  -3  142.21    4.82
  -8  -6  -3    8.20    1.34
  -8  -6  -3    8.30    1.19
  -8  -6  -3    6.00    1.24
  -9  -6  -3  105.36    3.83
  -9  -6  -3  107.22    4.29
  -9  -6  -3  100.49    4.05
  -9  -6  -3  102.20    4.23
 -10  -6  -3   71.91    2.89
 -10  -6  -3   71.28    3.07
 -10  -6  -3   70.40    3.20
 -10  -6  -3   63.23    2.71
 -11  -6  -3  114.91    4.14
 -11  -6  -3  118.27    3.80
 -11  -6  -3  114.70    3.98
 -12  -6  -3   45.93    2.08
 -12  -6  -3   40.50    1.73
 -12  -6  -3   41.01    1.89
 -13  -6  -3   68.27    2.20
 -14   7   3   23.70    1.22
 -13   7   3   54.76    2.28
 -13  -7   3   54.30    2.27
 -12  -7   3    0.51    0.64
  12  -7  -3    0.45    0.59
 -12  -7   3    0.23    0.50
  11  -7  -3   38.36    2.26
 -11  -7   3   34.03    1.93
 -11  -7   3   37.77    2.12
  10  -7  -3   50.12    2.86
 -10  -7   3   47.83    2.45
 -10  -7   3   48.06    2.50
  -9  -7   3  112.47    4.21
  -9  -7   3  118.34    4.25
   8  -7  -3  172.57    6.10
  -8  -7   3  166.80    5.39
  -8  -7   3  170.23    5.48
   7   7  -3  420.38   14.15
   7  -7  -3  428.32   11.59
  -7  -7   3  405.15   10.78
  -7  -7   3  422.55   11.21
  -7  -7   3  412.40   10.93
   6   7  -3  502.44   16.30
   6  -7  -3  514.29   13.34
  -6  -7   3  492.05   12.96
   5   7  -3   29.01    3.19
   5  -7  -3   23.08    2.94
   5  -7  -3   26.64    1.90
  -5  -7   3   28.05    1.83
   4  -7  -3  322.37   12.53
   4   7  -3  323.23   12.44
  -4   7   3  368.82   12.47
   4  -7  -3  375.18    9.73
  -4  -7   3  336.60    9.32
   3  -7  -3    4.00    1.51
   3   7  -3    2.90    1.36
  -3   7   3    3.97    1.27
   3  -7  -3    2.40    0.75
   2  -7  -3  140.28    7.17
   2  -7  -3  136.74    4.61
  -2   7   3  152.32    7.31
  -2   7   3  148.30    7.26
   2  -7  -3  138.49    4.71
   1  -7  -3   53.49    2.55
   1  -7  -3   59.00    4.45
   1   7  -3   51.99    4.14
   1  -7  -3   52.98    2.52
  -1   7   3   53.35    4.28
  -1   7   3   53.76    4.26
   1  -7  -3   54.51    2.59
   0  -7  -3  151.86    5.01
   0  -7  -3  159.50    7.86
   0   7  -3  158.38    7.53
   0  -7  -3  148.25    5.03
   0   7   3  151.82    7.46
   0  -7  -3  163.25    5.23
  -1  -7  -3  244.02    7.03
  -1  -7  -3  250.16   10.41
  -1   7  -3  246.02    9.68
  -1  -7  -3  238.90    7.14
   1   7   3  233.03    9.94
  -1  -7  -3  244.96    7.16
  -2  -7  -3   10.13    1.13
  -2  -7  -3    8.73    1.21
  -2   7  -3   13.16    2.06
  -2  -7  -3    8.60    2.02
  -2  -7  -3    9.41    1.15
   2   7   3    9.10    2.00
  -3  -7  -3  750.91   18.45
  -3  -7  -3  783.71   18.99
   3   7   3  791.20   23.14
  -3  -7  -3  746.22   18.73
  -4  -7  -3   97.26    3.65
  -4  -7  -3  101.49    4.10
  -4  -7  -3   99.84    3.82
   4   7   3   89.52    6.00
  -4  -7  -3   93.78    3.48
  -5  -7  -3  314.77    8.84
  -5  -7  -3  326.48    9.52
  -5  -7  -3  329.85    9.22
   5   7   3  328.64   12.91
  -5  -7  -3  329.54    8.78
  -6  -7  -3  147.32    4.97
  -6  -7  -3  156.82    5.33
   6   7   3  149.59    8.22
  -6  -7  -3  156.29    5.45
  -6  -7  -3  152.20    4.86
  -7  -7  -3  709.24   18.06
  -7  -7  -3  715.91   17.70
   7   7   3  678.62   22.03
  -7  -7  -3  708.30   17.99
  -7  -7  -3  709.61   17.21
  -7  -7  -3  706.02   17.41
  -8  -7  -3    5.89    0.89
  -8  -7  -3    7.33    1.29
  -8  -7  -3    8.40    1.15
  -9  -7  -3  408.38   11.06
  -9  -7  -3  397.26   10.45
  -9  -7  -3  415.04   10.76
  -9  -7  -3  406.18   11.09
 -10  -7  -3  120.68    4.23
 -10  -7  -3  110.35    3.70
 -10  -7  -3  114.99    3.90
 -10  -7  -3  108.59    3.72
 -11  -7  -3  288.72    7.72
 -11  -7  -3  275.40    7.19
 -11  -7  -3  282.39    7.37
 -12  -7  -3  119.61    3.38
 -14   8   3   79.70    2.38
 -13  -8   3  293.95    7.65
 -13   8   3  345.07    8.13
 -12   8   3  121.67    3.91
 -12  -8   3  113.66    3.70
  11  -8  -3  361.12    9.71
 -11  -8   3  366.66    9.62
 -11  -8   3  393.46    9.83
  10  -8  -3   14.43    1.47
 -10  -8   3   18.02    1.45
 -10  -8   3   18.31    1.46
   9  -8  -3  240.30    7.72
  -9  -8   3  245.94    7.30
  -9  -8   3  251.59    7.17
  -8  -8   3    5.17    0.95
   8  -8  -3    6.89    1.32
  -8  -8   3    4.85    0.95
  -7  -8   3    3.07    0.93
   7   8  -3    4.08    1.48
   7  -8  -3    3.11    1.09
  -7  -8   3    3.18    0.81
   6  -8  -3  265.69    7.91
   6   8  -3  259.06   10.72
  -6  -8   3  245.16    7.52
   5  -8  -3   89.02    3.80
  -5  -8   3   89.62    3.67
   4  -8  -3  843.09   25.78
   4   8  -3  883.66   25.95
  -4   8   3  890.35   25.15
   4  -8  -3  920.59   21.84
  -4  -8   3  892.23   21.52
   3  -8  -3   31.72    3.59
  -3   8   3   38.15    3.62
   3  -8  -3   36.90    2.25
   3  -8  -3   36.89    2.22
   2  -8  -3  465.82   16.14
  -2   8   3  445.95   15.57
   2  -8  -3  460.31   12.24
  -2   8   3  470.94   16.04
   2  -8  -3  473.60   12.34
   1  -8  -3  291.69   11.72
   1   8  -3  280.39   11.31
   1  -8  -3  256.84    7.88
  -1   8   3  283.43   11.49
  -1   8   3  290.73   11.57
   1  -8  -3  305.01    8.40
   0  -8  -3  719.24   18.18
   0  -8  -3  725.10   22.71
   0   8  -3  752.97   22.25
   0  -8  -3  746.07   18.25
   0   8   3  767.87   22.83
   0   8   3  731.57   22.52
   0  -8  -3  746.89   18.37
  -1  -8  -3   82.46    3.43
  -1  -8  -3   85.23    5.93
  -1   8  -3   88.90    5.58
  -1  -8  -3   85.93    3.59
   1   8   3   84.70    5.85
  -1  -8  -3   88.77    3.63
  -2  -8  -3  352.53    9.87
  -2  -8  -3  388.83   14.35
  -2   8  -3  385.74   13.17
  -2  -8  -3  356.12   10.14
   2   8   3  388.03   14.23
  -2  -8  -3  373.74   10.20
  -3  -8  -3   10.42    1.23
  -3  -8  -3    7.13    2.08
  -3  -8  -3   10.37    1.33
  -3  -8  -3   10.51    1.33
   3   8   3   10.69    2.30
  -4  -8  -3  135.05    4.70
  -4  -8  -3  135.80    5.05
   4   8   3  125.86    7.56
  -4  -8  -3  141.54    4.99
  -4  -8  -3  130.03    4.39
  -5  -8  -3   28.59    1.84
  -5  -8  -3   26.74    2.06
  -5  -8  -3   28.48    1.87
   5   8   3   26.11    3.64
  -5  -8  -3   28.91    2.12
  -5  -8  -3   27.48    1.68
  -6  -8  -3   11.06    1.26
  -6  -8  -3    9.04    1.15
  -6  -8  -3    9.87    1.39
   6   8   3   12.24    2.51
  -6  -8  -3   10.90    1.08
  -7  -8  -3   54.02    2.82
  -7  -8  -3   52.60    2.51
  -7  -8  -3   49.74    2.26
  -7  -8  -3   51.35    2.51
  -8  -8  -3    6.90    1.15
  -8  -8  -3    7.78    0.99
  -8  -8  -3    6.63    0.91
  -8  -8  -3    7.39    1.26
  -9  -8  -3  151.68    4.63
  -9  -8  -3  154.44    4.74
 -10  -8  -3  278.72    7.34
 -10  -8  -3  278.83    7.46
 -11  -8  -3  249.40    6.61
 -12  -8  -3  141.83    3.75
 -13   9   3    2.13    0.49
 -12   9   3    0.51    0.58
 -12  -9   3   -0.28    0.49
 -11  -9   3   10.50    0.96
 -11  -9   3   10.44    0.96
 -10   9   3   76.69    3.13
  10  -9  -3   70.95    2.98
 -10  -9   3   68.19    2.83
 -10  -9   3   69.42    2.72
   9  -9  -3   15.97    1.55
   9  -9  -3   13.48    1.32
  -9  -9   3   13.81    1.35
  -9  -9   3   11.78    1.13
   8  -9  -3   17.92    1.69
  -8  -9   3   15.60    1.42
  -8  -9   3   17.47    1.36
   7  -9  -3   33.52    2.26
  -7  -9   3   35.12    2.02
   6   9  -3  228.18   10.45
   6  -9  -3  281.79    8.32
   6  -9  -3  260.39    7.91
  -6  -9   3  248.20    7.36
  -6  -9   3  260.21    7.62
   5  -9  -3  154.32    5.53
   5  -9  -3  156.52    5.42
  -5  -9   3  154.18    5.16
   4   9  -3   68.51    5.28
   4  -9  -3   77.10    3.48
   4  -9  -3   79.44    3.48
  -4  -9   3   68.61    3.08
   3  -9  -3    4.86    1.11
  -3   9   3    7.06    1.69
   3  -9  -3    8.07    1.22
   2  -9  -3   92.22    3.86
   2  -9  -3   80.60    5.90
  -2   9   3   95.00    5.97
   2  -9  -3   93.03    3.83
   1   9  -3    5.64    1.88
  -1   9   3    4.61    1.79
  -1   9   3    5.59    1.85
   1  -9  -3    7.39    1.16
   1  -9  -3    5.70    1.84
   0  -9  -3   31.41    3.67
   0  -9  -3   29.01    1.96
   0   9  -3   31.16    3.46
   0   9   3   29.44    3.68
   0   9   3   29.14    3.56
   0  -9  -3   29.71    2.07
  -1  -9  -3   39.74    2.33
  -1  -9  -3   42.54    4.29
  -1   9  -3   35.53    3.70
  -1  -9  -3   39.25    2.34
   1   9   3   42.69    4.28
   1   9   3   46.11    4.40
  -1  -9  -3   39.91    2.38
  -2  -9  -3    6.77    1.11
  -2  -9  -3    5.77    1.90
  -2  -9  -3    5.64    1.08
  -2   9  -3    5.90    1.61
   2   9   3    4.54    1.82
  -2  -9  -3    5.09    1.12
  -3  -9  -3  253.84    7.58
  -3  -9  -3  245.40   11.33
  -3  -9  -3  256.62    7.82
   3   9   3  247.16   11.39
  -3  -9  -3  258.50    7.81
  -4  -9  -3   28.37    1.90
   4   9   3   28.78    3.64
  -4  -9  -3   31.82    2.22
  -5  -9  -3  153.17    5.16
  -5  -9  -3  150.86    5.33
  -5  -9  -3  161.91    5.58
  -5  -9  -3  156.79    4.77
  -6  -9  -3   11.17    1.34
  -6  -9  -3   10.76    1.37
  -6  -9  -3    8.08    0.90
  -6  -9  -3    8.28    1.12
  -7  -9  -3   54.69    2.63
  -7  -9  -3   48.72    2.73
  -7  -9  -3   49.66    2.42
  -8  -9  -3   27.73    1.76
  -9  -9  -3   88.29    3.18
 -10  -9  -3    0.51    0.41
 -10  -9  -3    0.47    0.47
 -11  -9  -3   14.85    0.81
 -11  10   3  444.51   10.36
 -11 -10   3  392.98    9.87
  10 -10  -3   -0.08    0.47
 -10  10   3    0.56    0.68
 -10 -10   3    0.21    0.48
   9 -10  -3  129.29    4.38
  -9  10   3  134.79    4.46
  -9 -10   3  123.44    4.25
  -8  10   3   32.10    2.00
   8 -10  -3   31.08    2.11
  -8 -10   3   29.23    1.83
  -7  10   3   92.39    3.76
   7 -10  -3   90.74    4.06
   7 -10  -3   89.83    3.81
  -7 -10   3   89.64    3.45
  -6  10   3  120.04    4.62
   6 -10  -3  129.48    4.97
   6 -10  -3  129.84    4.79
  -6 -10   3  122.66    4.30
   5 -10  -3    4.68    1.18
  -5 -10   3    5.98    0.98
  -5  10   3    3.56    0.96
   5 -10  -3    7.12    1.17
   4 -10  -3  338.06    9.44
   4 -10  -3  324.04    9.19
   3 -10  -3    4.62    1.11
  -3  10   3    5.91    1.52
   3 -10  -3    5.43    1.06
   2 -10  -3  928.40   22.14
   2 -10  -3  942.26   22.09
   1 -10  -3  208.06    6.62
   1  10  -3  192.57    9.52
  -1  10   3  189.64    9.13
   1 -10  -3  216.65    6.64
   0 -10  -3  762.56   24.57
   0  10  -3  783.93   23.91
   0  10   3  848.64   24.60
   0  10   3  819.38   24.79
   0 -10  -3  798.46   19.80
  -1 -10  -3  108.40    7.23
  -1  10  -3  124.65    7.01
   1  10   3  112.16    7.14
   1  10   3  124.93    7.49
  -1 -10  -3  124.36    4.61
  -2 -10  -3  497.31   12.86
   2  10   3  457.35   17.03
  -2 -10  -3  485.13   12.93
  -3 -10  -3  154.15    5.23
  -3 -10  -3  153.48    5.39
  -4 -10  -3  217.55    6.59
  -4 -10  -3  218.02    6.84
  -4 -10  -3  213.96    6.53
  -5 -10  -3   18.46    1.53
  -5 -10  -3   15.04    1.37
  -5 -10  -3   14.74    1.52
  -6 -10  -3    0.88    0.70
  -6 -10  -3    1.46    0.66
  -6 -10  -3    1.15    0.84
  -7 -10  -3   94.45    3.64
  -7 -10  -3   92.00    3.26
  -7 -10  -3   86.37    3.20
  -8 -10  -3  100.37    3.27
  -9 -10  -3  126.38    3.65
  -9 -10  -3  122.16    3.53
 -11  11   3   10.56    0.77
 -10  11   3    0.94    0.52
 -10 -11   3    0.70    0.37
   9 -11  -3    6.33    0.73
  -9  11   3    5.24    0.80
  -9 -11   3    5.06    0.72
  -8  11   3   30.61    1.79
   8 -11  -3   33.04    1.80
  -8 -11   3   29.86    1.70
  -7  11   3   67.98    2.87
   7 -11  -3   63.75    2.93
  -7 -11   3   60.11    2.62
  -6  11   3    1.40    0.79
  -6 -11   3    0.60    0.63
  -5  11   3   43.52    2.35
   5 -11  -3   53.66    2.76
   5 -11  -3   47.12    2.42
  -5 -11   3   49.78    2.35
  -4  11   3    8.72    1.06
   4 -11  -3    9.49    1.32
   4 -11  -3    8.77    1.16
   3 -11  -3   38.30    2.33
   3 -11  -3   36.40    2.15
   2 -11  -3    2.30    0.97
   2 -11  -3    2.01    0.81
   1 -11  -3   83.80    3.59
   1 -11  -3   88.20    3.58
   0 -11  -3   54.46    2.79
   0 -11  -3   62.48    2.89
  -1 -11  -3    2.11    0.81
  -2 -11  -3  296.71    8.50
  -3 -11  -3   29.95    1.91
  -3 -11  -3   28.92    1.94
  -4 -11  -3  105.81    3.81
  -4 -11  -3  101.56    3.90
  -5 -11  -3   54.13    2.58
  -5 -11  -3   50.76    2.39
  -6 -11  -3  165.93    5.07
  -6 -11  -3  151.03    4.73
  -7 -11  -3   41.97    1.74
  -9 -12   3    3.71    0.45
   8 -12  -3  100.79    2.96
  -8  12   3   95.88    3.13
  -7  12   3   11.53    1.02
   7 -12  -3   13.68    1.05
  -7 -12   3   12.50    1.04
  -6  12   3    0.58    0.61
   6 -12  -3    1.92    0.77
  -6 -12   3    1.05    0.57
   5 -12  -3  162.86    5.20
  -5 -12   3  152.59    4.69
   4 -12  -3    3.29    0.89
  -4 -12   3    2.83    0.72
   3 -12  -3  288.47    8.09
   3 -12  -3  319.29    8.55
   2 -12  -3  136.34    4.54
   2 -12  -3  120.92    4.21
   1 -12  -3  558.02   14.06
   1 -12  -3  554.68   13.87
   0 -12  -3  190.17    5.88
   0 -12  -3  194.02    5.82
  -1 -12  -3  541.22   13.52
  -1 -12  -3  535.15   13.45
  -2 -12  -3  145.37    4.67
  -3 -12  -3  137.82    4.44
  -3 -12  -3  140.92    4.52
  -4 -12  -3   -0.14    0.60
  -4 -12  -3    1.35    0.60
  -5 -12  -3   32.96    1.69
  -5 -12  -3   30.85    1.59
  -6 -12  -3    0.52    0.38
  -7 -13   3    1.01    0.32
   6 -13  -3    8.73    0.67
  -6 -13   3    9.95    0.79
   5 -13  -3    5.43    0.74
  -5 -13   3    6.47    0.70
   4 -13  -3    0.80    0.67
  -4 -13   3    1.23    0.49
   3 -13  -3   -0.05    0.58
  -3 -13   3    0.74    0.53
   2 -13  -3    5.03    0.83
   1 -13  -3   13.25    1.12
   0 -13  -3    0.36    0.55
   0 -13  -3    1.33    0.50
  -1 -13  -3    1.07    0.56
  -1 -13  -3   -0.07    0.46
  -2 -13  -3    0.96    0.52
  -3 -13  -3   15.86    1.00
  -4 -13  -3    3.81    0.55
  -2 -14   3  131.82    3.52
  -1 -14   3  238.54    5.83
   1 -14  -3  233.40    5.94
   0 -14   3   61.82    1.93
   0 -14  -3   58.17    2.00
 -16   0   4    1.62    0.83
 -16   0   4    2.80    0.61
 -15   0   4  454.38   11.93
 -15   0   4  472.13   11.91
 -14   0   4   34.18    3.13
 -13   0   4 1600.01   37.48
 -12   0   4    0.30    1.15
 -12   0   4    1.99    2.54
 -11   0   4 1260.97   35.91
 -11   0   4 1273.15   30.43
 -10   0   4   31.13    3.88
 -10   0   4   36.95    2.93
 -10   0   4   33.68    2.41
  -9   0   4  969.64   27.72
  -9   0   4  935.12   22.91
  -9   0   4  951.10   23.24
  -8   0   4    1.35    1.00
  -8   0   4    0.23    1.21
  -8   0   4    1.37    0.84
  -7   0   4  768.61   18.90
  -7   0   4  795.92   19.19
   7   0  -4  797.94   21.70
  -6   0   4 1055.71   25.17
   6   0  -4 1100.24   28.13
   5   0  -4  199.01    8.06
   4   0  -4 1070.50   28.02
   3   0  -4    3.14    1.48
   2   0  -4 1975.72   48.00
  -1   0   4    7.13    1.21
   0   0   4 1464.99   34.97
   0   0  -4 1459.28   36.41
   1   0   4  299.48    9.42
  -1   0  -4  317.43   10.52
   2   0   4 1486.31   35.16
  -2   0  -4 1420.25   35.89
  -3   0  -4   46.48    2.96
   3   0   4   41.83    2.89
  -3   0  -4   48.53    3.29
  -4   0  -4  115.04    4.91
  -4   0  -4  104.73    3.86
  -4   0  -4  104.62    4.84
  -5   0  -4   17.27    1.46
  -5   0  -4   16.67    1.26
  -5   0  -4   18.67    1.54
  -6   0  -4   61.72    2.80
  -6   0  -4   64.55    2.77
  -6   0  -4   63.34    3.08
  -6   0  -4   68.35    3.10
  -7   0  -4   15.18    1.37
  -7   0  -4   14.87    1.35
  -7   0  -4   14.93    1.62
  -7   0  -4   17.65    1.65
  -8   0  -4  138.61    5.35
  -8   0  -4  149.29    5.19
  -8   0  -4  133.57    4.69
  -9   0  -4  126.17    4.46
  -9   0  -4  132.70    5.05
  -9   0  -4  142.17    4.97
 -10   0  -4  528.26   13.20
 -10   0  -4  511.63   12.93
 -11   0  -4  111.22    4.15
 -11   0  -4  111.86    4.05
 -12   0  -4  477.88   12.17
 -12   0  -4  506.99   12.47
 -13   0  -4   27.13    1.33
 -13   0  -4   30.29    1.55
 -16  -1   4   22.89    1.48
 -16   1   4   19.37    1.29
 -16  -1   4   19.80    1.27
 -15  -1   4   76.11    3.44
 -15  -1   4   74.73    3.09
 -14  -1   4  135.17    5.19
 -13   1   4   22.93    3.12
 -13  -1   4   23.13    3.14
 -12   1   4    3.85    1.92
 -12   1   4    4.85    2.40
 -12  -1   4    4.04    2.57
 -12  -1   4    2.08    1.69
 -11  -1   4   25.68    2.72
 -11   1   4   20.69    2.69
 -11  -1   4   23.41    3.38
 -10   1   4   20.19    2.42
 -10  -1   4   19.06    1.86
 -10  -1   4   14.68    2.18
 -10  -1   4   21.96    3.25
  -9   1   4    1.61    1.38
  -9  -1   4   -0.36    1.23
  -9  -1   4    0.59    0.83
  -9  -1   4    0.25    1.30
  -8  -1   4   33.40    3.65
  -8   1   4   36.30    2.29
  -8  -1   4   36.91    2.30
   8  -1  -4   39.73    3.18
  -8  -1   4   41.97    2.35
  -7  -1   4   32.00    2.01
  -7   1   4   31.37    1.93
  -7  -1   4   32.91    1.94
   7  -1  -4   31.46    2.95
  -6  -1   4  278.97    8.09
   6   1  -4  290.34   10.39
   5  -1  -4   14.19    2.05
   5   1  -4   13.62    2.11
  -5  -1   4   13.23    1.20
   4  -1  -4  132.09    6.19
   4   1  -4  121.18    6.09
   3  -1  -4  135.15    6.33
   3   1  -4  146.24    6.72
  -2   1   4  665.45   17.78
   2  -1  -4  639.15   18.57
   2   1  -4  661.82   19.11
  -1   1   4  159.02    6.24
   0   1   4   32.13    2.63
   0  -1  -4   35.09    2.97
   0   1  -4   32.46    3.00
   1   1   4  697.75   18.56
   1  -1   4  669.06   17.23
  -1  -1  -4  655.10   18.79
  -1   1  -4  718.82   19.22
   2   1   4   64.77    3.89
  -2  -1  -4   70.69    4.06
  -2   1  -4   67.48    3.99
  -3  -1  -4 1293.52   32.37
  -3   1  -4 1288.05   31.30
  -3  -1  -4 1343.05   32.57
  -4  -1  -4  103.88    5.05
  -4   1  -4  102.31    3.79
  -4  -1  -4  106.41    3.85
  -4  -1  -4  100.48    3.64
  -4  -1  -4  115.16    5.16
  -5  -1  -4  544.83   15.96
  -5   1  -4  557.64   14.34
  -5  -1  -4  565.61   14.36
  -5  -1  -4  563.66   14.10
  -5   1  -4  575.62   14.31
  -5  -1  -4  578.08   17.98
  -6  -1  -4   90.99    3.36
  -6  -1  -4   88.58    3.75
  -6  -1  -4   86.30    3.46
  -6   1  -4   87.95    3.65
  -6  -1  -4   95.92    3.86
  -6  -1  -4   93.86    6.04
  -7  -1  -4  427.88   11.11
  -7  -1  -4  405.86   11.72
  -7   1  -4  411.22   11.40
  -7  -1  -4  444.28   11.79
  -7  -1  -4  445.21   15.80
  -7  -1  -4  433.48   11.46
  -8  -1  -4  230.03    6.90
  -8  -1  -4  214.13    7.24
  -8  -1  -4  213.31    6.60
  -8   1  -4  224.07    6.89
  -8  -1  -4  229.20    7.19
  -8  -1  -4  213.59   10.25
  -9  -1  -4  195.46    6.22
  -9  -1  -4  206.92    6.67
  -9   1  -4  193.74    6.29
  -9  -1  -4  205.23    6.60
  -9  -1  -4  200.05    6.17
 -10  -1  -4  212.48    6.35
 -10  -1  -4  214.99    6.77
 -10   1  -4  210.90    6.46
 -10  -1  -4  204.03    6.62
 -11  -1  -4  194.86    6.03
 -11   1  -4  188.09    5.74
 -11  -1  -4  191.01    5.98
 -12   1  -4  182.65    5.32
 -12  -1  -4  184.75    5.56
 -13  -1  -4   94.95    3.10
 -13  -1  -4  104.10    3.28
 -16  -2   4  267.28    6.94
 -15   2   4   75.10    2.96
 -15  -2   4   69.79    3.17
 -15   2   4   71.76    2.90
 -15  -2   4   72.22    2.90
  15  -2  -4   65.59    2.54
 -14  -2   4   97.40    4.19
 -13  -2   4  263.50    8.08
 -12  -2   4  540.17   14.01
 -12   2   4  534.11   18.87
 -12  -2   4  499.11   18.48
 -11  -2   4  183.43    6.25
 -11   2   4  183.93    9.59
 -11  -2   4  178.94    9.48
 -10  -2   4  132.22    4.92
 -10   2   4  118.67    7.50
 -10  -2   4  135.97    7.89
 -10   2   4  136.68    5.20
 -10  -2   4  137.20    5.21
  -9   2   4    6.27    1.32
  -9  -2   4    6.78    1.34
  -9   2   4    9.33    1.29
  -9  -2   4    7.84    1.27
  -9   2   4    7.61    2.01
  -9  -2   4    8.00    2.13
  -8  -2   4    8.61    1.16
  -8   2   4    5.96    1.13
  -8  -2   4    4.32    1.03
  -8   2   4    4.58    1.01
  -8   2   4    6.35    1.96
  -8  -2   4    8.57    1.99
   8  -2  -4    4.87    1.30
  -7   2   4  110.46    4.13
  -7   2   4  108.82    4.02
  -7  -2   4  105.77    3.80
  -7  -2   4  109.98    4.06
   7  -2  -4  106.84    5.57
  -6   2   4   59.15    2.69
  -6  -2   4   53.48    2.54
  -6   2   4   54.31    2.53
   6  -2  -4   55.65    3.88
   5  -2  -4  252.89    9.56
  -5   2   4  260.67    7.29
  -5  -2   4  258.06    7.29
   4  -2  -4  947.51   25.41
  -3   2   4 2392.91   57.81
   3  -2  -4 2544.29   58.78
   3   2  -4 2452.08   59.21
  -2   2   4 1122.66   28.38
   2  -2  -4 1126.28   29.25
   2   2  -4 1108.82   29.82
  -1   2   4  971.68   25.21
   0   2   4  809.60   20.83
   0  -2  -4  706.23   20.78
   1   2   4  792.79   21.19
   1   2   4  771.58   19.73
  -1  -2  -4  779.49   21.38
  -2  -2  -4  516.95   15.39
  -2  -2  -4  515.46   15.37
  -3  -2  -4  191.23    7.52
  -3   2  -4  179.55    5.51
  -3  -2  -4  181.19    5.50
  -3  -2  -4  185.36    7.30
  -4  -2  -4   15.62    2.03
  -4  -2  -4   14.82    1.30
  -4  -2  -4   16.93    1.37
  -4   2  -4   17.59    1.40
  -4  -2  -4   17.81    2.00
  -5  -2  -4  101.93    5.28
  -5   2  -4   98.40    3.81
  -5  -2  -4   94.72    3.74
  -5  -2  -4   98.37    3.71
  -5   2  -4   89.77    3.56
  -5   2  -4  103.92    6.13
  -5  -2  -4  101.72    6.00
  -6  -2  -4   31.79    1.78
  -6  -2  -4   28.48    2.81
  -6   2  -4   34.61    2.18
  -6  -2  -4   32.38    2.15
  -6  -2  -4   32.99    2.08
  -6   2  -4   36.14    2.08
  -6   2  -4   38.60    3.84
  -6  -2  -4   33.12    3.52
  -7  -2  -4  276.20    8.15
  -7   2  -4  274.93    8.30
  -7  -2  -4  270.36    8.29
  -7  -2  -4  271.01    7.61
  -7  -2  -4  262.35    7.91
  -7   2  -4  269.61    7.83
  -7   2  -4  275.21   11.71
  -7  -2  -4  274.90   11.62
  -8  -2  -4   59.21    2.69
  -8  -2  -4   60.49    3.02
  -8   2  -4   57.14    2.79
  -8   2  -4   62.05    5.11
  -8  -2  -4   58.04    4.93
  -9  -2  -4   26.75    1.95
  -9  -2  -4   27.02    2.07
  -9   2  -4   30.55    2.19
  -9  -2  -4   28.85    1.81
  -9   2  -4   27.21    1.82
 -10  -2  -4  234.01    6.93
 -10   2  -4  242.31    7.25
 -10  -2  -4  243.69    7.21
 -10  -2  -4  226.29    6.70
 -10   2  -4  223.14    6.68
 -10  -2  -4  225.00    7.11
 -11  -2  -4  433.04   11.33
 -11   2  -4  456.03   11.65
 -11  -2  -4  452.65   11.61
 -11  -2  -4  438.65   11.64
 -12  -2  -4  345.47    9.24
 -12   2  -4  357.27    9.27
 -12  -2  -4  359.20    9.26
 -13  -2  -4  229.59    6.04
 -13   2  -4  232.60    6.05
 -13  -2  -4  224.81    6.02
 -16  -3   4    6.11    0.81
 -15  -3   4    0.44    1.42
 -15   3   4    0.85    0.56
 -15  -3   4    0.49    0.54
  14  -3  -4    1.72    0.65
 -14  -3   4    2.53    1.92
 -14   3   4    1.36    0.73
 -14  -3   4    0.76    0.75
 -13   3   4    8.50    1.54
 -13  -3   4    9.18    1.88
  13  -3  -4    7.92    1.13
 -12   3   4    7.29    1.60
 -12  -3   4    6.95    1.64
 -11   3   4   -0.09    1.27
 -11   3   4    0.28    1.07
 -11  -3   4    0.27    1.18
 -11  -3   4    0.38    1.23
 -10   3   4   16.69    1.88
 -10  -3   4   16.76    1.69
 -10  -3   4   21.87    3.04
 -10   3   4   15.64    2.78
  -9  -3   4    1.38    0.71
  -9  -3   4    0.76    0.87
  -9   3   4    1.60    0.91
  -9  -3   4    0.90    0.78
  -9   3   4    2.27    1.38
  -9  -3   4    1.98    1.41
  -8   3   4   64.16    4.90
  -8  -3   4   69.98    5.07
  -8   3   4   67.02    3.09
  -8  -3   4   61.67    2.77
  -8  -3   4   61.52    2.99
   8  -3  -4   55.45    3.94
  -8  -3   4   58.78    2.67
  -7   3   4    1.51    1.25
  -7  -3   4    1.30    0.64
  -7  -3   4    1.89    1.30
  -7   3   4    0.57    0.76
  -7  -3   4    0.83    0.68
   7  -3  -4    0.86    1.05
  -6   3   4  268.68    7.48
  -6  -3   4  243.67    7.30
   6  -3  -4  258.53    9.80
  -5   3   4    1.19    0.69
  -5  -3   4    1.10    0.62
   5  -3  -4    1.58    1.24
  -4   3   4  852.70   22.89
   4  -3  -4  821.88   23.13
  -3   3   4  187.00    7.67
   3  -3  -4  199.81    8.21
  -2   3   4  237.34    8.81
   2  -3  -4  236.61    9.23
  -1   3   4  417.72   13.24
   0   3   4   73.54    4.48
   0   3   4   69.47    3.81
   0  -3  -4   76.19    4.71
   1   3   4  184.55    6.82
  -1  -3  -4  179.18    7.66
  -2  -3  -4   94.11    5.25
  -2  -3  -4   88.15    3.39
   2   3   4   88.24    4.38
  -2  -3  -4  102.65    5.37
  -3  -3  -4  491.97   15.19
  -3   3  -4  467.32   12.14
  -3  -3  -4  478.84   12.15
  -3  -3  -4  484.00   12.34
  -3  -3  -4  496.72   14.79
  -4  -3  -4    0.54    0.92
  -4  -3  -4    2.34    0.72
  -4   3  -4    0.95    0.65
  -4  -3  -4   -0.37    0.61
  -4  -3  -4    0.80    0.53
  -4  -3  -4    1.31    0.86
  -5   3  -4  628.51   15.82
  -5  -3  -4  613.75   15.77
  -5  -3  -4  634.16   18.76
  -5  -3  -4  641.66   15.88
  -5  -3  -4  615.92   15.43
  -5   3  -4  644.32   19.57
  -5  -3  -4  653.77   19.53
  -6   3  -4  105.90    4.15
  -6  -3  -4   96.97    4.03
  -6  -3  -4   96.72    5.59
  -6  -3  -4  105.53    4.13
  -6  -3  -4  106.76    4.26
  -6  -3  -4  101.40    3.77
  -6   3  -4   95.06    6.25
  -6  -3  -4  115.96    6.65
  -7  -3  -4  165.26    5.81
  -7  -3  -4  164.45    5.76
  -7  -3  -4  168.23    5.21
  -7  -3  -4  162.27    5.63
  -7   3  -4  177.58    5.90
  -7  -3  -4  172.08    5.95
  -7  -3  -4  156.60    5.34
  -7   3  -4  160.33    8.50
  -7  -3  -4  172.79    8.62
  -8  -3  -4   70.99    3.29
  -8  -3  -4   68.32    2.90
  -8  -3  -4   65.25    3.26
  -8   3  -4   64.33    2.81
  -8  -3  -4   76.17    3.52
  -8   3  -4   72.67    3.33
  -9  -3  -4  104.67    4.09
  -9   3  -4  101.61    4.04
  -9  -3  -4  100.64    4.02
  -9  -3  -4  105.17    3.71
  -9   3  -4   89.56    3.47
  -9  -3  -4   95.65    4.07
 -10   3  -4   44.18    2.41
 -10  -3  -4   40.47    2.28
 -10  -3  -4   41.63    2.09
 -10  -3  -4   43.58    2.39
 -10  -3  -4   37.91    2.37
 -11   3  -4  244.03    6.82
 -11  -3  -4  231.56    6.72
 -11  -3  -4  228.00    6.70
 -12   3  -4  105.03    3.45
 -12  -3  -4  101.66    3.42
 -13  -3  -4   59.38    2.01
 -15  -4   4    0.40    0.95
 -14  -4   4  580.94   13.91
 -14   4   4  548.65   13.90
 -14  -4   4  559.39   13.88
 -13  -4   4    3.00    1.36
 -12  -4   4  759.44   18.36
  12  -4  -4  732.69   18.35
  11  -4  -4   12.20    1.44
 -11  -4   4   11.88    1.37
 -11   4   4   13.33    2.51
 -11  -4   4    7.51    1.99
 -10  -4   4  968.14   23.11
 -10   4   4  938.60   27.96
 -10  -4   4  964.29   27.90
  10  -4  -4  917.80   23.42
 -10  -4   4  990.80   23.09
   9  -4  -4   29.74    2.19
  -9  -4   4   32.78    1.96
  -9   4   4   27.61    3.44
  -9  -4   4   29.22    3.44
  -9   4   4   28.55    2.13
  -9  -4   4   28.93    2.09
  -9  -4   4   29.75    1.90
   8  -4  -4  518.18   13.24
  -8   4   4  517.40   16.88
  -8  -4   4  460.11   16.16
  -8   4   4  516.09   13.13
  -8  -4   4  496.94   12.99
   8  -4  -4  477.08   15.21
  -8  -4   4  466.44   12.47
  -7   4   4  224.70    9.73
  -7  -4   4  211.50    9.27
  -7   4   4  230.65    6.79
  -7  -4   4  214.74    6.63
   7  -4  -4  205.33    6.70
   7  -4  -4  230.49    9.09
  -6   4   4  168.90    5.36
  -6  -4   4  157.66    5.21
   6  -4  -4  167.41    5.48
   6  -4  -4  173.30    7.75
  -5  -4   4  463.64   11.87
  -5   4   4  481.53   12.03
   5  -4  -4  485.34   15.28
   5  -4  -4  447.58   12.02
   4  -4  -4   36.56    2.04
  -4   4   4   39.66    3.37
   4  -4  -4   42.66    3.64
  -4   4   4   37.41    1.97
  -4  -4   4   37.98    1.94
  -3   4   4 2421.49   57.97
  -2   4   4  104.18    5.61
  -1   4   4 1401.15   35.67
  -1   4   4 1383.68   34.63
   0   4   4  117.64    6.29
   0   4   4  128.08    5.80
  -1  -4  -4  801.55   19.86
   1   4   4  817.41   22.13
  -1  -4  -4  853.75   19.83
  -2  -4  -4  118.45    6.30
   2   4   4  110.92    5.51
  -2  -4  -4  115.66    3.97
  -3  -4  -4  493.43   15.40
  -3   4  -4  457.43   11.70
  -3  -4  -4  442.11   11.60
   3   4   4  439.80   13.92
  -3  -4  -4  459.08   11.66
  -3  -4  -4  477.61   14.68
  -4  -4  -4    2.67    1.35
  -4  -4  -4    2.27    0.84
  -4   4  -4    2.23    0.72
  -4  -4  -4    2.68    0.71
  -4  -4  -4    3.27    0.76
  -4  -4  -4    1.95    1.11
  -4   4  -4    2.94    1.21
  -4  -4  -4    4.39    1.44
  -5   4  -4   14.67    1.44
  -5  -4  -4   13.15    1.34
  -5  -4  -4   14.72    2.32
  -5  -4  -4   15.07    1.49
  -5  -4  -4   15.75    1.36
  -5   4  -4   13.35    2.32
  -5  -4  -4   12.77    2.18
  -6   4  -4  117.85    4.47
  -6  -4  -4  105.84    4.29
  -6  -4  -4  113.46    6.44
  -6  -4  -4  119.01    4.59
  -6  -4  -4  116.41    4.62
  -6  -4  -4  121.00    4.30
  -6   4  -4  121.71    6.91
  -6  -4  -4  121.14    6.80
  -7  -4  -4   20.74    1.84
  -7  -4  -4   21.24    1.45
  -7  -4  -4   19.15    1.76
  -7  -4  -4   21.46    1.95
  -7  -4  -4   19.20    1.64
  -7   4  -4   19.64    2.78
  -7  -4  -4   15.88    2.48
  -8  -4  -4    3.09    1.06
  -8  -4  -4    4.42    1.01
  -8  -4  -4    3.26    0.75
  -8   4  -4    4.01    0.94
  -8  -4  -4    2.95    1.07
  -8  -4  -4    3.83    0.89
  -9   4  -4  161.76    5.25
  -9  -4  -4  159.31    5.20
  -9  -4  -4  145.06    4.75
  -9  -4  -4  149.42    5.34
  -9  -4  -4  152.91    5.41
 -10   4  -4   64.82    2.85
 -10  -4  -4   68.56    2.88
 -10  -4  -4   68.56    3.04
 -10  -4  -4   66.68    2.64
 -10  -4  -4   69.53    3.13
 -11  -4  -4  406.10   10.48
 -11  -4  -4  407.04   10.56
 -11   4  -4  398.50   10.25
 -11  -4  -4  402.37   10.24
 -12   4  -4   61.34    2.26
 -12  -4  -4   62.44    2.25
 -13  -4  -4  151.90    4.11
 -15  -5   4   23.31    1.12
  15  -5  -4   20.90    1.15
 -14   5   4    1.48    0.53
 -14  -5   4    0.49    0.91
 -13  -5   4    3.75    1.01
 -13   5   4    6.32    0.89
 -12  -5   4    8.01    1.08
 -11  -5   4   90.77    3.56
 -11  -5   4   96.25    3.67
  10  -5  -4   38.38    2.34
 -10   5   4   37.21    3.79
 -10  -5   4   39.17    2.21
  -9   5   4  110.63    6.61
   9  -5  -4  103.78    4.38
  -9  -5   4  116.32    4.10
  -8   5   4  209.21    9.42
   8  -5  -4  212.62    6.86
  -8  -5   4  200.33    9.09
  -8   5   4  220.55    6.71
  -8  -5   4  211.11    6.59
   7  -5  -4  607.50   15.87
  -7  -5   4  622.37   18.91
  -7   5   4  657.43   15.80
  -7  -5   4  604.00   15.55
  -7   5   4  612.45   19.05
   7  -5  -4  650.13   19.16
  -6   5   4  124.04    6.65
  -6  -5   4  121.51    6.36
   6  -5  -4  127.99    4.57
  -6   5   4  127.39    4.40
  -6  -5   4  123.72    4.28
   6  -5  -4  118.33    6.50
  -5   5   4  656.16   15.91
  -5  -5   4  634.04   15.77
   5  -5  -4  639.68   16.15
   5  -5  -4  685.54   19.90
  -4   5   4   58.61    2.54
  -4  -5   4   58.78    2.48
   4  -5  -4   55.91    2.69
   4  -5  -4   60.06    2.78
   3  -5  -4  266.47    7.81
  -3   5   4  291.19    7.69
   2  -5  -4   81.57    3.30
  -2   5   4   90.86    5.46
   1  -5  -4   65.90    4.68
  -1   5   4   64.70    4.63
  -1   5   4   53.17    3.98
   1  -5  -4   59.13    2.64
   0  -5  -4  327.95    8.60
   0  -5  -4  326.33    9.04
   0   5   4  296.57   11.85
   0   5   4  355.95   11.64
   0  -5  -4  323.98    8.85
  -1  -5  -4   43.25    2.32
  -1  -5  -4   41.37    1.99
   1   5   4   41.30    3.39
  -1  -5  -4   47.54    2.34
  -2  -5  -4 1087.54   25.89
  -2  -5  -4 1119.77   30.57
  -2  -5  -4 1178.28   26.78
   2   5   4 1176.94   29.79
  -2  -5  -4 1102.83   26.37
  -3  -5  -4   75.51    5.33
  -3   5  -4   82.07    3.18
  -3  -5  -4   83.89    3.58
   3   5   4   82.47    5.03
  -3  -5  -4   89.21    3.42
  -3  -5  -4   84.05    5.22
  -3   5  -4   82.66    4.90
  -3  -5  -4   79.21    4.78
  -4   5  -4  621.25   16.07
  -4  -5  -4  679.50   20.53
   4   5   4  675.48   19.49
  -4  -5  -4  675.37   16.35
  -4  -5  -4  639.75   19.12
  -4   5  -4  660.09   19.53
  -4  -5  -4  648.39   19.27
  -5   5  -4   91.83    3.66
  -5  -5  -4   91.33    3.60
  -5  -5  -4   97.82    6.06
  -5  -5  -4   93.35    3.72
  -5   5  -4   80.54    5.37
  -5  -5  -4   83.89    5.43
  -6  -5  -4  587.08   19.06
  -6  -5  -4  616.71   15.67
  -6  -5  -4  625.71   15.70
  -6  -5  -4  602.59   15.24
  -6   5  -4  564.26   18.50
  -6  -5  -4  569.26   15.07
  -7  -5  -4    3.08    0.86
  -7  -5  -4    2.87    1.01
  -7  -5  -4    4.16    0.98
  -7   5  -4    4.14    0.94
  -8  -5  -4  643.17   16.12
  -8  -5  -4  633.64   15.76
  -8  -5  -4  673.32   16.78
  -8  -5  -4  667.99   16.49
  -8   5  -4  656.81   16.21
  -9   5  -4   43.64    2.20
  -9  -5  -4   45.67    2.22
  -9  -5  -4   44.02    2.49
 -10  -5  -4  507.92   12.54
 -10  -5  -4  490.70   12.43
 -11  -5  -4   95.37    3.42
 -11  -5  -4   96.31    3.41
 -12  -5  -4  192.94    5.26
 -14   6   4   57.46    2.03
  14  -6  -4   46.69    1.99
  13  -6  -4  187.21    5.65
 -11  -6   4  287.81    7.99
 -10  -6   4    7.80    1.12
  -9  -6   4   43.80    2.26
   8  -6  -4   44.58    2.54
   7  -6  -4   73.39    3.32
   7  -6  -4   67.70    4.89
   6  -6  -4    8.98    1.18
   6  -6  -4   12.46    1.43
   6  -6  -4    8.13    1.93
   5  -6  -4    2.31    0.73
   5  -6  -4    0.78    0.71
   4  -6  -4  274.28    8.08
  -4   6   4  277.27   11.00
   4  -6  -4  299.74    8.37
   3  -6  -4   30.38    1.94
   3  -6  -4   34.76    3.68
   3  -6  -4   30.07    1.98
   2  -6  -4  523.94   17.50
   2  -6  -4  532.40   13.60
   1  -6  -4  200.65    6.02
   1  -6  -4  223.36    9.59
   1  -6  -4  187.30    6.16
  -1   6   4  225.44    9.60
  -1   6   4  199.24    8.69
   0  -6  -4  422.12   15.10
   0  -6  -4  460.69   11.72
   0  -6  -4  424.69   11.25
   0   6   4  435.72   15.36
   0   6   4  433.45   14.58
  -1  -6  -4   81.06    3.21
  -1  -6  -4   86.11    3.61
  -1  -6  -4   87.47    3.53
  -2  -6  -4  374.92    9.95
  -2  -6  -4  392.67   10.63
   2   6   4  393.80   13.55
  -2  -6  -4  381.24   10.39
  -3  -6  -4  228.59    6.57
  -3  -6  -4  234.26   10.49
  -3  -6  -4  228.69    7.22
   3   6   4  219.34    9.61
  -3  -6  -4  239.12    7.09
  -4  -6  -4  127.95    4.27
  -4  -6  -4  123.52    7.34
  -4  -6  -4  131.87    4.99
   4   6   4  130.12    6.98
  -4  -6  -4  144.49    4.89
  -4  -6  -4  130.68    6.71
  -5  -6  -4   28.77    3.50
  -5  -6  -4   28.90    2.18
  -5  -6  -4   29.97    2.15
  -5  -6  -4   28.85    2.02
  -6  -6  -4   13.97    2.45
  -6  -6  -4   18.72    1.73
  -6  -6  -4   16.83    1.59
  -7  -6  -4   31.45    2.28
  -7  -6  -4   26.41    2.02
  -7  -6  -4   29.85    2.07
  -8  -6  -4   62.14    3.12
  -8  -6  -4   63.55    3.02
  -8  -6  -4   61.70    2.96
  -9  -6  -4  108.19    4.19
  -9  -6  -4  114.84    4.13
 -10  -6  -4  119.52    4.03
 -11  -6  -4   70.75    2.57
 -12  -6  -4  114.62    3.20
 -14   7   4    7.56    0.64
  14  -7  -4    4.68    0.50
 -13   7   4   15.47    1.13
  13  -7  -4   11.88    0.98
  12  -7  -4    9.38    1.10
  11  -7  -4  207.59    6.56
  10  -7  -4  233.60    7.24
 -10  -7   4  207.91    6.20
   9  -7  -4  254.80    7.97
  -9  -7   4  232.32    6.82
   8  -7  -4  135.60    5.17
  -8  -7   4  118.88    4.15
   7  -7  -4  332.08   12.81
  -7  -7   4  349.17    9.41
   6  -7  -4  292.31   11.76
  -6  -7   4  288.63    7.93
   5  -7  -4  546.62   19.40
   5  -7  -4  582.27   14.97
   4  -7  -4    1.60    1.31
  -4   7   4    0.22    1.17
   4  -7  -4    0.08    0.79
   3  -7  -4  145.38    8.01
   3  -7  -4  144.27    5.05
  -3   7   4  135.52    7.39
   3  -7  -4  148.56    5.12
   2  -7  -4    9.54    1.17
   2  -7  -4    6.21    1.89
   2  -7  -4   11.26    1.25
  -2   7   4    9.72    2.08
   2  -7  -4    8.71    1.17
   1  -7  -4    5.18    0.91
   1  -7  -4    4.96    1.78
   1  -7  -4    4.69    0.97
  -1   7   4    8.02    1.94
   1  -7  -4    6.00    1.08
   0  -7  -4  152.71    5.04
   0  -7  -4  162.68    8.37
   0  -7  -4  148.70    5.28
   0   7   4  144.54    7.62
  -1  -7  -4    4.72    0.83
  -1  -7  -4    3.61    1.62
  -1  -7  -4    3.66    1.04
   1   7   4    4.19    1.86
   1   7   4    2.50    1.38
  -2  -7  -4  330.98    8.96
  -2  -7  -4  336.76    9.52
  -3  -7  -4   55.67    2.57
  -3  -7  -4   55.12    2.95
  -3  -7  -4   61.20    2.92
  -4  -7  -4  632.45   15.85
  -4  -7  -4  674.81   21.32
  -4  -7  -4  652.20   16.81
  -4  -7  -4  661.18   16.56
   4   7   4  608.69   20.02
  -4  -7  -4  681.04   16.60
  -4  -7  -4  599.38   19.35
  -5  -7  -4   96.45    3.54
  -5  -7  -4   99.79    6.56
  -5  -7  -4   97.53    4.21
  -5  -7  -4  104.01    4.16
  -5  -7  -4  104.10    4.13
  -6  -7  -4  337.07    9.74
  -6  -7  -4  322.47    9.72
  -6  -7  -4  333.35    9.45
  -6  -7  -4  337.48    9.54
  -7  -7  -4  152.72    5.50
  -7  -7  -4  155.62    5.27
  -7  -7  -4  158.23    5.41
  -8  -7  -4  415.53   11.19
  -8  -7  -4  421.77   10.95
  -8  -7  -4  407.64   11.05
  -9  -7  -4    5.33    0.97
  -9  -7  -4    5.17    0.86
 -10  -7  -4   96.75    3.39
 -10  -7  -4   98.63    3.21
 -11  -7  -4    0.73    0.49
 -11  -7  -4    0.32    0.31
  13  -8  -4  279.90    7.46
 -13   8   4  355.14    7.86
  12  -8  -4    1.70    0.54
  11  -8  -4  304.93    8.31
  10  -8  -4   68.42    3.08
 -10  -8   4   57.56    2.36
   9  -8  -4   92.40    4.01
  -9  -8   4   86.36    3.28
   8  -8  -4  210.47    6.93
  -8  -8   4  199.12    5.99
   7  -8  -4   12.45    1.58
  -7  -8   4   14.19    1.22
   6  -8  -4  195.48    9.25
   6  -8  -4  218.20    6.87
  -6  -8   4  200.59    6.00
   5  -8  -4   13.85    1.56
   4  -8  -4  805.51   26.38
   4  -8  -4  872.11   21.60
  -4   8   4  860.51   25.58
   3  -8  -4    2.20    1.66
   3  -8  -4    1.67    0.78
  -3   8   4    0.95    1.27
   3  -8  -4    1.64    0.92
   2  -8  -4  331.77   13.41
   2  -8  -4  313.89    9.22
  -2   8   4  358.73   13.16
   2  -8  -4  328.68    9.33
   2  -8  -4  329.33    9.56
   1  -8  -4    2.14    0.86
   1  -8  -4    2.99    1.45
   1  -8  -4    2.57    0.80
  -1   8   4    1.55    1.51
  -1   8   4    1.95    1.42
   1  -8  -4    2.14    0.93
   0  -8  -4  321.90   13.39
   0  -8  -4  318.43    9.17
   0  -8  -4  330.91    9.50
   0   8   4  323.29   13.44
   0   8   4  365.19   13.42
   0  -8  -4  343.01    9.58
  -1  -8  -4   46.43    2.43
  -1  -8  -4   38.95    4.15
  -1  -8  -4   48.48    2.65
   1   8   4   39.88    4.01
  -1  -8  -4   40.85    2.48
  -2  -8  -4  165.85    5.39
  -2  -8  -4  169.30    8.93
  -2  -8  -4  162.18    5.74
   2   8   4  167.71    8.59
  -3  -8  -4   14.94    1.39
  -3  -8  -4   16.66    1.67
  -3  -8  -4   14.50    1.46
   3   8   4   14.38    2.51
  -4  -8  -4  136.39    4.58
  -4  -8  -4  137.73    5.19
  -4  -8  -4  142.68    4.90
   4   8   4  134.68    7.58
  -5  -8  -4    1.00    0.65
  -5  -8  -4   -0.59    1.01
  -5  -8  -4   -0.14    0.71
  -5  -8  -4    0.39    0.91
  -6  -8  -4    8.99    1.31
  -6  -8  -4    7.21    1.07
  -6  -8  -4    7.97    1.22
  -7  -8  -4    1.99    0.86
  -7  -8  -4    1.90    0.73
  -7  -8  -4    3.09    0.91
  -8  -8  -4   45.01    2.28
  -8  -8  -4   42.40    1.99
  -8  -8  -4   37.77    2.13
  -9  -8  -4   34.38    1.78
  -9  -8  -4   29.97    1.47
 -10  -8  -4  211.25    5.66
 -13   9   4    3.86    0.46
  12  -9  -4    4.21    0.54
  11  -9  -4   15.25    1.17
 -11   9   4   15.84    1.21
  11  -9  -4   14.37    1.02
  10  -9  -4   59.60    2.66
  10  -9  -4   60.20    2.51
 -10  -9   4   55.45    2.12
   9  -9  -4  141.83    4.94
   9  -9  -4  144.86    4.78
   8  -9  -4  271.73    8.09
   8  -9  -4  255.84    7.75
   7  -9  -4   86.43    3.93
   7  -9  -4   86.32    3.77
  -7  -9   4   80.08    3.12
   6  -9  -4  447.97   12.10
   6  -9  -4  458.16   12.05
  -6  -9   4  416.51   11.09
   5  -9  -4   59.00    3.14
   5  -9  -4   61.40    3.11
   4  -9  -4  568.37   15.28
   4  -9  -4  610.04   15.49
   3  -9  -4   41.41    4.43
  -3   9   4   44.20    4.13
   3  -9  -4   52.58    2.87
   2  -9  -4  219.57    7.11
   2  -9  -4  241.33   11.14
   2  -9  -4  228.45    7.09
  -2   9   4  241.02   10.44
   2  -9  -4  242.74    7.39
   1  -9  -4   69.72    3.21
   1  -9  -4   67.05    5.51
   1  -9  -4   71.05    3.27
  -1   9   4   66.80    5.26
   1  -9  -4   76.59    3.44
   0  -9  -4   56.79    2.79
   0  -9  -4   55.46    4.98
   0  -9  -4   59.80    2.94
   0   9   4   48.86    4.70
   0   9   4   57.07    4.84
   0  -9  -4   55.51    2.93
  -1  -9  -4  293.57    8.23
  -1  -9  -4  265.76   12.04
  -1  -9  -4  270.60    8.31
   1   9   4  268.15   12.06
   1   9   4  299.41   12.14
  -1  -9  -4  287.37    8.45
  -2  -9  -4   16.57    1.46
  -2  -9  -4   18.69    1.74
  -2  -9  -4   17.89    1.69
  -3  -9  -4  546.69   14.74
  -3  -9  -4  589.08   14.87
  -3  -9  -4  571.87   14.34
  -4  -9  -4   27.60    1.74
  -5  -9  -4  892.01   21.25
  -5  -9  -4  907.64   21.84
  -6  -9  -4    2.09    0.86
  -7  -9  -4  423.04   11.04
  -7  -9  -4  440.75   11.29
  -8  -9  -4    9.15    0.95
  -9  -9  -4  311.10    7.79
 -12  10   4  120.24    3.24
 -11  10   4    9.35    0.82
  11 -10  -4    7.72    0.64
  10 -10  -4  118.49    3.70
 -10  10   4  118.10    3.75
  -9  10   4    4.49    0.89
   9 -10  -4    4.80    0.90
   9 -10  -4    6.15    0.82
  -9 -10   4    4.95    0.66
  -8  10   4   29.58    1.85
   8 -10  -4   35.27    2.18
   8 -10  -4   33.45    1.98
  -8 -10   4   30.87    1.66
   7 -10  -4   13.23    1.56
   7 -10  -4   14.51    1.49
  -7 -10   4   13.58    1.16
   6 -10  -4   33.82    2.27
   6 -10  -4   36.51    2.29
  -6 -10   4   35.54    1.86
   5 -10  -4   90.87    3.80
   5 -10  -4   89.94    3.76
  -5 -10   4   81.59    3.15
   4 -10  -4   29.45    2.09
   4 -10  -4   29.29    2.05
   3 -10  -4   35.28    2.26
   2 -10  -4    6.10    1.14
   1 -10  -4   24.92    1.86
   1 -10  -4   23.68    1.87
   0 -10  -4   34.33    2.14
   0 -10  -4   36.28    2.18
  -1 -10  -4   20.05    1.59
  -1 -10  -4   16.11    1.52
  -1 -10  -4   21.73    1.75
  -2 -10  -4    0.69    0.73
  -2 -10  -4    0.28    0.73
  -2 -10  -4    0.51    0.86
  -3 -10  -4  102.94    3.70
  -3 -10  -4   99.52    3.97
  -4 -10  -4   12.48    1.14
  -4 -10  -4   14.75    1.34
  -4 -10  -4   16.65    1.51
  -5 -10  -4    0.87    0.60
  -5 -10  -4    1.57    0.70
  -5 -10  -4    1.07    0.80
  -6 -10  -4    1.96    0.65
  -7 -10  -4   49.73    1.98
  -8 -10  -4    0.64    0.35
 -10  11   4  172.15    4.50
  -9  11   4  238.66    6.31
   9 -11  -4  248.08    6.31
  -8  11   4  312.04    7.95
   8 -11  -4  321.30    8.16
  -8 -11   4  294.56    7.60
  -7  11   4  134.03    4.37
   7 -11  -4  144.06    4.39
  -7 -11   4  142.45    4.21
   6 -11  -4  313.37    8.54
  -6 -11   4  321.20    8.09
   5 -11  -4  263.19    7.59
  -5 -11   4  257.23    7.08
   4 -11  -4  193.08    6.04
   4 -11  -4  193.17    5.98
   3 -11  -4   10.78    1.27
   3 -11  -4    9.85    1.20
   2 -11  -4   28.77    1.86
   1 -11  -4    2.37    0.86
   0 -11  -4   52.76    2.52
   0 -11  -4   52.18    2.57
  -1 -11  -4  184.06    5.49
  -1 -11  -4  168.44    5.52
  -2 -11  -4  107.78    3.74
  -2 -11  -4  109.70    3.97
  -3 -11  -4  283.14    7.40
  -3 -11  -4  289.12    7.72
  -4 -11  -4  194.29    5.59
  -4 -11  -4  187.99    5.19
  -5 -11  -4  288.85    7.52
  -5 -11  -4  343.25    8.27
  -6 -11  -4  237.47    6.34
   8 -12  -4    5.51    0.52
   7 -12  -4   15.88    1.05
  -7 -12   4   11.49    0.74
   6 -12  -4   62.83    2.46
  -6 -12   4   55.53    2.04
   5 -12  -4   32.19    1.62
  -5 -12   4   37.19    1.61
   4 -12  -4    5.81    0.89
   4 -12  -4    4.53    0.80
  -4 -12   4    4.43    0.65
   3 -12  -4   26.15    1.63
   3 -12  -4   25.39    1.53
  -3 -12   4   25.42    1.38
   2 -12  -4    0.31    0.60
   2 -12  -4   -0.40    0.60
   1 -12  -4   86.32    3.17
   0 -12  -4    4.27    0.76
   0 -12  -4    3.50    0.75
  -1 -12  -4    5.52    0.80
  -1 -12  -4    6.66    0.87
  -2 -12  -4   21.16    1.27
  -2 -12  -4   19.76    1.32
  -3 -12  -4   56.29    2.27
  -3 -12  -4   59.06    2.16
  -4 -12  -4    0.65    0.36
  -4 -12  -4    0.57    0.49
   5 -13  -4  140.72    3.83
   4 -13  -4   22.60    1.22
   3 -13  -4  157.63    4.22
  -3 -13   4  139.96    3.83
   2 -13  -4    0.50    0.43
  -2 -13   4    0.45    0.33
  -1 -13   4   31.66    1.31
  -1 -13  -4    4.97    0.56
  16   0  -5    0.21    0.31
  15   0  -5    0.37    0.56
 -15   0   5   -0.05    0.52
 -14   0   5    0.71    0.89
 -13   0   5    0.42    1.00
 -12   0   5    1.26    1.10
 -11   0   5   -0.58    1.13
 -11   0   5   -0.39    0.95
 -11   0   5    0.29    1.32
 -10   0   5   -0.17    0.96
 -10   0   5    0.48    0.98
 -10   0   5    1.15    1.34
  -9   0   5    1.20    1.02
  -9   0   5   -0.18    0.88
  -9   0   5   -1.13    1.68
  -8   0   5    3.66    1.22
  -8   0   5   -0.27    1.49
  -8   0   5    2.78    1.06
  -7   0   5    0.35    0.78
  -7   0   5   -0.57    0.76
   7   0  -5   -0.21    1.25
  -6   0   5    0.46    0.80
   6   0  -5    0.21    1.22
   5   0  -5    0.86    1.35
   4   0  -5    1.11    0.69
   4   0  -5   -0.43    1.33
   3   0  -5    0.56    0.64
   3   0  -5    1.96    1.58
   2   0  -5    0.12    0.54
   1   0  -5    0.79    0.53
   1   0  -5    7.78    1.97
   0   0  -5    0.77    0.55
   0   0  -5   -0.12    0.54
   0   0  -5    0.40    1.10
  -1   0  -5    0.06    0.58
  -1   0  -5    1.53    1.30
  -2   0  -5   -0.92    0.85
  -2   0  -5   -0.17    0.53
  -2   0  -5    0.27    0.64
  -2   0  -5    0.54    0.89
  -3   0  -5    0.14    0.68
  -3   0  -5    0.23    0.53
  -3   0  -5    0.43    0.67
  -3   0  -5    0.84    0.96
  -4   0  -5    0.65    0.55
  -4   0  -5    1.09    0.77
  -5   0  -5    0.30    0.59
  -5   0  -5   -0.41    0.85
  -5   0  -5   -0.16    0.87
  -6   0  -5    0.19    0.61
  -6   0  -5   -0.61    0.86
  -6   0  -5   -0.08    0.81
  -7   0  -5    0.12    0.59
  -7   0  -5   -0.09    0.82
  -7   0  -5   -0.16    0.80
  -8   0  -5    0.07    0.79
  -9   0  -5    0.38    0.87
  -9   0  -5    1.10    0.75
 -10   0  -5    0.31    0.78
 -10   0  -5    0.63    0.61
 -11   0  -5    0.77    0.66
 -11   0  -5    0.07    0.49
 -12   0  -5    0.46    0.45
  16   1  -5   66.57    2.26
  15  -1  -5   78.46    2.86
 -15  -1   5   82.30    3.01
  14  -1  -5    7.70    1.08
 -14  -1   5    9.81    1.25
 -13   1   5   58.29    2.90
 -13  -1   5   57.94    2.86
 -12   1   5  119.08    4.60
 -12  -1   5  117.11    4.50
 -11   1   5   84.36    3.87
 -11  -1   5   83.70    3.71
 -11   1   5   83.30    6.35
 -11  -1   5   79.36    6.14
 -11  -1   5   85.52    4.00
 -10  -1   5  474.44   17.35
 -10   1   5  468.33   12.91
 -10  -1   5  470.34   12.73
 -10  -1   5  495.82   13.31
  -9  -1   5  439.27   16.39
  -9  -1   5  450.32   12.47
  -9   1   5  452.67   12.21
  -9  -1   5  443.86   12.02
  -8  -1   5 1267.53   29.68
  -8   1   5 1204.90   29.35
  -8  -1   5 1234.84   29.13
   8  -1  -5 1254.80   32.88
  -8  -1   5 1213.57   34.42
  -7  -1   5  119.32    4.57
  -7  -1   5  120.01    4.29
   7  -1  -5  118.81    6.65
  -6  -1   5  599.52   15.67
   6  -1  -5  657.60   19.56
   5  -1  -5   32.39    3.47
   5   1  -5   33.46    3.51
   4  -1  -5  511.56   12.94
   4   1  -5  488.37   12.72
   4  -1  -5  490.40   16.41
   4   1  -5  501.82   16.57
   3  -1  -5   48.73    2.45
   3   1  -5   48.04    2.34
   3  -1  -5   44.58    3.98
   2  -1  -5  470.98   12.11
   1  -1  -5   72.14    3.00
  -1   1   5   77.42    4.52
   1  -1  -5   86.29    5.41
   1   1  -5   78.03    5.21
   0   1  -5   16.25    1.35
   0  -1  -5   16.87    1.35
   0   1   5   17.16    2.05
   0  -1  -5   15.75    1.33
   0  -1  -5   19.24    2.56
   0   1  -5   16.77    2.52
  -1   1  -5  717.69   17.62
  -1  -1  -5  737.96   17.67
  -1  -1  -5  747.09   21.24
  -1   1  -5  726.86   20.99
  -2  -1  -5   15.42    2.11
  -2   1  -5   15.02    1.80
  -2   1  -5   13.06    1.31
  -2  -1  -5   15.08    1.37
  -2  -1  -5   16.41    1.36
   2   1   5   17.88    2.18
  -2  -1  -5   14.77    2.19
  -3  -1  -5  755.96   21.65
  -3  -1  -5  797.56   19.39
  -3  -1  -5  790.13   19.16
  -3  -1  -5  791.53   22.13
  -4  -1  -5    0.48    0.70
  -4  -1  -5    1.52    0.72
  -4  -1  -5    0.54    0.75
  -4   1  -5    0.92    0.74
  -5  -1  -5 1646.53   38.21
  -5  -1  -5 1592.21   37.65
  -5   1  -5 1657.18   37.96
  -5  -1  -5 1647.00   38.18
  -5  -1  -5 1605.67   42.96
  -6  -1  -5  196.02    6.16
  -6  -1  -5  190.63    6.48
  -6  -1  -5  182.03    5.92
  -6   1  -5  192.51    6.20
  -6  -1  -5  205.63    6.60
  -6  -1  -5  187.54    9.51
  -7  -1  -5  960.98   22.85
  -7  -1  -5  958.33   23.48
  -7   1  -5  940.44   22.93
  -7  -1  -5  967.19   23.33
  -7   1  -5  893.98   27.95
  -7  -1  -5  920.78   28.08
  -8  -1  -5   28.10    1.76
  -8   1  -5   27.33    1.84
  -8  -1  -5   30.20    2.08
  -9  -1  -5  447.44   11.75
  -9   1  -5  428.19   11.20
  -9  -1  -5  435.99   11.56
 -10  -1  -5   48.28    2.39
 -10  -1  -5   49.11    2.29
 -11  -1  -5  195.95    5.56
 -11  -1  -5  190.37    5.41
 -12  -1  -5   69.87    2.25
 -12  -1  -5   81.01    2.53
  16   2  -5   29.29    1.33
  15  -2  -5   80.23    2.72
 -15   2   5   83.28    2.98
 -15  -2   5   86.01    2.98
  14  -2  -5  112.45    3.94
 -14  -2   5  118.58    3.96
  13  -2  -5  354.87    9.84
 -13  -2   5  358.15    9.66
 -12  -2   5   78.49    3.39
 -11   2   5  375.67   15.25
 -11  -2   5  369.31   15.00
 -10   2   5   63.74    5.49
 -10  -2   5   66.84    5.50
 -10  -2   5   72.17    3.29
 -10   2   5   70.70    3.59
 -10  -2   5   70.07    3.55
  -9   2   5  214.23   10.34
  -9  -2   5  207.22   10.10
  -9  -2   5  208.58    6.58
  -9   2   5  211.51    7.06
  -9  -2   5  212.00    7.02
  -8   2   5  175.22    5.94
  -8  -2   5  161.45    5.75
  -8  -2   5  163.36    5.36
   8  -2  -5  162.45    7.79
  -8   2   5  152.00    8.55
  -8  -2   5  157.49    8.56
  -7   2   5  289.52    8.54
  -7  -2   5  293.32    8.52
   7  -2  -5  286.63    8.57
  -7  -2   5  277.90    7.97
   7  -2  -5  287.36   11.26
  -6   2   5  302.14    8.75
  -6  -2   5  291.29    8.63
   6  -2  -5  305.89    8.78
   6  -2  -5  303.69   11.67
   5  -2  -5   73.82    3.24
   5  -2  -5   62.67    4.78
  -5   2   5   65.96    3.05
  -5  -2   5   59.73    2.93
   4  -2  -5  608.81   19.00
   3   2  -5    0.46    0.55
   3  -2  -5    0.28    0.51
   3  -2  -5   -0.21    1.32
  -2   2   5  712.17   19.60
   2  -2  -5  683.17   16.13
   1  -2  -5    1.27    0.63
  -1   2   5    0.34    1.02
   1  -2  -5    0.42    1.31
   0  -2  -5  151.27    5.12
   0   2  -5  157.25    5.09
   0  -2  -5  168.30    5.20
   0   2   5  156.98    7.14
   0  -2  -5  172.62    7.97
  -1  -2  -5    7.66    1.03
  -1   2  -5    7.96    1.06
   1   2   5    8.48    1.74
  -1  -2  -5    6.69    0.99
  -1  -2  -5    9.26    1.88
  -2  -2  -5   72.73    4.78
  -2   2  -5   73.92    3.15
  -2  -2  -5   72.50    3.12
  -2  -2  -5   75.67    3.19
   2   2   5   69.98    4.75
  -2  -2  -5   77.61    5.02
  -3  -2  -5   19.51    2.50
  -3   2  -5   19.10    1.59
  -3  -2  -5   17.68    1.54
  -3  -2  -5   17.21    1.49
   3   2   5   16.06    2.38
  -3  -2  -5   22.34    2.59
  -4  -2  -5   27.31    2.88
  -4   2  -5   25.46    1.90
  -4  -2  -5   24.50    1.89
  -4  -2  -5   29.06    1.91
  -4   2  -5   26.92    1.78
  -5   2  -5   24.27    1.90
  -5  -2  -5   26.03    1.94
  -5  -2  -5   22.56    1.76
  -5   2  -5   22.71    1.68
  -5   2  -5   24.31    3.22
  -5  -2  -5   21.47    3.03
  -6  -2  -5    4.10    0.95
  -6   2  -5    5.20    1.11
  -6  -2  -5    4.62    1.05
  -6   2  -5    4.99    0.94
  -6  -2  -5    4.83    1.20
  -6   2  -5    3.20    1.55
  -6  -2  -5    3.94    1.62
  -7  -2  -5   67.95    3.12
  -7   2  -5   64.57    3.28
  -7  -2  -5   70.09    3.34
  -7   2  -5   61.54    2.78
  -7  -2  -5   66.54    3.30
  -7   2  -5   55.97    4.96
  -7  -2  -5   61.34    5.14
  -8  -2  -5   29.14    1.90
  -8   2  -5   24.65    1.63
  -8  -2  -5   28.20    2.05
  -9  -2  -5   35.57    2.00
  -9   2  -5   44.62    2.41
  -9  -2  -5   39.96    2.28
  -9  -2  -5   40.52    2.31
 -10   2  -5  153.46    4.86
 -10  -2  -5  150.88    4.82
 -10  -2  -5  145.78    4.80
 -11   2  -5   15.78    1.18
 -11  -2  -5   16.10    1.19
 -11  -2  -5   16.65    1.18
 -12   2  -5  108.17    3.02
 -12  -2  -5  109.27    3.03
  16   3  -5    7.64    0.64
  16  -3  -5    3.03    0.46
  14  -3  -5    4.41    0.71
 -14  -3   5    3.86    0.78
  13  -3  -5  104.17    3.92
 -13  -3   5  111.38    3.84
  12  -3  -5   34.38    2.23
 -12  -3   5   35.71    2.09
  11  -3  -5  183.83    6.26
 -11  -3   5  177.45    5.79
  10  -3  -5  224.59    7.18
 -10  -3   5  203.23    6.44
 -10   3   5  198.86   10.11
 -10  -3   5  199.58    9.91
 -10   3   5  214.10    7.05
 -10  -3   5  204.96    6.93
  -9   3   5  522.20   18.55
  -9  -3   5  516.55   18.29
   9  -3  -5  568.89   14.74
  -9  -3   5  543.08   13.91
  -9   3   5  554.94   14.64
  -9  -3   5  532.81   14.42
  -8   3   5  152.59    8.40
  -8  -3   5  157.09    8.39
   8  -3  -5  150.04    5.65
  -8   3   5  169.79    5.81
  -8  -3   5  165.80    5.67
  -8  -3   5  155.09    5.11
   8  -3  -5  150.07    7.57
  -7   3   5 1069.04   25.67
  -7  -3   5 1061.11   25.57
   7  -3  -5 1050.61   25.75
   7  -3  -5 1054.39   29.27
  -6   3   5  124.50    4.56
  -6  -3   5  120.13    4.48
   6  -3  -5  129.96    6.99
   5  -3  -5  876.12   21.83
   5  -3  -5  910.43   25.85
  -5   3   5  910.77   21.83
  -5  -3   5  889.34   21.69
   4  -3  -5    2.69    0.83
   4  -3  -5    1.77    1.34
   3  -3  -5  884.23   21.71
   3   3  -5  875.73   21.24
   3  -3  -5  923.26   26.00
   3  -3  -5  903.61   21.50
  -2   3   5    7.21    1.69
   2  -3  -5    8.40    1.00
  -1   3   5  246.28    9.74
   1   3  -5  240.13    7.00
   1  -3  -5  246.90    7.08
   1  -3  -5  246.20    6.92
   1  -3  -5  245.33   10.31
   0   3  -5  511.62   13.29
   0  -3  -5  518.08   13.27
   0   3   5  541.79   16.84
   0  -3  -5  542.74   13.24
   0  -3  -5  524.93   17.07
  -1  -3  -5   55.55    4.36
  -1  -3  -5   54.00    2.67
  -1   3  -5   52.90    2.52
  -1  -3  -5   50.53    2.49
   1   3   5   50.12    4.16
  -1  -3  -5   49.64    2.33
  -1  -3  -5   55.28    4.37
  -2  -3  -5 1170.80   32.46
  -2   3  -5 1235.69   28.75
  -2  -3  -5 1218.29   28.71
  -2  -3  -5 1199.33   28.88
   2   3   5 1241.04   32.91
  -2  -3  -5 1226.89   28.35
  -2  -3  -5 1251.99   32.58
  -3  -3  -5    1.87    1.21
  -3  -3  -5    6.02    1.06
   3   3   5    8.19    1.84
  -3   3  -5    3.64    0.91
  -3  -3  -5    4.58    0.95
  -3  -3  -5    4.47    0.81
  -3  -3  -5    6.01    1.55
  -4  -3  -5 1741.81   43.94
  -4   3  -5 1779.24   40.19
  -4  -3  -5 1753.37   40.13
  -4  -3  -5 1698.88   40.12
   4   3   5 1855.56   44.85
  -4  -3  -5 1673.06   39.47
  -4   3  -5 1704.13   44.71
  -4  -3  -5 1736.59   44.74
  -5   3  -5  141.78    5.07
  -5  -3  -5  140.50    5.02
  -5  -3  -5  136.21    4.95
  -5   3  -5  146.43    7.86
  -5  -3  -5  126.63    7.38
  -6   3  -5 1208.46   28.32
  -6  -3  -5 1175.56   28.21
  -6  -3  -5 1174.76   28.06
  -6   3  -5 1115.55   32.67
  -6  -3  -5 1132.48   32.65
  -7   3  -5   40.24    2.51
  -7  -3  -5   39.30    2.45
  -7  -3  -5   40.40    2.43
  -8   3  -5 1190.27   27.94
  -8  -3  -5 1168.65   27.89
  -8  -3  -5 1170.00   27.83
  -9  -3  -5    2.52    0.79
  -9   3  -5    2.09    0.86
  -9  -3  -5    2.37    0.86
 -10  -3  -5  306.67    8.28
 -10   3  -5  323.99    8.47
 -10  -3  -5  328.94    8.46
 -11   3  -5   44.66    1.87
 -11  -3  -5   46.10    1.88
 -12  -3  -5   67.97    2.13
  15  -4  -5   92.51    3.00
 -14   4   5   87.76    2.99
 -14  -4   5   81.25    2.89
  13  -4  -5    0.73    0.55
 -13  -4   5    0.05    0.59
  12  -4  -5  103.84    3.88
 -12  -4   5  101.02    3.63
  11  -4  -5    9.45    1.33
 -11  -4   5   12.15    1.22
  10  -4  -5   48.55    2.81
 -10   4   5   40.53    4.08
 -10  -4   5   39.28    4.04
   9  -4  -5   29.37    2.27
  -9   4   5   28.67    3.53
  -9  -4   5   31.94    3.57
  -9   4   5   27.72    2.08
  -9  -4   5   27.62    2.09
   8  -4  -5    6.49    1.26
  -8   4   5    6.68    1.20
  -8  -4   5    5.21    1.02
  -8   4   5    4.56    1.73
  -8  -4   5    3.15    1.58
   8  -4  -5    5.03    1.57
   7  -4  -5    0.09    0.82
  -7   4   5    1.98    1.38
  -7  -4   5    1.67    1.36
  -7   4   5    0.97    0.79
  -7  -4   5    1.71    0.81
   7  -4  -5    1.33    1.24
   6  -4  -5    0.33    0.81
  -6   4   5    2.08    0.78
  -6  -4   5    0.81    0.71
   6  -4  -5    2.06    1.51
  -5   4   5  151.27    5.19
  -5  -4   5  137.67    4.98
   5  -4  -5  152.99    5.25
   5  -4  -5  154.36    7.89
   4  -4  -5    3.48    0.89
  -4   4   5    3.64    0.82
  -4  -4   5    2.67    0.75
   4  -4  -5    4.07    0.91
   4  -4  -5    3.53    1.76
   3  -4  -5    7.47    1.09
  -3   4   5    8.14    1.93
   3  -4  -5    7.76    1.09
   3  -4  -5    3.56    1.66
   2  -4  -5    0.94    0.80
  -2   4   5    1.45    1.21
   2  -4  -5    0.71    0.65
   1   4  -5  151.50    4.89
   1  -4  -5  153.79    4.89
  -1   4   5  144.99    7.46
   1  -4  -5  152.02    4.98
   1  -4  -5  161.91    8.19
   0  -4  -5   26.43    3.32
   0   4  -5   29.00    1.78
   0  -4  -5   28.32    1.77
   0   4   5   31.09    3.31
   0  -4  -5   30.53    1.86
   0  -4  -5   33.01    3.52
  -1  -4  -5   41.58    3.90
  -1   4  -5   38.42    2.11
  -1  -4  -5   36.47    2.04
   1   4   5   40.75    3.95
  -1  -4  -5   40.66    2.16
  -1  -4  -5   37.82    3.82
  -2  -4  -5   76.79    5.38
  -2   4  -5   83.55    3.35
  -2  -4  -5   79.33    3.28
  -2  -4  -5   76.92    3.48
   2   4   5   88.99    5.87
  -2  -4  -5   77.73    3.19
  -2  -4  -5   77.67    5.21
  -3  -4  -5   96.11    6.00
  -3   4  -5   92.73    3.69
  -3  -4  -5   85.49    3.58
  -3  -4  -5   89.96    3.84
   3   4   5   95.61    6.23
  -3  -4  -5   89.98    3.49
  -3  -4  -5   88.04    5.55
  -4  -4  -5   43.00    4.05
  -4   4  -5   46.13    2.52
  -4  -4  -5   42.54    2.43
  -4  -4  -5   44.57    2.61
   4   4   5   48.79    4.55
  -4  -4  -5   47.81    2.37
  -4   4  -5   49.44    4.30
  -4  -4  -5   48.52    4.20
  -5  -4  -5    7.67    1.77
  -5  -4  -5    7.89    1.22
  -5   4  -5    5.57    1.07
  -5  -4  -5    7.60    1.13
   5   4   5    4.75    1.80
  -5  -4  -5    8.16    1.34
  -5  -4  -5    7.19    0.99
  -5   4  -5    5.80    1.74
  -5  -4  -5    6.61    1.81
  -6   4  -5   15.52    1.58
  -6  -4  -5   16.53    1.58
  -6  -4  -5   15.10    1.55
  -6  -4  -5   15.51    1.72
  -6  -4  -5   16.09    1.38
  -6   4  -5   16.54    2.62
  -6  -4  -5   13.55    2.40
  -7  -4  -5   37.59    2.35
  -7  -4  -5   39.60    2.50
  -8  -4  -5  165.10    5.50
  -8   4  -5  164.35    5.33
  -8  -4  -5  163.23    5.29
  -8  -4  -5  170.60    5.66
  -9  -4  -5  120.50    4.23
  -9   4  -5  122.23    4.12
  -9  -4  -5  126.02    4.12
  -9  -4  -5  131.77    4.46
 -10  -4  -5   28.38    1.50
 -10  -4  -5   31.40    1.65
 -10  -4  -5   33.51    1.79
 -10   4  -5   29.90    1.55
 -11  -4  -5   29.88    1.41
 -11  -4  -5   21.27    1.06
  15  -5  -5    0.74    0.37
  14  -5  -5    0.38    0.49
  12  -5  -5    0.40    0.54
  11  -5  -5   81.91    3.36
  10  -5  -5   54.04    2.83
  -9   5   5  308.69   12.22
   9  -5  -5  307.29    9.15
   8  -5  -5  166.44    5.97
  -8   5   5  172.24    8.58
  -8   5   5  180.85    5.92
  -8  -5   5  184.28    5.88
   8  -5  -5  159.54    7.95
  -7   5   5  272.40   11.58
   7  -5  -5  304.15    8.86
  -7   5   5  301.38    8.56
  -7  -5   5  285.83    8.41
   7  -5  -5  285.63   11.52
  -6   5   5   10.33    1.21
   6  -5  -5    7.69    1.27
  -6   5   5    6.10    1.79
  -6  -5   5    7.34    1.77
  -6  -5   5    7.87    1.06
   6  -5  -5   10.21    2.22
  -5   5   5  763.52   18.58
  -5  -5   5  738.06   18.40
   5  -5  -5  752.01   18.81
   5  -5  -5  760.54   23.14
  -4   5   5  131.40    4.57
  -4  -5   5  121.53    4.37
   4  -5  -5  123.88    4.63
  -4   5   5  120.77    6.93
   4  -5  -5  123.30    7.29
   4  -5  -5  129.32    4.71
   3  -5  -5  126.69    4.76
   3  -5  -5  122.67    7.39
   3  -5  -5  132.95    4.75
  -3  -5   5  133.95    4.54
   2   5  -5   64.76    2.72
  -2   5   5   68.17    5.05
   2  -5  -5   66.06    3.01
   1  -5  -5   19.11    1.40
   1  -5  -5   19.99    1.73
   1   5  -5   20.01    1.42
  -1   5   5   19.42    2.79
   1  -5  -5   20.90    1.65
   1  -5  -5   19.48    2.88
   0  -5  -5  250.05    6.96
   0   5  -5  233.29    6.97
   0  -5  -5  251.84    7.67
   0   5   5  252.40   10.89
   0  -5  -5  268.13    7.56
   0  -5  -5  230.78   10.64
  -1  -5  -5    1.72    1.25
  -1  -5  -5    2.58    0.87
   1   5   5    2.01    1.49
  -1   5  -5    2.28    0.73
  -1  -5  -5    1.82    0.67
  -1  -5  -5    2.36    0.74
  -1  -5  -5    1.19    1.24
  -2  -5  -5  604.70   19.30
  -2   5  -5  574.13   14.53
  -2  -5  -5  566.38   14.47
  -2  -5  -5  577.73   15.09
   2   5   5  590.85   19.43
  -2  -5  -5  583.99   14.67
  -2  -5  -5  565.11   18.51
  -3   5  -5   17.52    1.48
  -3  -5  -5   19.20    1.50
  -3  -5  -5   16.97    2.68
   3   5   5   24.31    3.29
  -3  -5  -5   15.97    1.47
  -3  -5  -5   19.20    2.59
  -3   5  -5   16.41    2.36
  -4   5  -5  325.39    9.18
  -4  -5  -5  321.07    9.12
  -4  -5  -5  333.83   12.87
   4   5   5  354.88   13.75
  -4  -5  -5  341.04    9.21
  -5   5  -5   16.04    1.50
  -5  -5  -5   14.35    1.40
  -5  -5  -5   14.27    2.37
  -5  -5  -5   17.18    1.71
   5   5   5   17.24    2.88
  -5  -5  -5   16.09    1.70
  -5  -5  -5   15.13    1.43
  -6  -5  -5  461.85   12.29
  -6  -5  -5  467.70   12.37
  -7  -5  -5    2.59    1.00
  -7   5  -5    5.09    0.93
  -7  -5  -5    3.76    0.84
  -7  -5  -5    1.67    0.97
  -7  -5  -5    3.33    0.81
  -8  -5  -5   68.24    3.06
  -8   5  -5   64.75    2.67
  -8  -5  -5   70.60    2.73
  -8  -5  -5   71.85    3.13
  -9  -5  -5    6.28    0.73
  -9  -5  -5    6.10    0.95
  -9  -5  -5    6.51    1.02
 -10  -5  -5  112.72    3.59
 -10  -5  -5  115.11    3.66
 -11  -5  -5   31.34    1.36
 -14   6   5  379.60    8.36
  14  -6  -5  311.29    8.39
  13  -6  -5   21.59    1.45
  12  -6  -5  525.43   13.40
  11  -6  -5   17.58    1.69
  10  -6  -5  250.60    7.31
  10  -6  -5  258.76    8.03
   9  -6  -5   88.67    3.74
   9  -6  -5   94.35    4.17
   8  -6  -5   43.00    2.59
   8  -6  -5   47.41    2.82
   7  -6  -5  139.43    5.12
  -7   6   5  137.78    4.77
   7  -6  -5  147.82    5.39
   7  -6  -5  132.66    7.32
   6  -6  -5   23.09    1.83
  -6   6   5   16.15    1.40
   6  -6  -5   17.09    1.78
   6  -6  -5   18.08    2.77
   5  -6  -5  566.93   15.04
  -5   6   5  595.66   14.64
   5  -6  -5  571.00   19.34
  -4   6   5   84.45    3.35
   4  -6  -5   86.17    3.72
   4  -6  -5   89.54    6.29
   4  -6  -5   85.00    6.05
  -3   6   5  428.88   11.14
   3  -6  -5  419.14   15.73
  -3   6   5  448.54   15.47
   3  -6  -5  399.73   15.49
   2  -6  -5  162.85    5.30
   2  -6  -5  174.45    9.01
   2  -6  -5  167.24    5.72
  -2   6   5  161.17    8.31
   2  -6  -5  160.80    5.54
  -2   6   5  164.56    5.23
   1  -6  -5  502.46   13.19
   1  -6  -5  554.39   18.43
   1  -6  -5  536.79   13.92
  -1   6   5  460.28   17.22
   1  -6  -5  552.76   13.87
   1  -6  -5  506.13   18.02
   0  -6  -5  167.53    5.41
   0  -6  -5  187.41    6.18
   0   6   5  200.80    9.55
   0  -6  -5  175.06    5.87
   0  -6  -5  183.36    9.11
  -1  -6  -5  287.96    8.00
  -1  -6  -5  295.70    8.84
   1   6   5  311.16   12.69
  -1  -6  -5  298.20    8.54
  -1  -6  -5  308.51   12.35
  -2  -6  -5  139.69    4.55
  -2  -6  -5  149.10    8.23
  -2  -6  -5  155.97    5.52
   2   6   5  154.95    8.51
  -2  -6  -5  151.84    5.19
  -2  -6  -5  143.92    7.85
  -3  -6  -5  446.34   16.75
  -3  -6  -5  492.39   13.17
   3   6   5  484.81   17.57
  -3  -6  -5  497.29   12.80
  -3  -6  -5  465.05   16.11
  -4  -6  -5  179.00    9.12
  -4  -6  -5  195.91    6.56
   4   6   5  195.98    9.89
  -4  -6  -5  195.50    6.20
  -5  -6  -5   26.23    2.04
  -5  -6  -5   26.21    1.85
  -6  -6  -5    5.57    1.13
  -6  -6  -5    5.08    0.93
  -7  -6  -5   57.38    2.79
  -7  -6  -5   54.61    2.51
  -8  -6  -5   26.63    1.73
  -9  -6  -5  286.25    7.76
  -9  -6  -5  295.32    7.73
 -10  -6  -5   11.47    0.88
 -10  -6  -5   11.91    0.89
 -13   7   5    3.98    0.60
  13  -7  -5    2.82    0.55
  12  -7  -5   80.22    3.02
  11  -7  -5   12.58    1.35
  10  -7  -5   50.22    2.77
   9  -7  -5   64.01    3.30
   8  -7  -5  573.52   15.20
   7  -7  -5  217.16    7.13
   6  -7  -5  536.47   19.95
   6  -7  -5  548.89   18.87
   5  -7  -5   32.95    4.05
   5  -7  -5   36.59    3.91
   5  -7  -5   33.44    2.29
   4  -7  -5  302.39   13.13
   4  -7  -5  321.69    9.29
   4  -7  -5  309.18   12.93
   4  -7  -5  318.01    9.24
   3  -7  -5    3.71    0.99
   3  -7  -5    4.50    1.77
   3  -7  -5    4.75    1.09
   3  -7  -5    6.21    1.97
   2  -7  -5  233.37    6.99
   2  -7  -5  222.53   10.61
   2  -7  -5  225.68    7.21
   1  -7  -5  158.32    5.18
   1  -7  -5  145.86    8.36
   1  -7  -5  154.33    5.56
  -1   7   5  155.36    8.34
   1  -7  -5  161.16    8.75
   0  -7  -5   56.67    2.69
   0  -7  -5   65.02    5.36
   0  -7  -5   63.45    3.20
   0   7   5   63.45    5.33
   0  -7  -5   68.38    3.19
   0  -7  -5   62.70    5.19
  -1  -7  -5  684.27   17.00
  -1  -7  -5  701.48   17.88
   1   7   5  704.09   22.70
  -1  -7  -5  714.93   17.63
  -1  -7  -5  696.70   22.02
  -2  -7  -5    8.43    0.99
  -2  -7  -5    7.96    1.29
   2   7   5    9.31    2.35
  -2  -7  -5    8.27    1.20
  -2  -7  -5   10.50    2.28
  -3  -7  -5  443.21   11.32
  -3  -7  -5  459.25   12.46
  -3  -7  -5  453.90   12.12
  -4  -7  -5   23.07    1.94
  -4  -7  -5   19.85    1.78
  -4  -7  -5   22.42    1.77
  -5  -7  -5  710.94   18.15
  -5  -7  -5  724.64   17.98
  -5  -7  -5  722.56   17.81
  -6  -7  -5    5.52    1.12
  -6  -7  -5    5.26    0.98
  -6  -7  -5    3.54    0.87
  -7  -7  -5  546.39   13.78
  -7  -7  -5  552.83   13.55
  -7  -7  -5  525.91   13.41
  -8  -7  -5    0.77    0.63
  -8  -7  -5    0.32    0.60
  -9  -7  -5  364.73    8.96
 -13   8   5  227.28    5.64
  12  -8  -5   62.27    2.27
  12  -8  -5   60.99    2.18
  11  -8  -5  168.53    5.04
  10  -8  -5   10.83    1.19
   9  -8  -5  139.48    4.96
   8  -8  -5    8.69    1.27
   7  -8  -5    1.47    0.82
   6  -8  -5  148.43    5.26
   6  -8  -5  158.31    5.52
   5  -8  -5   29.03    2.08
   5  -8  -5   25.97    1.98
   5  -8  -5   31.11    2.16
   4  -8  -5  309.11    8.79
   4  -8  -5  304.29    8.84
   4  -8  -5  307.10    9.02
   3  -8  -5   67.06    3.10
   3  -8  -5   59.84    5.30
   3  -8  -5   67.95    3.22
  -3   8   5   61.84    5.03
   3  -8  -5   74.32    3.46
   3  -8  -5   50.81    4.88
   2  -8  -5  236.85    7.10
   2  -8  -5  228.07   10.92
   2  -8  -5  233.27    7.30
  -2   8   5  215.32   10.25
   2  -8  -5  246.56    7.49
   2  -8  -5  210.76   10.59
   1  -8  -5   69.16    3.04
   1  -8  -5   68.69    5.61
   1  -8  -5   69.87    3.33
   1  -8  -5   69.47    5.56
   0  -8  -5  305.01    8.28
   0  -8  -5  296.95    8.74
   0   8   5  276.58   11.99
  -1  -8  -5  100.20    3.74
  -1  -8  -5  110.46    4.36
  -2  -8  -5  137.25    4.46
  -2  -8  -5  140.12    5.14
  -2  -8  -5  135.77    4.93
  -3  -8  -5   10.12    0.98
  -3  -8  -5   11.69    1.45
  -3  -8  -5    9.45    1.22
  -3  -8  -5   10.57    1.32
  -4  -8  -5    2.00    0.96
  -4  -8  -5    3.07    0.94
  -4  -8  -5    3.18    0.91
  -5  -8  -5    4.96    1.04
  -5  -8  -5    3.94    0.89
  -5  -8  -5    3.91    0.87
  -6  -8  -5   12.40    1.31
  -6  -8  -5    9.69    1.04
  -6  -8  -5    9.83    1.14
  -7  -8  -5   38.07    1.93
  -7  -8  -5   35.10    1.68
  -7  -8  -5   36.23    1.79
  -8  -8  -5  116.72    3.44
  -8  -8  -5   95.74    3.01
  -9  -8  -5   42.62    1.59
 -12   9   5    6.32    0.58
 -11   9   5   10.28    0.86
  11  -9  -5   11.05    0.88
  11  -9  -5    9.50    0.79
  10  -9  -5   40.00    1.94
  10  -9  -5   37.01    1.83
   9  -9  -5   22.26    1.63
   9  -9  -5   20.73    1.52
   8  -9  -5   81.18    3.45
   8  -9  -5   80.98    3.45
   7  -9  -5    6.36    1.17
   7  -9  -5    5.26    1.10
   6  -9  -5   51.25    2.79
   5  -9  -5    5.54    1.23
   4  -9  -5   62.66    3.00
   4  -9  -5   59.46    2.90
   3  -9  -5   19.05    1.60
   3  -9  -5   19.15    1.61
   3  -9  -5   19.31    1.71
   2  -9  -5   34.83    2.09
   2  -9  -5   36.41    2.24
   2  -9  -5   34.45    2.23
   1  -9  -5    9.30    1.16
   1  -9  -5    9.05    1.21
   1  -9  -5    9.50    1.35
   0  -9  -5    0.18    0.62
   0  -9  -5    0.45    0.77
   0  -9  -5    0.96    0.80
  -1  -9  -5   48.06    2.26
  -1  -9  -5   43.12    2.47
  -2  -9  -5    3.61    0.72
  -2  -9  -5    4.58    1.05
  -2  -9  -5    5.02    0.89
  -3  -9  -5   73.14    3.24
  -3  -9  -5   71.43    2.89
  -3  -9  -5   81.19    3.31
  -4  -9  -5    4.44    0.96
  -4  -9  -5    6.76    0.85
  -4  -9  -5    6.66    1.01
  -5  -9  -5   53.48    2.45
  -5  -9  -5   50.51    2.03
  -5  -9  -5   53.91    2.44
  -6  -9  -5   87.78    3.11
  -6  -9  -5   86.08    3.09
  -7  -9  -5  135.62    3.97
  -8  -9  -5    5.78    0.55
 -10  10   5    0.67    0.40
  10 -10  -5    0.65    0.38
  -9  10   5   37.51    1.68
   9 -10  -5   41.48    1.89
   9 -10  -5   39.01    1.69
  -8  10   5    4.69    0.73
   8 -10  -5    4.94    0.89
   8 -10  -5    5.26    0.82
  -7  10   5   29.96    1.69
   7 -10  -5   34.59    2.01
   7 -10  -5   33.26    1.95
  -6  10   5   89.22    3.32
   6 -10  -5   99.17    3.71
   6 -10  -5   98.58    3.71
   5 -10  -5    4.47    0.96
   4 -10  -5  236.01    6.78
   4 -10  -5  238.70    6.90
  -4 -10   5  217.10    5.99
   3 -10  -5  157.79    5.09
   3 -10  -5  156.39    5.21
   2 -10  -5  630.03   15.60
   2 -10  -5  612.27   15.57
   2 -10  -5  659.89   15.93
   1 -10  -5  202.55    5.99
   1 -10  -5  194.93    6.05
   1 -10  -5  207.79    6.27
   0 -10  -5  211.96    6.35
   0 -10  -5  222.26    6.55
   0 -10  -5  209.61    6.17
  -1 -10  -5  184.95    5.43
  -1 -10  -5  184.59    5.73
  -1 -10  -5  191.73    5.83
  -2 -10  -5  183.16    5.28
  -2 -10  -5  195.28    5.82
  -3 -10  -5   91.26    3.30
  -4 -10  -5   26.73    1.51
  -5 -10  -5    5.04    0.68
  -5 -10  -5    5.52    0.80
  -6 -10  -5   19.23    1.02
   8 -11  -5    0.36    0.40
   7 -11  -5   90.15    3.06
   7 -11  -5   87.74    2.85
   6 -11  -5    1.69    0.67
   6 -11  -5    2.72    0.70
   5 -11  -5   46.68    2.16
   4 -11  -5   14.77    1.22
   3 -11  -5   93.19    3.37
  -3 -11   5   87.21    2.79
   2 -11  -5   53.62    2.28
   2 -11  -5   50.24    2.35
   1 -11  -5   29.78    1.62
   1 -11  -5   29.37    1.73
   0 -11  -5   75.31    2.72
   0 -11  -5   78.01    2.97
  -1 -11  -5   10.97    0.90
  -1 -11  -5   10.39    0.89
  -1 -11  -5   10.93    1.09
  -2 -11  -5  167.74    4.50
  -2 -11  -5  151.76    4.46
  -3 -11  -5   37.97    1.53
  -3 -11  -5   50.97    2.01
   6 -12  -5    3.12    0.47
   5 -12  -5  106.31    3.21
   4 -12  -5   53.63    1.98
   3 -12  -5  358.02    8.74
   3 -12  -5  348.56    8.73
   2 -12  -5  141.49    4.03
   2 -12  -5  144.14    4.13
   1 -12  -5  309.18    7.58
   1 -12  -5  301.85    7.71
   0 -12  -5  212.87    5.48
   0 -12  -5  219.53    5.71
  -1 -12  -5  291.63    7.30
  -2 -12  -5   62.80    2.10
  15   0  -6  656.14   15.32
  14   0  -6   79.77    3.02
  13   0  -6  907.69   21.83
  12   0  -6    7.47    1.27
  11   0  -6  434.94   11.85
 -11   0   6  413.09   11.79
 -10   0   6    2.05    1.10
  -9   0   6  224.16   10.93
  -9   0   6  240.62    7.73
  -8   0   6   63.03    3.35
  -8   0   6   58.88    5.31
  -7   0   6   92.43    4.14
   7   0  -6   96.57    4.16
  -6   0   6  390.07   11.13
   6   0  -6  404.27   11.14
   6   0  -6  368.46   14.48
   5   0  -6  114.29    4.39
   5   0  -6  100.70    6.66
  -5   0   6  101.30    4.31
   4   0  -6  671.95   16.93
   4   0  -6  659.16   21.47
   3   0  -6   46.09    2.53
   2   0  -6  805.43   19.90
   2   0  -6  856.02   25.16
   1   0  -6  565.86   14.51
   1   0  -6  578.83   14.81
   1   0  -6  572.24   19.00
   0   0  -6  781.55   19.23
   0   0  -6  747.47   23.13
  -1   0  -6  732.63   21.42
  -1   0  -6  735.19   18.24
  -1   0  -6  756.15   18.65
  -1   0  -6  752.41   22.42
  -2   0  -6  218.46    6.97
  -2   0  -6  217.09    6.55
  -3   0  -6  198.21    6.59
  -3   0  -6  196.02    5.99
  -4   0  -6  124.44    4.85
  -4   0  -6  130.38    4.79
  -5   0  -6    4.11    1.06
  -5   0  -6    5.61    1.10
  -6   0  -6  209.45    6.87
  -6   0  -6  209.22    6.51
  -7   0  -6   10.52    1.39
  -7   0  -6   10.05    1.16
  -8   0  -6  394.42   10.24
  -8   0  -6  368.74    9.75
  -9   0  -6   33.77    1.84
 -10   0  -6  694.95   16.27
  15  -1  -6   11.71    0.83
  15   1  -6   16.49    1.01
  14  -1  -6    9.90    1.02
  14   1  -6   10.09    1.06
  13  -1  -6   10.74    1.23
  13   1  -6   11.22    1.28
  12  -1  -6    5.80    1.21
  11  -1  -6   16.52    1.68
 -11  -1   6   14.89    1.63
  10  -1  -6    2.31    1.14
 -10  -1   6    1.19    0.94
  -9  -1   6  133.05    8.01
   9  -1  -6  141.76    5.37
  -9  -1   6  129.48    5.18
   8  -1  -6   73.25    3.73
  -8  -1   6   79.83    3.77
  -8  -1   6   79.87    6.13
  -7  -1   6   66.67    3.36
   7   1  -6   66.52    3.35
   7  -1  -6   61.10    5.01
  -6  -1   6  115.10    4.70
   6   1  -6  121.87    4.65
   6  -1  -6  117.75    7.13
   5  -1  -6  120.00    4.66
   5   1  -6  121.82    4.61
   5  -1  -6  119.49    7.36
  -5  -1   6  116.98    4.69
   4  -1  -6  135.02    4.91
   4   1  -6  131.16    4.77
   4  -1  -6  129.81    4.42
   4  -1  -6  134.83    7.84
   3  -1  -6  264.37    7.90
   3   1  -6  269.50    7.79
   3  -1  -6  261.48   11.67
   2  -1  -6   84.84    3.56
   2   1  -6   81.97    3.37
   2  -1  -6   85.23    6.13
   1  -1  -6  140.58    4.87
   1   1  -6  132.15    4.56
   1  -1  -6  136.08    4.92
   1  -1  -6  143.35    7.90
   0  -1  -6  216.40    6.87
   0  -1  -6  235.66   10.30
  -1  -1  -6  227.60    9.58
  -1   1  -6  225.41    6.58
  -1  -1  -6  226.38    7.07
  -1  -1  -6  224.52    6.92
  -1  -1  -6  229.33   10.00
  -2  -1  -6   98.25    5.71
  -2  -1  -6  105.99    4.25
  -2  -1  -6  109.88    4.10
  -2  -1  -6  102.97    6.06
  -3  -1  -6  565.34   14.68
  -3  -1  -6  547.51   14.19
  -4  -1  -6  167.72    5.72
  -4  -1  -6  155.20    5.21
  -4   1  -6  158.55    5.35
  -4   1  -6  158.69    8.60
  -4  -1  -6  154.43    8.41
  -5  -1  -6   21.05    1.60
  -5  -1  -6   24.82    1.96
  -5  -1  -6   24.37    1.66
  -5   1  -6   22.05    1.69
  -5  -1  -6   24.78    1.95
  -6  -1  -6   84.25    3.25
  -6  -1  -6   88.92    3.90
  -6   1  -6   88.44    3.42
  -6  -1  -6   90.23    3.73
  -7  -1  -6  252.22    7.55
  -7   1  -6  232.70    6.76
  -7  -1  -6  249.94    7.23
  -8  -1  -6   55.05    2.61
  -8  -1  -6   51.74    2.41
  -9  -1  -6  122.72    3.96
  -9  -1  -6  116.90    3.73
 -10  -1  -6   94.28    2.87
 -10  -1  -6   78.85    2.53
  15   2  -6   70.95    2.39
  14  -2  -6  165.70    4.79
  14   2  -6  169.37    5.00
  13  -2  -6   89.16    3.41
  12  -2  -6  186.24    6.04
  11  -2  -6   71.89    3.46
  10  -2  -6  135.61    5.29
 -10   2   6  134.17    5.22
 -10  -2   6  139.75    5.23
  -9   2   6   52.74    5.00
  -9  -2   6   52.37    4.86
   9  -2  -6   58.89    3.23
  -9   2   6   54.36    3.07
  -9  -2   6   66.44    3.31
   8  -2  -6    0.94    1.00
  -8   2   6    1.72    1.45
  -8  -2   6   -0.84    1.46
  -8   2   6    0.56    0.92
  -8  -2   6    0.64    0.81
   8  -2  -6    0.46    1.15
  -7   2   6   51.74    2.98
  -7  -2   6   51.82    2.92
   7  -2  -6   51.70    3.03
   7   2  -6   50.80    2.81
   7  -2  -6   54.23    4.65
   6  -2  -6    0.97    1.02
   6   2  -6    0.64    0.82
  -6   2   6    0.63    0.88
  -6  -2   6    0.53    0.83
   6  -2  -6    1.58    1.47
   5   2  -6  184.23    5.98
   5  -2  -6  168.65    5.67
  -5   2   6  182.28    6.21
  -5  -2   6  179.66    6.19
   4   2  -6  530.02   13.52
   4  -2  -6  511.53   13.31
   4  -2  -6  536.36   18.24
   3  -2  -6  612.77   15.18
   3   2  -6  571.34   14.65
   3  -2  -6  573.08   14.51
   3  -2  -6  576.34   19.58
   2  -2  -6  293.00    8.72
   2   2  -6  297.49    8.27
   2   2  -6  311.72    8.73
   2  -2  -6  305.95    8.72
   2  -2  -6  297.39    8.18
   1   2  -6  341.73    9.45
   1   2  -6  365.29   10.07
   1  -2  -6  361.19   10.06
   1  -2  -6  381.39    9.63
   1  -2  -6  354.23   13.89
   0  -2  -6  359.20   10.27
   0   2  -6  378.79   10.29
   0  -2  -6  364.48   10.22
   0   2   6  378.34   13.15
   0  -2  -6  381.42   14.14
  -1  -2  -6  284.48   11.52
  -1   2  -6  288.66    8.53
  -1  -2  -6  288.76    8.52
  -1  -2  -6  296.46    8.56
  -1  -2  -6  305.69   12.04
  -2  -2  -6   85.73    5.38
  -2   2  -6   81.63    3.63
  -2  -2  -6   83.28    3.65
  -2  -2  -6   81.94    3.58
  -2  -2  -6   87.17    5.63
  -3   2  -6   65.17    3.20
  -3  -2  -6   66.45    3.23
  -3  -2  -6   63.54    3.03
  -3   2  -6   61.64    2.80
  -4   2  -6   13.35    1.50
  -4  -2  -6   14.06    1.49
  -4  -2  -6   13.82    1.40
  -4   2  -6   12.99    1.23
  -4   2  -6   12.09    2.35
  -4  -2  -6   17.43    2.71
  -5  -2  -6    7.47    1.08
  -5   2  -6    7.83    1.24
  -5  -2  -6    7.76    1.26
  -5   2  -6    6.80    0.95
  -6  -2  -6    7.76    1.08
  -6   2  -6    8.92    1.32
  -6  -2  -6    7.01    1.23
  -6  -2  -6   10.76    1.37
  -7  -2  -6   23.49    1.53
  -7  -2  -6   28.29    1.91
  -8   2  -6   50.54    2.43
  -8  -2  -6   52.53    2.44
  -8  -2  -6   48.83    2.35
  -9   2  -6  114.01    3.74
  -9  -2  -6  116.70    3.74
  -9  -2  -6  114.61    3.68
 -10   2  -6  154.85    4.29
 -10  -2  -6  146.04    4.18
  15  -3  -6    0.15    0.30
  14  -3  -6    7.69    0.70
  13  -3  -6   12.71    1.13
  12  -3  -6   52.81    2.60
  11  -3  -6    2.30    0.94
  10  -3  -6  112.12    4.52
 -10   3   6  107.96    4.39
 -10  -3   6  109.02    4.38
   9  -3  -6    4.76    1.22
  -9   3   6    4.73    1.14
  -9  -3   6    5.82    1.17
  -8   3   6  251.60   11.53
  -8  -3   6  263.14   11.57
   8  -3  -6  252.75    8.08
  -8   3   6  258.60    8.07
  -8  -3   6  251.57    7.94
   8  -3  -6  260.10   10.79
  -7   3   6   30.99    2.24
   7  -3  -6   32.96    2.38
  -7  -3   6   30.70    2.19
   7  -3  -6   35.19    3.80
  -6   3   6  437.77   11.96
  -6  -3   6  415.23   11.80
   6  -3  -6  439.09   11.99
   6   3  -6  416.70   11.57
   6  -3  -6  436.10   11.70
   6  -3  -6  454.36   16.00
   5  -3  -6    3.99    1.17
   5   3  -6    4.05    0.90
  -5   3   6    4.00    1.08
  -5  -3   6    4.98    1.03
   5  -3  -6    4.67    0.97
   5  -3  -6    3.44    1.69
   4  -3  -6  377.17   10.88
   4   3  -6  382.81   10.41
   4  -3  -6  410.99   10.68
   4  -3  -6  399.83   15.04
   3   3  -6   20.76    1.46
   3  -3  -6   18.37    1.49
   2   3  -6   34.69    2.10
   2  -3  -6   33.23    2.13
   2  -3  -6   32.23    1.94
   1   3  -6  140.74    4.90
   1  -3  -6  129.14    4.82
   1  -3  -6  140.42    4.72
   1  -3  -6  132.93    7.70
   0  -3  -6   41.82    4.00
   0  -3  -6   38.44    2.42
   0   3  -6   36.04    2.23
   0  -3  -6   38.59    2.27
   0   3   6   48.38    4.06
   0  -3  -6   34.72    1.97
   0  -3  -6   39.32    3.97
  -1  -3  -6  355.90   13.55
  -1   3  -6  372.07   10.14
  -1  -3  -6  376.55   10.15
  -1  -3  -6  371.60   10.31
   1   3   6  358.12   13.20
  -1  -3  -6  347.71    9.50
  -1  -3  -6  351.76   13.64
  -2  -3  -6    5.22    1.59
  -2  -3  -6    7.12    1.17
  -2   3  -6    7.47    1.17
  -2  -3  -6    7.08    1.12
  -2  -3  -6    7.21    1.82
  -3   3  -6  236.11    7.14
  -3  -3  -6  228.91    7.09
  -3  -3  -6  228.59    7.11
  -4   3  -6   41.77    2.50
  -4  -3  -6   41.02    2.43
  -4  -3  -6   44.57    2.51
  -5   3  -6  242.87    7.35
  -5  -3  -6  236.16    7.25
  -5  -3  -6  221.49    7.01
  -6  -3  -6    0.61    0.73
  -6  -3  -6    0.19    0.66
  -6   3  -6   -0.37    0.82
  -6  -3  -6    1.17    0.77
  -6  -3  -6    0.47    0.92
  -7  -3  -6   65.74    2.77
  -7   3  -6   67.17    2.92
  -7  -3  -6   65.35    2.87
  -7  -3  -6   66.75    3.03
  -8  -3  -6   16.42    1.19
  -8   3  -6   19.16    1.38
  -8  -3  -6   18.48    1.34
  -8  -3  -6   17.55    1.39
  -9   3  -6  149.74    4.34
  -9  -3  -6  149.24    4.34
  -9  -3  -6  154.23    4.51
 -10  -3  -6   10.98    0.78
  14   4  -6  454.52   10.16
  14  -4  -6  375.63   10.03
  13  -4  -6   28.21    1.43
  13  -4  -6   28.36    1.70
  12  -4  -6  552.93   13.70
  11  -4  -6    0.81    0.74
  10  -4  -6  282.60    8.41
   9  -4  -6    0.87    0.86
  -9   4   6    2.19    0.84
  -9  -4   6    0.16    0.74
   8  -4  -6  206.54    6.85
  -8   4   6  200.92    6.68
  -8  -4   6  199.22    6.60
   8  -4  -6  215.39    6.86
   7  -4  -6   27.46    2.14
   7   4  -6   24.67    1.84
  -7   4   6   23.87    1.88
  -7  -4   6   22.23    1.83
   7  -4  -6   23.36    1.94
   7  -4  -6   24.21    3.18
  -7   4   6   21.01    3.25
  -7  -4   6   22.46    3.11
   6  -4  -6    0.71    0.91
   6   4  -6    0.55    0.76
  -6   4   6   -0.08    0.78
  -6  -4   6    0.48    0.73
   6  -4  -6    0.66    0.91
   6  -4  -6   -1.03    1.31
  -5   4   6 1042.31   24.47
  -5  -4   6 1018.88   24.32
   5  -4  -6 1033.78   24.57
   5   4  -6  972.41   23.75
   5  -4  -6  962.17   24.14
   5  -4  -6  962.15   28.93
   4  -4  -6  232.85    7.37
   4  -4  -6  230.26    7.10
   4  -4  -6  218.99   10.56
  -4   4   6  237.54    7.36
  -4  -4   6  230.78    7.23
   3  -4  -6  563.26   14.91
   3   4  -6  563.89   14.48
   3  -4  -6  567.92   14.49
   3  -4  -6  583.97   14.57
   3  -4  -6  552.32   19.28
   2   4  -6  203.59    6.20
   2  -4  -6  193.77    6.14
  -2   4   6  185.48    9.07
   2  -4  -6  193.84    6.15
   1  -4  -6  376.79   14.68
   1   4  -6  386.98   10.65
   1  -4  -6  401.07   10.73
  -1   4   6  376.00   14.19
   1  -4  -6  423.84   10.86
   1  -4  -6  377.90   14.79
   0  -4  -6  425.31   15.56
   0   4  -6  430.65   11.42
   0  -4  -6  426.61   11.37
   0   4   6  416.36   15.05
   0  -4  -6  428.99   11.24
   0  -4  -6  424.62   15.65
  -1  -4  -6  328.51   12.84
  -1   4  -6  332.21    9.16
  -1  -4  -6  317.30    9.06
  -1  -4  -6  340.61    9.58
   1   4   6  320.21   12.51
  -1  -4  -6  305.25    8.75
  -1  -4  -6  328.84   12.78
  -2  -4  -6   61.25    5.00
  -2   4  -6   78.55    3.37
  -2  -4  -6   76.24    3.31
  -2  -4  -6   80.66    3.59
   2   4   6   61.24    4.89
  -2  -4  -6   72.67    3.02
  -2  -4  -6   74.75    5.27
  -3  -4  -6    2.72    0.92
  -3   4  -6    3.12    0.85
  -3  -4  -6    3.01    0.89
  -3  -4  -6    1.74    0.64
  -4  -4  -6    8.27    1.26
  -4   4  -6    8.02    1.17
  -4  -4  -6    5.55    1.02
  -5   4  -6   25.95    1.89
  -5  -4  -6   29.98    1.96
  -5  -4  -6   27.58    1.95
  -5  -4  -6   31.44    2.23
  -6  -4  -6   29.95    1.93
  -6  -4  -6   26.03    1.95
  -7  -4  -6   36.95    2.00
  -7   4  -6   37.76    1.94
  -7  -4  -6   38.42    1.97
  -8  -4  -6   14.77    1.11
  -8   4  -6   12.13    1.01
  -8  -4  -6   14.35    1.05
  -9  -4  -6  333.07    8.01
  14   5  -6   16.79    0.89
  14  -5  -6   16.37    0.96
  13   5  -6   21.75    1.25
  13  -5  -6   22.25    1.36
  12  -5  -6    5.85    0.72
  12  -5  -6    4.50    0.89
  11  -5  -6   35.75    1.98
  11  -5  -6   45.20    2.47
  10  -5  -6    0.62    0.72
   9  -5  -6  238.20    7.33
  -9   5   6  230.63    7.03
   8  -5  -6   60.73    3.14
  -8   5   6   58.33    2.90
  -8  -5   6   62.77    2.92
   7   5  -6  571.07   14.96
  -7   5   6  575.53   15.29
  -7  -5   6  584.00   15.23
   6  -5  -6    7.53    1.26
  -6   5   6    2.87    1.72
  -6   5   6    7.45    1.15
  -6  -5   6    6.87    1.03
   6  -5  -6   10.06    1.39
   6  -5  -6    5.31    1.75
  -5   5   6  493.22   13.00
  -5  -5   6  491.84   12.86
   5  -5  -6  492.23   13.29
   5  -5  -6  491.15   13.11
   5  -5  -6  487.02   17.32
   4  -5  -6    6.53    1.24
  -4   5   6    5.43    1.03
  -4  -5   6    8.27    1.11
   4   5  -6    5.79    0.95
   4  -5  -6    5.85    0.94
   4  -5  -6    6.01    1.11
   4  -5  -6    4.87    1.89
   3  -5  -6  169.89    9.00
   3   5  -6  154.31    5.07
   3  -5  -6  150.89    5.05
   3  -5  -6  156.77    5.37
   3  -5  -6  160.38    8.72
  -3   5   6  156.76    5.39
  -3  -5   6  154.19    5.29
   2  -5  -6  197.55    5.85
   2  -5  -6  206.02    6.69
   2   5  -6  189.62    5.97
   2  -5  -6  198.72    6.05
  -2   5   6  200.23    9.50
   2  -5  -6  189.41    6.27
   1   5  -6  135.99    4.64
   1  -5  -6  130.04    4.58
   1  -5  -6  134.51    5.13
   1  -5  -6  142.79    4.92
   1  -5  -6  132.60    7.83
   0  -5  -6  339.00   13.63
   0   5  -6  351.74    9.55
   0  -5  -6  347.48    9.51
   0  -5  -6  352.62   10.16
   0   5   6  335.30   13.29
   0  -5  -6  360.67    9.71
   0  -5  -6  342.72   13.65
  -1  -5  -6   40.07    4.08
  -1   5  -6   33.98    2.07
  -1  -5  -6   35.96    2.08
   1   5   6   39.22    3.99
  -1  -5  -6   39.31    2.19
  -1  -5  -6   33.65    3.72
  -2   5  -6  600.82   15.15
  -2  -5  -6  587.38   15.09
  -2  -5  -6  621.91   15.14
  -3   5  -6   11.28    1.22
  -3  -5  -6   10.59    1.20
  -3  -5  -6   12.45    1.50
  -3  -5  -6   11.40    1.19
  -4   5  -6  361.50    9.71
  -4  -5  -6  345.82    9.62
  -4  -5  -6  379.32   10.22
  -4  -5  -6  365.02   10.24
  -4  -5  -6  347.94    9.39
  -5  -5  -6    9.00    1.26
  -5  -5  -6   12.69    1.52
  -6  -5  -6  434.34   11.05
  -6  -5  -6  432.45   11.15
  -7  -5  -6   22.14    1.52
  -7  -5  -6   21.85    1.25
  -7  -5  -6   25.84    1.66
  -8  -5  -6  215.83    5.84
  -8  -5  -6  215.12    5.97
  -9  -5  -6    1.19    0.37
  -9  -5  -6    2.04    0.48
  13  -6  -6  128.69    3.69
  12  -6  -6   53.59    2.30
  11  -6  -6  151.65    4.95
  10  -6  -6    1.93    0.67
  10  -6  -6    1.12    0.91
   9  -6  -6    8.05    1.11
   9  -6  -6    8.47    1.31
   8  -6  -6    2.37    0.91
   7  -6  -6   16.34    1.60
   5  -6  -6   51.07    2.75
  -4   6   6  155.34    5.09
   4  -6  -6  159.61    8.90
   4  -6  -6  157.11    5.60
   4  -6  -6  156.43    5.41
   4  -6  -6  139.63    8.21
  -3   6   6   53.56    2.58
   3  -6  -6   57.92    2.64
   3  -6  -6   51.85    4.87
   3  -6  -6   56.68    3.05
   3  -6  -6   53.49    2.81
   3  -6  -6   48.69    4.69
   2  -6  -6  278.94    7.93
   2  -6  -6  303.78   12.57
   2  -6  -6  296.55    8.76
  -2   6   6  263.81   11.59
   2  -6  -6  306.48    8.63
  -2   6   6  281.00    8.10
   1  -6  -6  147.45    4.80
   1  -6  -6  163.27    5.73
  -1   6   6  170.82    8.56
   1  -6  -6  168.14    5.48
   1  -6  -6  150.74    8.40
   0  -6  -6  179.84    6.13
   0  -6  -6  173.44    5.73
  -1  -6  -6  145.91    5.31
  -1  -6  -6  140.04    4.87
  -2  -6  -6  253.92    7.90
  -2  -6  -6  259.82    7.47
  -3  -6  -6   80.30    3.23
  -4  -6  -6    1.81    0.93
  -4  -6  -6    2.30    0.71
  -5  -6  -6    0.34    0.74
  -5  -6  -6   -0.34    0.77
  -6  -6  -6    0.47    0.72
  -6  -6  -6    0.35    0.68
  -7  -6  -6    9.95    1.01
  -7  -6  -6    9.78    1.00
  -8  -6  -6  135.40    3.92
  -8  -6  -6  139.09    3.96
  12  -7  -6    6.10    0.67
  12  -7  -6    7.63    0.74
  11  -7  -6   81.57    2.98
  10  -7  -6   63.01    2.76
   9  -7  -6  134.63    4.35
   9  -7  -6  143.38    4.84
   8  -7  -6   39.00    2.19
   8  -7  -6   38.48    2.32
   7  -7  -6  253.74    7.57
   7  -7  -6  254.00    7.64
   6  -7  -6    2.96    0.95
   5  -7  -6  119.97    4.30
   5  -7  -6  115.70    4.52
   4  -7  -6   48.36    2.47
   4  -7  -6   52.69    2.82
   4  -7  -6   51.27    2.79
   3  -7  -6  130.40    4.55
   3  -7  -6  134.41    5.01
   2  -7  -6    3.79    0.77
   2  -7  -6    3.14    1.01
   2  -7  -6    3.72    1.02
   1  -7  -6    4.34    0.76
   1  -7  -6    4.78    1.11
   1  -7  -6    6.32    1.05
   0  -7  -6  110.59    4.42
   0  -7  -6  108.95    4.13
  -1  -7  -6    4.85    1.13
  -1  -7  -6    3.85    0.93
  -2  -7  -6  172.06    5.81
  -2  -7  -6  171.75    5.46
  -3  -7  -6  106.67    4.16
  -3  -7  -6  103.89    4.03
  -3  -7  -6  112.13    3.90
  -4  -7  -6  282.43    8.14
  -4  -7  -6  296.15    8.09
  -4  -7  -6  277.18    7.68
  -5  -7  -6   77.93    2.99
  -5  -7  -6   69.18    2.65
  -6  -7  -6  338.88    8.71
  -7  -7  -6   74.51    2.49
  -8  -7  -6   71.11    2.18
  11  -8  -6   63.10    2.26
  11  -8  -6   64.70    2.27
  10  -8  -6   12.59    1.09
   9  -8  -6   15.01    1.31
   8  -8  -6   32.98    1.91
   8  -8  -6   30.64    1.95
   7  -8  -6   -0.31    0.70
   7  -8  -6    0.61    0.62
   7  -8  -6   -0.14    0.78
   6  -8  -6   96.80    3.66
   6  -8  -6   94.20    3.69
   6  -8  -6   94.27    3.81
   5  -8  -6   13.65    1.34
   5  -8  -6   15.23    1.43
   5  -8  -6   16.13    1.65
   4  -8  -6   78.70    3.20
   4  -8  -6   81.67    3.43
   3  -8  -6    9.32    1.09
   3  -8  -6    8.33    1.20
   2  -8  -6   45.05    2.16
   2  -8  -6   46.13    2.53
   2  -8  -6   45.38    2.45
   1  -8  -6   39.05    1.93
   1  -8  -6   44.17    2.44
   1  -8  -6   40.06    2.28
   0  -8  -6   39.27    2.28
   0  -8  -6   35.42    2.10
  -1  -8  -6   78.84    3.39
  -1  -8  -6   79.09    3.23
  -2  -8  -6  103.34    3.91
  -2  -8  -6   93.29    3.60
  -2  -8  -6  103.89    3.69
  -3  -8  -6   49.51    2.52
  -3  -8  -6   53.26    2.40
  -3  -8  -6   56.41    2.42
  -4  -8  -6    0.45    0.68
  -4  -8  -6    0.09    0.58
  -4  -8  -6    1.35    0.57
  -5  -8  -6   11.70    1.08
  -5  -8  -6    9.85    0.89
  -5  -8  -6   10.78    0.90
  -6  -8  -6   19.32    1.16
  -6  -8  -6   15.87    0.95
  -7  -8  -6    0.05    0.29
 -10   9   6  212.56    5.48
  10  -9  -6  215.82    5.61
  10  -9  -6  226.42    5.60
   9  -9  -6   62.16    2.36
   8  -9  -6  395.75   10.16
   7  -9  -6  136.53    4.42
   7  -9  -6  141.98    4.58
   6  -9  -6  659.43   16.32
   6  -9  -6  693.38   16.61
   5  -9  -6   23.65    1.53
   5  -9  -6   20.45    1.41
   5  -9  -6   25.12    1.71
   4  -9  -6  296.83    8.16
   4  -9  -6  299.39    8.31
   3  -9  -6    0.54    0.61
   3  -9  -6    0.12    0.65
   2  -9  -6  123.32    3.98
   2  -9  -6  129.78    4.37
   1  -9  -6   65.92    2.52
   1  -9  -6   70.91    2.96
   0  -9  -6   35.29    1.98
   0  -9  -6   29.30    1.66
   0  -9  -6   35.14    1.93
  -1  -9  -6  358.53    8.85
  -1  -9  -6  349.31    8.71
  -2  -9  -6    2.12    0.74
  -2  -9  -6    1.73    0.54
  -2  -9  -6    1.60    0.66
  -3  -9  -6  500.76   11.54
  -3  -9  -6  491.12   11.36
  -4  -9  -6    9.11    0.88
  -4  -9  -6    7.69    0.79
  -5  -9  -6  377.57    9.17
   8 -10  -6   40.25    1.61
   7 -10  -6    4.45    0.66
   7 -10  -6    5.26    0.71
   6 -10  -6    9.10    0.86
   6 -10  -6    8.48    0.91
   5 -10  -6   75.12    2.69
   5 -10  -6   74.90    2.81
   4 -10  -6    1.31    0.56
   4 -10  -6    1.64    0.70
   3 -10  -6   36.91    1.73
   3 -10  -6   40.57    1.96
   2 -10  -6    4.24    0.64
   2 -10  -6    5.04    0.71
   2 -10  -6    6.06    0.86
   1 -10  -6   38.53    1.79
  -1 -10  -6   49.11    2.07
  -2 -10  -6   29.23    1.42
  -2 -10  -6   30.80    1.47
  -3 -10  -6    8.75    0.72
  -3 -10  -6    8.77    0.77
   5 -11  -6   83.15    2.47
   5 -11  -6   78.98    2.54
   4 -11  -6   60.24    1.98
   4 -11  -6   61.08    2.15
   3 -11  -6    0.14    0.30
   3 -11  -6    0.82    0.42
   2 -11  -6    0.30    0.27
   2 -11  -6    0.16    0.43
   1 -11  -6   15.62    0.98
   0 -11  -6   20.60    1.10
  14   0  -7    0.08    0.34
  13   0  -7   -0.04    0.52
  13   0  -7    0.03    0.39
  12   0  -7    0.60    0.68
 -11   0   7    0.28    0.61
 -10   0   7   -0.55    0.81
   9   0  -7    0.48    0.93
  -9   0   7    0.67    0.83
   8   0  -7   -0.17    0.89
  -8   0   7    0.18    0.87
   8   0  -7   -0.22    0.54
   7   0  -7    0.42    0.87
  -7   0   7   -0.45    0.95
   7   0  -7   -0.05    0.51
   6   0  -7   -0.17    0.89
  -6   0   7    0.55    0.94
   5   0  -7   -0.16    0.87
  -5   0   7    2.13    1.05
   4   0  -7    1.32    0.77
   3   0  -7   -0.15    0.71
   3   0  -7   -0.08    0.90
   2   0  -7    0.50    0.84
   1   0  -7    0.78    0.74
   1   0  -7    0.49    0.84
   0   0  -7    0.73    0.64
   0   0  -7    0.49    0.85
  -1   0  -7    0.06    0.57
  -1   0  -7    0.08    0.89
  -2   0  -7    0.05    0.53
  -2   0  -7   -0.16    0.75
  -3   0  -7   -0.08    0.88
  -3   0  -7    0.75    0.86
  -4   0  -7   -0.38    0.83
  -4   0  -7    0.74    0.75
  -5   0  -7    0.14    0.75
  -5   0  -7    0.72    0.64
  -6   0  -7   -0.06    0.68
  -7   0  -7    0.09    0.61
  -8   0  -7    0.30    0.43
  14  -1  -7   36.58    1.45
  14   1  -7   40.21    1.53
  13  -1  -7    0.73    0.52
  13  -1  -7    0.13    0.38
  12  -1  -7  117.91    3.77
  12  -1  -7   90.05    3.28
  11  -1  -7   92.57    3.55
  11   1  -7   79.05    3.38
  10  -1  -7  560.26   14.46
  10   1  -7  549.06   14.36
 -10  -1   7  561.87   14.49
   9   1  -7  119.79    4.50
  -9  -1   7  121.20    4.58
   9  -1  -7  107.34    4.01
   8   1  -7  438.26   11.82
  -8  -1   7  449.82   12.04
   8  -1  -7  417.39   11.26
  -7  -1   7   37.11    2.43
   7  -1  -7   34.65    2.35
   7   1  -7   34.27    2.26
   7  -1  -7   33.38    1.96
  -6  -1   7  624.48   16.05
   6  -1  -7  635.70   15.99
   6   1  -7  605.76   15.69
   6  -1  -7  592.70   15.06
   5  -1  -7   29.20    2.14
   5   1  -7   27.15    1.97
   5  -1  -7   21.15    3.17
  -5  -1   7   27.91    2.18
   4  -1  -7  615.73   15.53
   4   1  -7  588.76   15.21
   4  -1  -7  579.99   20.00
   3  -1  -7   20.33    1.70
   3   1  -7   19.61    1.56
   3  -1  -7   19.26    1.73
   2  -1  -7  132.68    4.95
   2  -1  -7  136.16    7.88
   1   1  -7  153.22    5.09
   1  -1  -7  160.15    5.46
   1  -1  -7  164.23    5.61
   1  -1  -7  158.27    8.41
   0  -1  -7   32.04    2.19
   0   1  -7   27.98    1.73
   0  -1  -7   32.44    2.05
  -1  -1  -7  305.62    8.85
  -1  -1  -7  292.83    8.43
  -2  -1  -7    4.52    0.89
  -2  -1  -7    5.07    1.06
  -2   1  -7    3.59    0.83
  -3  -1  -7  799.52   19.38
  -3  -1  -7  762.85   18.61
  -3   1  -7  747.28   18.63
  -3  -1  -7  809.68   19.22
  -4  -1  -7  265.58    7.76
  -4  -1  -7  250.20    7.46
  -5  -1  -7  579.46   14.28
  -5  -1  -7  535.56   13.81
  -6  -1  -7   75.15    3.07
  -6  -1  -7   73.91    2.78
  -7  -1  -7  393.00    9.63
  -7  -1  -7  365.19    9.20
  -8  -1  -7    3.33    0.57
  14   2  -7   13.97    0.83
  13  -2  -7  131.07    3.60
  13   2  -7  128.07    3.65
  12  -2  -7   16.91    1.31
  12   2  -7   19.12    1.35
  12  -2  -7   15.35    1.20
  11  -2  -7   82.78    3.26
  11   2  -7   81.48    3.22
  10  -2  -7    7.40    1.17
  10   2  -7    7.99    1.17
 -10   2   7    7.84    1.15
 -10  -2   7    7.01    1.10
  10  -2  -7    8.11    1.07
   9  -2  -7   52.27    2.84
   9   2  -7   54.77    2.79
  -9   2   7   54.26    2.84
  -9  -2   7   55.05    2.87
   9  -2  -7   54.20    2.62
   8  -2  -7   32.71    2.25
   8   2  -7   30.81    2.10
  -8   2   7   30.06    2.17
  -8  -2   7   35.66    2.31
   8  -2  -7   27.15    1.86
   7   2  -7    3.51    0.95
  -7   2   7    3.31    1.05
  -7  -2   7    3.17    0.97
   7  -2  -7    3.71    0.86
  -6   2   7  131.92    5.17
  -6  -2   7  135.69    5.15
   6   2  -7  145.76    4.94
   6  -2  -7  136.17    4.64
   5  -2  -7    4.80    1.09
   5   2  -7    4.26    0.92
  -5   2   7    4.78    1.09
  -5  -2   7    3.47    1.04
   5  -2  -7    5.01    0.86
   5  -2  -7    4.91    1.77
   4  -2  -7  111.56    4.46
   4   2  -7  117.97    4.16
   4   2  -7  109.39    4.33
   4  -2  -7  112.93    4.40
   4  -2  -7  108.47    3.85
   4  -2  -7  111.12    7.15
  -4   2   7  111.91    4.57
  -4  -2   7  115.45    4.63
   3  -2  -7   11.34    1.39
   3   2  -7    9.35    1.06
   3   2  -7   12.33    1.42
   3  -2  -7   11.19    1.37
   2   2  -7   17.85    1.64
   2  -2  -7   16.85    1.61
   2  -2  -7   12.64    2.57
   1   2  -7   47.52    2.61
   1  -2  -7   45.29    2.56
   1  -2  -7   43.96    2.57
   1  -2  -7   46.91    4.39
   0  -2  -7    0.78    0.74
   0   2  -7    0.39    0.76
   0  -2  -7    1.26    0.85
  -1   2  -7   24.65    1.91
  -1  -2  -7   25.00    1.93
  -1  -2  -7   23.15    1.77
  -2   2  -7   41.96    2.47
  -2  -2  -7   41.81    2.43
  -2  -2  -7   42.24    2.32
  -3  -2  -7    2.04    0.72
  -3   2  -7    2.61    0.95
  -3  -2  -7    3.19    0.92
  -3  -2  -7    2.57    1.00
  -4  -2  -7    8.16    1.15
  -4  -2  -7    6.01    0.89
  -4   2  -7    7.71    1.16
  -4  -2  -7    6.90    1.14
  -5   2  -7   90.74    3.59
  -5  -2  -7   85.40    3.51
  -5  -2  -7   94.66    3.53
  -6  -2  -7  140.55    4.42
  -7   2  -7   34.29    1.66
  -7  -2  -7   33.98    1.66
  -7  -2  -7   34.80    1.59
  -8   2  -7  153.80    3.93
  -8  -2  -7  151.38    3.92
  13  -3  -7   41.40    1.57
  13   3  -7   45.18    1.68
  12  -3  -7   24.49    1.43
  12   3  -7   24.76    1.43
  12  -3  -7   24.73    1.43
  11  -3  -7  293.55    7.99
  11   3  -7  295.76    7.93
  11  -3  -7  281.38    7.86
  10  -3  -7   99.24    3.77
  10   3  -7   94.36    3.59
 -10   3   7   88.85    3.64
 -10  -3   7   91.27    3.63
  10  -3  -7   91.20    3.53
   9  -3  -7  432.23   11.25
   9   3  -7  417.67   10.89
  -9  -3   7  416.81   11.09
   9  -3  -7  402.20   10.84
   8  -3  -7    1.36    0.94
   8   3  -7    1.67    0.78
  -8   3   7    1.58    0.88
  -8  -3   7    2.01    0.78
   8  -3  -7    1.47    0.80
   7  -3  -7  604.87   15.81
   7   3  -7  611.20   15.37
  -7   3   7  599.23   15.74
  -7  -3   7  612.41   15.78
   7  -3  -7  630.29   15.45
  -6   3   7   25.05    1.97
  -6  -3   7   27.67    2.03
   6  -3  -7   24.87    2.02
   6   3  -7   24.87    1.70
   6  -3  -7   24.46    1.73
  -5   3   7  210.84    6.81
  -5  -3   7  205.60    6.71
   5   3  -7  197.74    6.12
   5  -3  -7  212.09    6.27
   4   3  -7   41.37    2.12
   4   3  -7   47.76    2.56
   4  -3  -7   45.34    2.49
   4  -3  -7   44.89    2.28
  -4   3   7   47.40    2.76
  -4  -3   7   48.76    2.72
   3   3  -7  260.70    7.81
   3  -3  -7  265.57    7.83
   3  -3  -7  260.52    7.48
   2  -3  -7  102.72    4.19
   2   3  -7   96.56    3.89
   2  -3  -7  105.66    4.05
   2  -3  -7   93.00    3.46
   1   3  -7   41.09    2.36
   1  -3  -7   39.20    2.33
   1  -3  -7   37.58    2.41
   0   3  -7  388.14   10.61
   0  -3  -7  378.50   10.54
   0  -3  -7  393.69   10.79
  -1  -3  -7    5.76    1.08
  -1   3  -7    6.15    1.07
  -1  -3  -7    5.08    1.00
  -2   3  -7  640.62   16.25
  -2  -3  -7  642.03   16.26
  -2  -3  -7  653.28   16.26
  -3   3  -7   29.55    1.95
  -3  -3  -7   26.94    1.85
  -3  -3  -7   25.02    1.75
  -3  -3  -7   30.63    2.10
  -4  -3  -7  676.51   16.86
  -4   3  -7  711.27   17.24
  -4  -3  -7  703.55   17.23
  -4  -3  -7  682.93   16.91
  -4  -3  -7  722.89   17.42
  -5   3  -7   77.14    3.08
  -5  -3  -7   76.96    3.06
  -5  -3  -7   76.08    3.13
  -6   3  -7  626.06   15.35
  -6  -3  -7  635.39   15.37
  -6  -3  -7  669.57   15.56
  -7   3  -7   48.61    1.87
  -7  -3  -7   48.28    1.87
  13  -4  -7   13.29    0.81
  12  -4  -7   91.64    2.86
  12   4  -7   88.38    2.81
  12  -4  -7   83.29    2.92
  11  -4  -7    6.48    0.87
  11   4  -7    6.13    0.79
  11  -4  -7    5.28    0.82
  10  -4  -7    1.79    0.80
  10   4  -7    1.69    0.66
  10  -4  -7    2.12    0.79
   9  -4  -7    7.22    1.14
   9   4  -7    5.29    0.89
  -9   4   7    5.41    0.94
  -9  -4   7    6.01    0.95
   9  -4  -7    6.09    1.05
   8  -4  -7   41.05    2.37
   8   4  -7   39.17    2.03
  -8   4   7   37.75    2.20
  -8  -4   7   35.75    2.17
   8  -4  -7   39.06    2.22
   7  -4  -7   63.97    3.10
   7   4  -7   54.23    2.50
  -7   4   7   57.99    2.86
  -7  -4   7   62.39    2.93
   7  -4  -7   63.54    2.86
   6  -4  -7   10.90    1.40
  -6   4   7   10.45    1.27
  -6  -4   7    8.77    1.16
   6   4  -7    8.67    1.10
   6  -4  -7    8.61    1.13
   6  -4  -7    7.01    1.07
   5  -4  -7    2.96    1.03
  -5   4   7    4.33    0.96
  -5  -4   7    2.81    0.85
   5   4  -7    3.73    0.85
   5  -4  -7    3.23    0.86
   5  -4  -7    4.58    0.91
  -4   4   7    1.28    0.75
  -4  -4   7    1.77    0.76
   4   4  -7    1.56    0.75
   4  -4  -7    1.16    0.80
   4  -4  -7    1.05    0.77
   3   4  -7   51.76    2.59
   3  -4  -7   52.72    2.61
   3  -4  -7   57.72    2.64
  -3   4   7   51.61    2.85
  -3  -4   7   53.28    2.79
   2   4  -7   57.86    2.71
   2  -4  -7   56.50    2.69
   2  -4  -7   55.11    2.52
   1   4  -7   73.28    3.15
   1  -4  -7   72.77    3.16
   1  -4  -7   78.09    3.51
   1  -4  -7   71.81    2.89
   0   4  -7   34.65    2.11
   0  -4  -7   33.50    2.03
  -1   4  -7  158.40    5.23
  -1  -4  -7  161.07    5.25
  -1  -4  -7  160.06    5.48
  -2   4  -7  234.10    6.77
  -2  -4  -7  217.40    6.66
  -2  -4  -7  229.29    6.93
  -3   4  -7   45.05    2.31
  -3  -4  -7   47.80    2.35
  -3  -4  -7   48.08    2.43
  -4  -4  -7    9.41    1.05
  -4   4  -7    9.25    1.01
  -4  -4  -7   10.17    1.09
  -4  -4  -7    9.87    1.10
  -5  -4  -7   19.79    1.32
  -6  -4  -7   22.08    1.18
  11  -5  -7   92.02    3.13
  10  -5  -7   53.27    2.08
  10  -5  -7   65.07    2.58
   9  -5  -7  424.77   10.81
   9  -5  -7  391.54   10.19
   9  -5  -7  426.45   10.75
   8  -5  -7  186.69    5.77
   8  -5  -7  174.57    5.19
   8  -5  -7  191.93    5.67
  -7   5   7  366.10   10.20
   7   5  -7  371.61    9.93
   7  -5  -7  400.14   10.06
  -6   5   7   34.61    2.00
  -6  -5   7   29.53    1.87
   6   5  -7   31.09    1.80
   6  -5  -7   37.78    1.94
   6  -5  -7   34.62    2.04
   5  -5  -7  397.08   10.31
  -5   5   7  419.09   10.87
  -5  -5   7  408.63   10.77
   5   5  -7  386.25   10.45
   5  -5  -7  406.49   10.55
   5  -5  -7  428.10   10.90
  -4   5   7  106.04    3.97
  -4  -5   7  100.00    3.83
   4  -5  -7   98.03    4.14
   4   5  -7   98.91    3.62
   4  -5  -7  103.46    3.72
   4  -5  -7  113.99    4.07
  -3   5   7  138.47    4.89
  -3  -5   7  141.73    4.86
   3   5  -7  140.40    4.62
   3  -5  -7  142.69    4.66
   3  -5  -7  147.95    5.25
   3  -5  -7  145.66    4.81
   2  -5  -7    7.95    0.98
  -2   5   7    5.72    1.02
   2  -5  -7    8.01    1.33
   2   5  -7    6.72    0.93
   2  -5  -7    8.79    1.06
  -2  -5   7    8.77    1.11
   1   5  -7   27.42    1.73
   1  -5  -7   31.03    1.80
   1  -5  -7   29.29    1.73
  -1  -5   7   26.69    1.80
   0   5  -7  158.29    5.01
   0  -5  -7  161.76    5.04
   0  -5  -7  161.47    4.91
  -1  -5  -7    0.80    0.84
  -1   5  -7    1.08    0.61
  -1  -5  -7    0.60    0.62
  -2  -5  -7   58.61    2.52
  -2  -5  -7   63.44    2.92
  -3  -5  -7    2.90    0.86
  -3  -5  -7    3.68    0.73
  -3  -5  -7    3.12    0.91
  -4  -5  -7  256.73    7.18
  -4  -5  -7  256.08    7.22
  -4  -5  -7  267.46    7.41
  -5  -5  -7   45.11    2.01
  -5  -5  -7   47.32    2.13
  -6  -5  -7  150.42    4.25
  -6  -5  -7  166.82    4.54
  -7  -5  -7   25.40    1.14
  11  -6  -7    0.15    0.37
  10  -6  -7   10.11    0.87
   9  -6  -7   53.26    2.34
   9  -6  -7   58.79    2.47
   8  -6  -7    7.56    1.05
   8  -6  -7    6.78    0.98
   7  -6  -7   65.67    2.65
   7  -6  -7   67.40    2.98
   7  -6  -7   69.92    2.92
   6  -6  -7    9.66    1.02
   6  -6  -7   11.28    1.31
   6  -6  -7   13.14    1.30
   5  -6  -7   64.71    3.00
   5  -6  -7   63.25    2.85
   4  -6  -7   37.02    2.30
   4  -6  -7   38.79    2.17
   3  -6  -7  121.94    4.55
   3  -6  -7  121.31    4.22
   2  -6  -7  170.03    5.72
   2  -6  -7  174.07    5.35
   1  -6  -7   49.94    2.64
   1  -6  -7   47.89    2.26
   0  -6  -7  132.92    4.71
   0  -6  -7  129.51    4.20
  -2  -6  -7  118.37    4.22
  -3  -6  -7    0.72    0.69
  -3  -6  -7    1.14    0.74
  -4  -6  -7   69.49    2.73
  -4  -6  -7   73.96    2.80
  -5  -6  -7   43.70    1.82
  -5  -6  -7   43.60    1.86
  -6  -6  -7   22.22    1.04
  -6  -6  -7   24.44    1.15
  11  -7  -7    0.12    0.29
  10  -7  -7  138.51    3.86
   9  -7  -7   11.84    0.92
   9  -7  -7   10.30    0.78
   8  -7  -7  198.13    5.38
   8  -7  -7  184.54    5.36
   7  -7  -7    6.89    0.81
   7  -7  -7    6.68    0.92
   7  -7  -7    6.75    0.98
   6  -7  -7  320.92    8.54
   6  -7  -7  323.27    8.98
   5  -7  -7    3.57    0.67
   5  -7  -7    5.07    0.96
   5  -7  -7    3.39    0.82
   4  -7  -7  131.81    4.57
   4  -7  -7  132.27    4.38
   3  -7  -7   79.14    3.32
   3  -7  -7   82.43    3.15
   2  -7  -7   31.97    2.01
   2  -7  -7   33.11    1.82
   1  -7  -7  215.55    6.54
   1  -7  -7  218.03    6.17
   0  -7  -7   16.38    1.42
   0  -7  -7   17.80    1.25
  -1  -7  -7  418.27   10.77
  -1  -7  -7  406.65   10.20
  -2  -7  -7    3.59    0.80
  -2  -7  -7    4.65    0.84
  -3  -7  -7  277.55    7.36
  -4  -7  -7    2.18    0.58
  -5  -7  -7  318.53    7.46
  -5  -7  -7  292.28    7.35
   9  -8  -7   80.66    2.51
   9  -8  -7   96.57    2.79
   8  -8  -7   -0.03    0.36
   7  -8  -7    7.31    0.70
   7  -8  -7    6.64    0.67
   6  -8  -7   40.12    1.65
   6  -8  -7   38.54    1.81
   6  -8  -7   39.55    1.91
   5  -8  -7    7.02    0.88
   5  -8  -7    6.67    0.88
   4  -8  -7  221.53    6.27
   4  -8  -7  218.19    6.16
   3  -8  -7  132.97    4.33
   3  -8  -7  135.24    4.23
   2  -8  -7  153.98    4.88
   2  -8  -7  163.00    4.76
   1  -8  -7  166.61    5.05
   1  -8  -7  162.45    4.79
   0  -8  -7  206.99    5.74
   0  -8  -7  204.96    5.42
  -1  -8  -7  155.49    4.43
  -1  -8  -7  145.53    4.01
  -2  -8  -7  106.10    3.26
  -2  -8  -7   87.18    2.91
  -3  -8  -7   34.44    1.51
  -3  -8  -7   27.57    1.23
  -4  -8  -7    3.12    0.46
   7  -9  -7    0.17    0.37
   6  -9  -7    4.95    0.48
   4  -9  -7  112.39    3.56
   4  -9  -7  151.52    3.95
   3  -9  -7   11.30    0.89
   3  -9  -7   11.43    0.92
   2  -9  -7    5.94    0.74
   2  -9  -7    6.75    0.73
   1  -9  -7   17.67    1.09
   1  -9  -7   17.77    1.07
   0  -9  -7    0.29    0.37
   0  -9  -7   -0.03    0.38
  -1  -9  -7    1.05    0.44
  -2  -9  -7    0.14    0.30
  12   0  -8    3.50    0.49
  11   0  -8   77.22    2.65
  10   0  -8    0.46    0.53
 -10   0   8    0.16    0.50
   9   0  -8    3.54    0.78
  -9   0   8    2.98    0.71
   8   0  -8    1.87    0.71
  -8   0   8    2.64    0.81
   7   0  -8    4.47    0.88
  -7   0   8    3.04    0.86
   7   0  -8    4.29    0.94
  -6   0   8  189.09    6.06
   6   0  -8  183.73    5.70
   6   0  -8  181.71    5.83
  -5   0   8  221.98    6.90
   5   0  -8  219.43    6.72
  -4   0   8  227.70    7.09
   4   0  -8  224.48    6.89
   3   0  -8  259.11    7.37
   3   0  -8  270.96    7.77
  -3   0   8  258.84    7.93
   2   0  -8  137.80    4.73
   2   0  -8  128.57    4.29
   1   0  -8  487.44   12.68
   0   0  -8  148.49    5.01
  -1   0  -8  472.60   12.23
  -2   0  -8   69.78    2.93
  -3   0  -8   35.35    1.90
  -4   0  -8   95.13    3.29
  -5   0  -8   97.88    3.08
  12  -1  -8   23.63    1.05
  12   1  -8   21.88    0.98
  12  -1  -8   16.51    0.91
  11   1  -8    2.83    0.57
  10   1  -8   34.72    1.68
 -10  -1   8   31.73    1.75
   9  -1  -8   41.76    2.09
   9   1  -8   39.41    1.95
  -9  -1   8   42.18    2.13
   8  -1  -8  152.49    5.01
   8   1  -8  160.02    4.91
  -8  -1   8  158.48    5.20
   8  -1  -8  162.96    5.09
   7   1  -8    7.82    0.99
   7  -1  -8    6.99    1.03
   7  -1  -8    7.96    1.09
  -7  -1   8    6.71    1.04
   6  -1  -8   55.09    2.61
   6   1  -8   54.80    2.45
  -6  -1   8   52.84    2.72
   6  -1  -8   54.22    2.63
  -5  -1   8   94.49    3.83
   5  -1  -8   91.44    3.64
  -4  -1   8   51.43    2.72
   4   1  -8   50.77    2.32
   4  -1  -8   52.31    2.55
   4  -1  -8   50.51    2.57
   3  -1  -8   38.24    2.14
   3  -1  -8   40.22    2.27
  -3  -1   8   41.62    2.42
   2  -1  -8   91.05    3.62
   2  -1  -8   88.81    3.43
   1  -1  -8   74.13    3.19
   1  -1  -8   75.32    2.96
   0  -1  -8   76.80    3.22
  -1  -1  -8   73.40    3.03
  -1  -1  -8   67.63    2.81
  -2  -1  -8  117.03    3.94
  -2  -1  -8  101.86    3.56
  -3  -1  -8   63.99    2.60
  -3  -1  -8   56.33    2.24
  -4  -1  -8    1.45    0.59
  -5  -1  -8   38.01    1.60
  11  -2  -8  116.11    3.27
  11   2  -8   99.09    2.98
  11   2  -8   89.43    2.99
  11  -2  -8  106.78    3.11
  10  -2  -8   89.25    3.02
  10   2  -8   80.84    2.75
  10   2  -8   81.13    2.85
  10  -2  -8   83.19    2.88
   9   2  -8   25.22    1.41
  -9   2   8   21.45    1.48
  -9  -2   8   27.28    1.61
   9   2  -8   26.32    1.54
   9  -2  -8   25.02    1.52
   8   2  -8   16.28    1.20
  -8   2   8   19.30    1.47
   8   2  -8   17.24    1.38
   8  -2  -8   17.62    1.39
   7  -2  -8   32.75    1.99
   7   2  -8   34.33    1.77
  -7   2   8   32.72    2.00
  -7  -2   8   37.16    2.10
   7   2  -8   37.65    2.02
   7  -2  -8   35.48    2.00
  -6   2   8   85.81    3.58
  -6  -2   8   97.08    3.71
   6   2  -8   88.57    3.48
   6  -2  -8   92.14    3.53
  -5   2   8   96.02    3.83
  -5  -2   8   93.92    3.79
   5   2  -8   99.12    3.73
   5  -2  -8   97.24    3.71
  -4   2   8  168.31    5.63
  -4  -2   8  166.43    5.58
   4  -2  -8  163.71    5.46
   4   2  -8  169.28    5.44
   4  -2  -8  175.33    5.46
   3   2  -8  274.49    7.81
   3  -2  -8  277.79    7.84
   3  -2  -8  270.97    7.80
  -3   2   8  266.49    8.02
  -3  -2   8  272.25    8.03
   2   2  -8  300.67    8.40
   2  -2  -8  302.34    8.39
   2  -2  -8  295.67    8.33
  -2   2   8  292.12    8.58
  -2  -2   8  304.33    8.66
   1   2  -8  468.39   11.85
   1  -2  -8  451.97   11.79
   1  -2  -8  441.66   11.60
   0   2  -8  224.09    6.57
   0  -2  -8  226.73    6.58
   0  -2  -8  212.09    6.26
  -1   2  -8   26.52    1.68
  -1  -2  -8   26.11    1.69
  -1  -2  -8   24.07    1.45
  -2   2  -8   56.41    2.46
  -2  -2  -8   55.82    2.45
  -2  -2  -8   51.82    2.34
  -3   2  -8   48.23    2.18
  -3  -2  -8   53.00    2.25
  -3  -2  -8   46.52    2.05
  -4   2  -8    1.76    0.55
  -4  -2  -8    1.88    0.55
  -4  -2  -8    1.17    0.46
  -5   2  -8    3.71    0.53
  -5  -2  -8    3.64    0.53
  11  -3  -8    2.90    0.41
  10   3  -8   91.31    2.92
  10  -3  -8   99.13    3.00
   9   3  -8   45.99    1.98
   9  -3  -8   49.71    2.04
  -8   3   8  142.00    4.65
  -8  -3   8  149.38    4.68
   8   3  -8  149.65    4.53
   8  -3  -8  151.33    4.56
  -7   3   8   20.86    1.49
  -7  -3   8   20.23    1.47
   7   3  -8   21.44    1.42
   7  -3  -8   21.16    1.44
  -6   3   8  124.02    4.38
  -6  -3   8  132.63    4.44
   6   3  -8  124.03    4.19
   6  -3  -8  130.90    4.28
  -5   3   8    0.39    0.65
  -5  -3   8    0.13    0.59
   5   3  -8    0.11    0.59
   5  -3  -8    0.79    0.63
  -4   3   8   25.20    1.75
  -4  -3   8   25.95    1.78
   4   3  -8   25.14    1.65
   4  -3  -8   23.99    1.74
   4  -3  -8   24.79    1.64
  -3   3   8   24.02    1.73
  -3  -3   8   24.98    1.74
   3   3  -8   23.23    1.60
   3  -3  -8   27.62    1.72
   3  -3  -8   23.90    1.73
   2   3  -8   28.08    1.75
   2  -3  -8   28.27    1.74
   2  -3  -8   28.73    1.85
  -2   3   8   26.85    1.85
  -2  -3   8   26.69    1.83
   1   3  -8   98.29    3.61
   1  -3  -8  102.70    3.64
   1  -3  -8   99.16    3.65
  -1   3   8   93.18    3.73
  -1  -3   8   98.53    3.77
   0   3  -8    8.10    0.97
   0  -3  -8    7.83    0.99
   0  -3  -8    6.89    0.94
  -1   3  -8  133.42    4.25
  -1  -3  -8  130.81    4.24
  -1  -3  -8  129.05    4.15
  -2   3  -8   10.95    1.02
  -2  -3  -8   11.68    1.05
  -2  -3  -8    9.29    0.89
  -2  -3  -8   10.13    1.07
  -3   3  -8    7.67    0.81
  -3  -3  -8    8.21    0.87
  -3  -3  -8    8.59    0.92
  -4   3  -8    0.06    0.39
  -4  -3  -8    0.14    0.36
  -4  -3  -8    0.13    0.41
  10  -4  -8   87.49    2.60
  10  -4  -8   63.94    2.14
   9  -4  -8    5.29    0.78
   9  -4  -8    5.83    0.61
   9  -4  -8    6.73    0.65
   8  -4  -8    2.23    0.71
   8   4  -8    1.76    0.49
   8  -4  -8    2.22    0.53
   7  -4  -8   82.00    3.12
   7   4  -8   79.87    2.75
   7  -4  -8   78.12    2.75
  -6   4   8   80.08    3.04
  -6  -4   8   85.69    3.08
   6  -4  -8   78.62    3.21
   6   4  -8   77.64    2.85
   6  -4  -8   79.32    2.89
  -5   4   8  183.54    5.61
  -5  -4   8  195.03    5.65
   5   4  -8  185.14    5.41
   5  -4  -8  190.47    5.45
  -4   4   8  140.59    4.66
  -4  -4   8  147.41    4.68
   4   4  -8  142.90    4.47
   4  -4  -8  150.77    4.55
  -3   4   8   87.68    3.38
  -3  -4   8   90.30    3.37
   3   4  -8   93.73    3.26
   3  -4  -8   88.55    3.21
   3  -4  -8   91.71    3.54
  -2   4   8  285.41    8.10
  -2  -4   8  297.47    8.12
   2   4  -8  290.42    7.90
   2  -4  -8  310.60    7.99
   2  -4  -8  307.41    8.29
  -1  -4   8   96.76    3.57
   1   4  -8  102.58    3.47
   1  -4  -8  102.24    3.46
   1  -4  -8  108.48    3.75
  -1   4   8  100.14    3.62
   0   4  -8  225.62    6.12
   0  -4  -8  227.69    6.14
   0  -4  -8  231.53    6.37
   0  -4   8  215.93    6.25
  -1   4  -8   21.35    1.30
  -1  -4  -8   22.30    1.30
  -1  -4  -8   21.11    1.37
  -2  -4  -8   82.87    2.75
  -2  -4  -8   81.99    2.82
  -2  -4  -8   83.64    3.02
  -3  -4  -8    6.47    0.79
  -4  -4  -8   62.03    2.12
   9  -5  -8  227.96    5.64
   9  -5  -8  199.39    5.30
   8  -5  -8    2.18    0.60
   8  -5  -8    1.77    0.48
   7  -5  -8  244.42    6.57
   7  -5  -8  227.18    6.05
   6  -5  -8   38.60    1.99
   5  -5  -8  371.88    9.78
   4  -5  -8   13.62    0.96
   4  -5  -8   15.04    1.33
   3  -5  -8   47.14    1.87
   2  -5  -8   62.49    2.24
   1  -5  -8   69.31    2.79
   0  -5  -8  227.18    6.33
  -1  -5  -8    4.97    0.75
  -1  -5  -8    4.13    0.78
  -2  -5  -8  213.73    5.83
  -2  -5  -8  243.97    6.05
   8  -6  -8    9.01    0.71
   8  -6  -8    6.26    0.56
   7  -6  -8   21.85    1.26
   7  -6  -8   20.26    1.06
   6  -6  -8  100.41    3.19
   6  -6  -8   84.64    2.74
   5  -6  -8   18.17    1.27
   4  -6  -8   30.35    1.66
   3  -6  -8   65.49    2.61
   2  -6  -8  119.21    3.87
   0  -6  -8   56.65    2.26
  -1  -6  -8   96.20    2.89
  -1  -6  -8   75.92    2.76
  -2  -6  -8   26.78    1.19
  -2  -6  -8   29.48    1.31
   6  -7  -8   49.54    1.80
   5  -7  -8  116.12    3.30
   5  -7  -8  100.88    2.92
   4  -7  -8   15.50    1.03
   3  -7  -8   45.37    1.87
   2  -7  -8    3.64    0.60
   1  -7  -8    1.50    0.47
   1  -7  -8    0.96    0.46
   0  -7  -8   38.35    1.44
   0  -7  -8   19.27    1.09
   8   0  -9   -0.52    0.38
   7   0  -9    0.03    0.41
   6   0  -9    0.07    0.44
   5   0  -9    0.08    0.47
   4   0  -9    0.24    0.48
   3   0  -9    0.53    0.50
   2   0  -9    0.12    0.46
   1   0  -9    0.07    0.45
   0   0  -9   -0.13    0.40
  -1   0  -9    0.37    0.35
   8   1  -9  310.94    7.74
   8  -1  -9  328.48    7.79
   7   1  -9   61.18    2.14
   7  -1  -9   64.78    2.17
   6  -1  -9  236.95    5.88
   6  -1  -9  205.49    5.60
   5  -1  -9   58.26    2.11
   5  -1  -9   45.79    1.79
   4  -1  -9  165.58    4.73
   3  -1  -9    4.54    0.71
   2  -1  -9   31.99    1.56
   1  -1  -9   70.98    2.47
   0   1  -9    0.54    0.42
   0  -1  -9    0.45    0.40
  -1   1  -9  208.48    5.39
  -1  -1  -9  211.85    5.40
   7  -2  -9    0.88    0.37
   7   2  -9    1.22    0.36
   7  -2  -9    1.27    0.38
   6   2  -9    7.14    0.67
   6  -2  -9    5.37    0.63
   6  -2  -9    6.15    0.63
   5  -2  -9    0.71    0.40
   5   2  -9    0.66    0.43
   5  -2  -9    0.96    0.41
   4  -2  -9    0.50    0.39
   4   2  -9    1.40    0.48
   4  -2  -9    1.24    0.47
   3   2  -9   48.78    1.90
   3  -2  -9   49.58    1.90
   2   2  -9    9.47    0.80
   2  -2  -9    9.60    0.80
   1   2  -9   26.89    1.29
   1  -2  -9   27.57    1.29
   0   2  -9    8.08    0.67
   0  -2  -9    8.51    0.68
   7  -3  -9  131.34    3.59
   6  -3  -9    0.56    0.36
   5   3  -9  143.35    3.96
   5  -3  -9  145.83    3.99
   4  -3  -9    1.10    0.42
   4   3  -9    0.43    0.33
   4  -3  -9    0.44    0.32
   3   3  -9   68.58    2.19
   3  -3  -9   68.85    2.22
   3  -3  -9   71.00    2.25
   2   3  -9   47.88    1.55
   2  -3  -9   47.73    1.57
   5  -4  -9   23.65    1.10
   4  -4  -9   20.60    1.01
   3  -4  -9   43.01    1.55
   0   0   0    0.00    0.00


TITL tf-13 in P2(1)/c
REM P2(1)/c (#14 in standard setting)
CELL 1.54184  13.945344  11.759184   7.470977  90.0000 102.4364  90.0000
ZERR   12.00   0.000197   0.000179   0.000103   0.0000   0.0014   0.0000
LATT  1
SYMM -x, y+1/2,-z+1/2
SFAC C H N O Se Br
UNIT 12.00 12.00 12.00 12.00 12.00 12.00
TREF
HKLF 4
END
_computing_structure_solution     'SHELXT 2018/2 (Sheldrick, 2018)'
;
_shelx_hkl_checksum                72464
_olex2_submission_special_instructions  'No special instructions were received'
