data_tf-7-61-cp-100k-mo
_audit_creation_date               2019-12-18
_audit_creation_method
;
Olex2 1.3
(compiled Nov 21 2019 18:26:39 for OlexSys, GUI svn.r6003)
;
_shelx_SHELXL_version_number       '2018/3'
_audit_contact_author_address      ?
_audit_contact_author_email        ?
_audit_contact_author_name         ''
_audit_contact_author_phone        ?
_publ_contact_author_id_orcid      ?
_publ_section_references
;
Dolomanov, O.V., Bourhis, L.J., Gildea, R.J, Howard, J.A.K. & Puschmann, H.
 (2009), J. Appl. Cryst. 42, 339-341.

Sheldrick, G.M. (2015). Acta Cryst. A71, 3-8.

Sheldrick, G.M. (2015). Acta Cryst. C71, 3-8.
;
_chemical_name_common              ?
_chemical_name_systematic          ?
_chemical_formula_moiety           'C9 H9 N3 O5'
_chemical_formula_sum              'C9 H9 N3 O5'
_chemical_formula_weight           239.19
_chemical_absolute_configuration   ?
_chemical_melting_point            ?
loop_
  _atom_type_symbol
  _atom_type_description
  _atom_type_scat_dispersion_real
  _atom_type_scat_dispersion_imag
  _atom_type_scat_source
 'C' 'C' 0.0033 0.0016 'International Tables Vol C Tables 4.2.6.8 and 6.1.1.4'
 'H' 'H' 0.0000 0.0000 'International Tables Vol C Tables 4.2.6.8 and 6.1.1.4'
 'N' 'N' 0.0061 0.0033 'International Tables Vol C Tables 4.2.6.8 and 6.1.1.4'
 'O' 'O' 0.0106 0.0060 'International Tables Vol C Tables 4.2.6.8 and 6.1.1.4'

_shelx_space_group_comment
;
The symmetry employed for this shelxl refinement is uniquely defined
by the following loop, which should always be used as a source of
symmetry information in preference to the above space-group names.
They are only intended as comments.
;
_space_group_crystal_system        'orthorhombic'
_space_group_IT_number             19
_space_group_name_H-M_alt          'P 21 21 21'
_space_group_name_Hall             'P 2ac 2ab'
loop_
  _space_group_symop_operation_xyz
 'x, y, z'
 '-x+1/2, -y, z+1/2'
 '-x, y+1/2, -z+1/2'
 'x+1/2, -y+1/2, -z'

_cell_length_a                     5.49110(10)
_cell_length_b                     10.5173(2)
_cell_length_c                     18.2619(3)
_cell_angle_alpha                  90
_cell_angle_beta                   90
_cell_angle_gamma                  90
_cell_volume                       1054.65(3)
_cell_formula_units_Z              4
_cell_measurement_reflns_used      ?
_cell_measurement_temperature      293(2)
_cell_measurement_theta_max        ?
_cell_measurement_theta_min        ?
_shelx_estimated_absorpt_T_max     ?
_shelx_estimated_absorpt_T_min     ?
_exptl_absorpt_coefficient_mu      0.125
_exptl_absorpt_correction_T_max    ?
_exptl_absorpt_correction_T_min    ?
_exptl_absorpt_correction_type     ?
_exptl_absorpt_process_details     ?
_exptl_absorpt_special_details     ?
_exptl_crystal_colour              ?
_exptl_crystal_density_diffrn      1.506
_exptl_crystal_density_meas        ?
_exptl_crystal_density_method      ?
_exptl_crystal_description         ?
_exptl_crystal_F_000               496
_exptl_crystal_size_max            0.383
_exptl_crystal_size_mid            0.354
_exptl_crystal_size_min            0.144
_exptl_transmission_factor_max     ?
_exptl_transmission_factor_min     ?
_diffrn_reflns_av_R_equivalents    0.0224
_diffrn_reflns_av_unetI/netI       0.0326
_diffrn_reflns_Laue_measured_fraction_full  0.992
_diffrn_reflns_Laue_measured_fraction_max  0.986
_diffrn_reflns_limit_h_max         12
_diffrn_reflns_limit_h_min         -7
_diffrn_reflns_limit_k_max         23
_diffrn_reflns_limit_k_min         -13
_diffrn_reflns_limit_l_max         34
_diffrn_reflns_limit_l_min         -40
_diffrn_reflns_number              24292
_diffrn_reflns_point_group_measured_fraction_full  0.992
_diffrn_reflns_point_group_measured_fraction_max  0.920
_diffrn_reflns_theta_full          25.242
_diffrn_reflns_theta_max           51.205
_diffrn_reflns_theta_min           2.954
_diffrn_ambient_temperature        293(2)
_diffrn_detector_area_resol_mean   ?
_diffrn_measured_fraction_theta_full  0.992
_diffrn_measured_fraction_theta_max  0.986
_diffrn_measurement_device_type    ?
_diffrn_measurement_method         ?
_diffrn_radiation_type             MoK\a
_diffrn_radiation_wavelength       0.71073
_diffrn_source                     ?
_reflns_Friedel_coverage           0.680
_reflns_Friedel_fraction_full      0.992
_reflns_Friedel_fraction_max       0.837
_reflns_number_gt                  9009
_reflns_number_total               10696
_reflns_special_details
;
 Reflections were merged by SHELXL according to the crystal
 class for the calculation of statistics and refinement.
 
 _reflns_Friedel_fraction is defined as the number of unique
 Friedel pairs measured divided by the number that would be
 possible theoretically, ignoring centric projections and
 systematic absences.
;
_reflns_threshold_expression       'I > 2\s(I)'
_computing_cell_refinement         ?
_computing_data_collection         ?
_computing_data_reduction          ?
_computing_molecular_graphics      'Olex2 1.3 (Dolomanov et al., 2009)'
_computing_publication_material    'Olex2 1.3 (Dolomanov et al., 2009)'
_computing_structure_refinement    'SHELXL 2018/3 (Sheldrick, 2015)'
_computing_structure_solution      'SHELXT 2018/2 (Sheldrick, 2018)'
_refine_diff_density_max           0.401
_refine_diff_density_min           -0.233
_refine_diff_density_rms           0.055
_refine_ls_abs_structure_details
;
 Flack x determined using 3239 quotients [(I+)-(I-)]/[(I+)+(I-)]
 (Parsons, Flack and Wagner, Acta Cryst. B69 (2013) 249-259).
;
_refine_ls_abs_structure_Flack     -0.02(19)
_refine_ls_extinction_coef         .
_refine_ls_extinction_method       none
_refine_ls_goodness_of_fit_ref     1.047
_refine_ls_hydrogen_treatment      constr
_refine_ls_matrix_type             full
_refine_ls_number_parameters       156
_refine_ls_number_reflns           10696
_refine_ls_number_restraints       0
_refine_ls_R_factor_all            0.0478
_refine_ls_R_factor_gt             0.0378
_refine_ls_restrained_S_all        1.047
_refine_ls_shift/su_max            0.001
_refine_ls_shift/su_mean           0.000
_refine_ls_structure_factor_coef   Fsqd
_refine_ls_weighting_details      
 'w=1/[\s^2^(Fo^2^)+(0.0579P)^2^] where P=(Fo^2^+2Fc^2^)/3'
_refine_ls_weighting_scheme        calc
_refine_ls_wR_factor_gt            0.0985
_refine_ls_wR_factor_ref           0.1033
_refine_special_details            ?
_olex2_refinement_description
;
1. Fixed Uiso
 At 1.2 times of:
  All C(H) groups
 At 1.5 times of:
  All C(H,H,H) groups
2.a Aromatic/amide H refined with riding coordinates:
 C5(H5), C6(H6), C3(H3)
2.b Idealised Me refined as rotating group:
 C8(H8A,H8B,H8C), C9(H9A,H9B,H9C)
;
_atom_sites_solution_hydrogens     geom
_atom_sites_solution_primary       dual
_atom_sites_solution_secondary     ?
loop_
  _atom_site_label
  _atom_site_type_symbol
  _atom_site_fract_x
  _atom_site_fract_y
  _atom_site_fract_z
  _atom_site_U_iso_or_equiv
  _atom_site_adp_type
  _atom_site_occupancy
  _atom_site_site_symmetry_order
  _atom_site_calc_flag
  _atom_site_refinement_flags_posn
  _atom_site_refinement_flags_adp
  _atom_site_refinement_flags_occupancy
  _atom_site_disorder_assembly
  _atom_site_disorder_group
 O1 O 0.25886(9) 0.59212(4) 0.39277(3) 0.01559(8) Uani 1 1 d . . . . .
 O4 O 0.77958(11) 0.08848(5) 0.30339(4) 0.02249(10) Uani 1 1 d . . . . .
 O3 O 0.08936(10) 0.23935(5) 0.44332(3) 0.01966(9) Uani 1 1 d . . . . .
 O5 O 1.04564(10) 0.22424(6) 0.26353(3) 0.02282(10) Uani 1 1 d . . . . .
 O2 O 0.13365(14) 0.42480(5) 0.49367(4) 0.02724(14) Uani 1 1 d . . . . .
 N2 N 0.18352(10) 0.34513(5) 0.44697(3) 0.01492(8) Uani 1 1 d . . . . .
 N3 N 0.85386(11) 0.19774(5) 0.29457(3) 0.01620(8) Uani 1 1 d . . . . .
 N1 N 0.34421(10) 0.71869(5) 0.37503(3) 0.01502(8) Uani 1 1 d . . . . .
 C5 C 0.76279(11) 0.42602(6) 0.30152(4) 0.01525(9) Uani 1 1 d . . . . .
 H5 H 0.898311 0.442037 0.272396 0.018 Uiso 1 1 calc R U . . .
 C6 C 0.61629(12) 0.52499(6) 0.32475(4) 0.01525(9) Uani 1 1 d . . . . .
 H6 H 0.649904 0.607592 0.309634 0.018 Uiso 1 1 calc R U . . .
 C4 C 0.70553(11) 0.30210(5) 0.32213(3) 0.01327(8) Uani 1 1 d . . . . .
 C1 C 0.41732(10) 0.50165(5) 0.37096(3) 0.01239(8) Uani 1 1 d . . . . .
 C3 C 0.51276(11) 0.27494(5) 0.36818(3) 0.01291(8) Uani 1 1 d . . . . .
 H3 H 0.477014 0.191676 0.381528 0.015 Uiso 1 1 calc R U . . .
 C2 C 0.37443(10) 0.37568(5) 0.39383(3) 0.01204(7) Uani 1 1 d . . . . .
 C7 C 0.18981(11) 0.80099(5) 0.39787(3) 0.01384(8) Uani 1 1 d . . . . .
 C8 C -0.04776(14) 0.77370(7) 0.43413(5) 0.02221(13) Uani 1 1 d . . . . .
 H8A H -0.171964 0.763916 0.397571 0.033 Uiso 1 1 calc R U . . .
 H8B H -0.089618 0.842867 0.466045 0.033 Uiso 1 1 calc R U . . .
 H8C H -0.034659 0.696756 0.462137 0.033 Uiso 1 1 calc R U . . .
 C9 C 0.26203(15) 0.93673(6) 0.38728(4) 0.02024(11) Uani 1 1 d . . . . .
 H9A H 0.283417 0.976500 0.434157 0.030 Uiso 1 1 calc R U . . .
 H9B H 0.136999 0.980408 0.360497 0.030 Uiso 1 1 calc R U . . .
 H9C H 0.412064 0.940492 0.360382 0.030 Uiso 1 1 calc R U . . .

loop_
  _atom_site_aniso_label
  _atom_site_aniso_U_11
  _atom_site_aniso_U_22
  _atom_site_aniso_U_33
  _atom_site_aniso_U_23
  _atom_site_aniso_U_13
  _atom_site_aniso_U_12
 O1 0.01464(16) 0.00977(13) 0.0224(2) 0.00109(13) 0.00552(16) 0.00090(12)
 O4 0.0219(2) 0.01596(18) 0.0296(3) -0.00502(17) 0.0010(2) 0.00416(16)
 O3 0.01837(19) 0.01862(18) 0.0220(2) 0.00417(16) 0.00213(17) -0.00558(15)
 O5 0.01599(19) 0.0291(3) 0.0233(2) -0.0044(2) 0.00590(17) 0.00519(17)
 O2 0.0393(3) 0.01661(19) 0.0258(3) 0.00050(18) 0.0195(2) 0.0039(2)
 N2 0.01457(17) 0.01408(17) 0.01613(19) 0.00341(15) 0.00453(15) 0.00177(14)
 N3 0.01454(18) 0.01848(19) 0.01558(19) -0.00365(17) -0.00032(16) 0.00456(15)
 N1 0.01497(18) 0.01019(15) 0.0199(2) 0.00187(14) 0.00163(16) 0.00007(12)
 C5 0.0139(2) 0.0172(2) 0.0147(2) 0.00080(17) 0.00345(17) 0.00081(16)
 C6 0.0142(2) 0.01419(19) 0.0173(2) 0.00227(17) 0.00443(18) -0.00012(15)
 C4 0.01232(18) 0.01448(18) 0.01300(19) -0.00116(15) 0.00093(16) 0.00257(14)
 C1 0.01165(18) 0.01134(17) 0.01418(19) 0.00063(15) 0.00217(15) 0.00058(13)
 C3 0.01288(18) 0.01199(17) 0.01387(19) 0.00009(15) 0.00090(15) 0.00154(14)
 C2 0.01194(17) 0.01164(16) 0.01254(18) 0.00084(15) 0.00218(15) 0.00059(13)
 C7 0.01519(19) 0.01168(17) 0.0146(2) -0.00055(15) -0.00204(17) 0.00098(14)
 C8 0.0189(3) 0.0184(2) 0.0293(3) -0.0040(2) 0.0066(2) 0.0012(2)
 C9 0.0249(3) 0.01140(19) 0.0244(3) 0.00095(19) -0.0039(2) 0.00012(18)

_geom_special_details
;
 All esds (except the esd in the dihedral angle between two l.s. planes)
 are estimated using the full covariance matrix.  The cell esds are taken
 into account individually in the estimation of esds in distances, angles
 and torsion angles; correlations between esds in cell parameters are only
 used when they are defined by crystal symmetry.  An approximate (isotropic)
 treatment of cell esds is used for estimating esds involving l.s. planes.
;
loop_
  _geom_bond_atom_site_label_1
  _geom_bond_atom_site_label_2
  _geom_bond_distance
  _geom_bond_site_symmetry_2
  _geom_bond_publ_flag
 O1 N1 1.4480(6) . ?
 O1 C1 1.3494(7) . ?
 O4 N3 1.2300(8) . ?
 O3 N2 1.2287(7) . ?
 O5 N3 1.2280(8) . ?
 O2 N2 1.2264(8) . ?
 N2 C2 1.4643(7) . ?
 N3 C4 1.4565(8) . ?
 N1 C7 1.2814(8) . ?
 C5 H5 0.9300 . ?
 C5 C6 1.3823(8) . ?
 C5 C4 1.3925(8) . ?
 C6 H6 0.9300 . ?
 C6 C1 1.4022(8) . ?
 C4 C3 1.3818(8) . ?
 C1 C2 1.4089(8) . ?
 C3 H3 0.9300 . ?
 C3 C2 1.3852(8) . ?
 C7 C8 1.4908(10) . ?
 C7 C9 1.4943(8) . ?
 C8 H8A 0.9600 . ?
 C8 H8B 0.9600 . ?
 C8 H8C 0.9600 . ?
 C9 H9A 0.9600 . ?
 C9 H9B 0.9600 . ?
 C9 H9C 0.9600 . ?

loop_
  _geom_angle_atom_site_label_1
  _geom_angle_atom_site_label_2
  _geom_angle_atom_site_label_3
  _geom_angle
  _geom_angle_site_symmetry_1
  _geom_angle_site_symmetry_3
  _geom_angle_publ_flag
 C1 O1 N1 111.93(4) . . ?
 O3 N2 C2 117.64(5) . . ?
 O2 N2 O3 124.23(6) . . ?
 O2 N2 C2 118.08(5) . . ?
 O4 N3 C4 118.25(6) . . ?
 O5 N3 O4 123.84(6) . . ?
 O5 N3 C4 117.91(6) . . ?
 C7 N1 O1 109.51(5) . . ?
 C6 C5 H5 120.3 . . ?
 C6 C5 C4 119.37(5) . . ?
 C4 C5 H5 120.3 . . ?
 C5 C6 H6 119.8 . . ?
 C5 C6 C1 120.42(5) . . ?
 C1 C6 H6 119.8 . . ?
 C5 C4 N3 119.05(5) . . ?
 C3 C4 N3 118.88(5) . . ?
 C3 C4 C5 122.07(5) . . ?
 O1 C1 C6 123.82(5) . . ?
 O1 C1 C2 117.89(5) . . ?
 C6 C1 C2 118.25(5) . . ?
 C4 C3 H3 121.1 . . ?
 C4 C3 C2 117.89(5) . . ?
 C2 C3 H3 121.1 . . ?
 C1 C2 N2 121.50(5) . . ?
 C3 C2 N2 116.67(5) . . ?
 C3 C2 C1 121.83(5) . . ?
 N1 C7 C8 126.41(6) . . ?
 N1 C7 C9 115.32(6) . . ?
 C8 C7 C9 118.27(6) . . ?
 C7 C8 H8A 109.5 . . ?
 C7 C8 H8B 109.5 . . ?
 C7 C8 H8C 109.5 . . ?
 H8A C8 H8B 109.5 . . ?
 H8A C8 H8C 109.5 . . ?
 H8B C8 H8C 109.5 . . ?
 C7 C9 H9A 109.5 . . ?
 C7 C9 H9B 109.5 . . ?
 C7 C9 H9C 109.5 . . ?
 H9A C9 H9B 109.5 . . ?
 H9A C9 H9C 109.5 . . ?
 H9B C9 H9C 109.5 . . ?

loop_
  _geom_torsion_atom_site_label_1
  _geom_torsion_atom_site_label_2
  _geom_torsion_atom_site_label_3
  _geom_torsion_atom_site_label_4
  _geom_torsion
  _geom_torsion_site_symmetry_1
  _geom_torsion_site_symmetry_2
  _geom_torsion_site_symmetry_3
  _geom_torsion_site_symmetry_4
  _geom_torsion_publ_flag
 O1 N1 C7 C8 -2.65(10) . . . . ?
 O1 N1 C7 C9 176.41(5) . . . . ?
 O1 C1 C2 N2 -7.67(9) . . . . ?
 O1 C1 C2 C3 173.39(6) . . . . ?
 O4 N3 C4 C5 -168.60(6) . . . . ?
 O4 N3 C4 C3 11.64(9) . . . . ?
 O3 N2 C2 C1 151.42(6) . . . . ?
 O3 N2 C2 C3 -29.58(8) . . . . ?
 O5 N3 C4 C5 11.08(9) . . . . ?
 O5 N3 C4 C3 -168.68(6) . . . . ?
 O2 N2 C2 C1 -30.98(9) . . . . ?
 O2 N2 C2 C3 148.02(7) . . . . ?
 N3 C4 C3 C2 179.89(5) . . . . ?
 N1 O1 C1 C6 -11.31(9) . . . . ?
 N1 O1 C1 C2 171.18(5) . . . . ?
 C5 C6 C1 O1 -176.38(6) . . . . ?
 C5 C6 C1 C2 1.12(10) . . . . ?
 C5 C4 C3 C2 0.14(9) . . . . ?
 C6 C5 C4 N3 177.08(6) . . . . ?
 C6 C5 C4 C3 -3.17(10) . . . . ?
 C6 C1 C2 N2 174.68(6) . . . . ?
 C6 C1 C2 C3 -4.26(9) . . . . ?
 C4 C5 C6 C1 2.46(10) . . . . ?
 C4 C3 C2 N2 -175.36(6) . . . . ?
 C4 C3 C2 C1 3.63(9) . . . . ?
 C1 O1 N1 C7 -178.94(6) . . . . ?

_shelx_res_file
;
TITL tf-7-61-cp-100k-mo_a.res in P2(1)2(1)2(1)
    tf-7-61-cp-100k-mo.res
    created by SHELXL-2018/3 at 17:15:24 on 18-Dec-2019
REM Old TITL tf-7-61-cp-100k-mo in P2(1)2(1)2(1)
REM SHELXT solution in P2(1)2(1)2(1): R1 0.076, Rweak 0.018, Alpha 0.001
REM <I/s> 1.428 for 17 systematic absences, Orientation as input
REM Flack x = -0.112 ( 0.206 ) from 851 Parsons' quotients
REM Formula found by SHELXT: C11 N O5
CELL 0.71073 5.4911 10.5173 18.2619 90 90 90
ZERR 4 0.0001 0.0002 0.0003 0 0 0
LATT -1
SYMM 0.5-X,-Y,0.5+Z
SYMM -X,0.5+Y,0.5-Z
SYMM 0.5+X,0.5-Y,-Z
SFAC C H N O
UNIT 36 36 12 20

L.S. 4 0 0
PLAN  1
CONF
BOND
list 4
MORE -1
BOND $H
fmap 2 53
acta
REM <olex2.extras>
REM <HklSrc "%tf-7-61-cp-100k-mo.hkl">
REM </olex2.extras>

WGHT    0.057900
FVAR       0.71082
O1    4    0.258865    0.592119    0.392772    11.00000    0.01464    0.00977 =
         0.02236    0.00109    0.00552    0.00090
O4    4    0.779579    0.088479    0.303392    11.00000    0.02188    0.01596 =
         0.02961   -0.00502    0.00098    0.00416
O3    4    0.089359    0.239347    0.443317    11.00000    0.01837    0.01862 =
         0.02198    0.00417    0.00213   -0.00558
O5    4    1.045644    0.224245    0.263526    11.00000    0.01599    0.02913 =
         0.02332   -0.00440    0.00590    0.00519
O2    4    0.133652    0.424799    0.493668    11.00000    0.03930    0.01661 =
         0.02582    0.00050    0.01945    0.00393
N2    3    0.183518    0.345133    0.446974    11.00000    0.01457    0.01408 =
         0.01613    0.00341    0.00453    0.00177
N3    3    0.853855    0.197743    0.294567    11.00000    0.01454    0.01848 =
         0.01558   -0.00365   -0.00032    0.00456
N1    3    0.344214    0.718685    0.375028    11.00000    0.01497    0.01019 =
         0.01989    0.00187    0.00163    0.00007
C5    1    0.762794    0.426021    0.301516    11.00000    0.01386    0.01715 =
         0.01474    0.00080    0.00345    0.00081
AFIX  43
H5    2    0.898311    0.442037    0.272396    11.00000   -1.20000
AFIX   0
C6    1    0.616292    0.524995    0.324749    11.00000    0.01423    0.01419 =
         0.01732    0.00227    0.00443   -0.00012
AFIX  43
H6    2    0.649904    0.607592    0.309634    11.00000   -1.20000
AFIX   0
C4    1    0.705526    0.302104    0.322129    11.00000    0.01232    0.01448 =
         0.01300   -0.00116    0.00093    0.00257
C1    1    0.417318    0.501650    0.370962    11.00000    0.01165    0.01134 =
         0.01418    0.00063    0.00217    0.00058
C3    1    0.512756    0.274944    0.368178    11.00000    0.01288    0.01199 =
         0.01387    0.00009    0.00090    0.00154
AFIX  43
H3    2    0.477014    0.191676    0.381528    11.00000   -1.20000
AFIX   0
C2    1    0.374427    0.375683    0.393827    11.00000    0.01194    0.01164 =
         0.01254    0.00084    0.00218    0.00059
C7    1    0.189811    0.800986    0.397870    11.00000    0.01519    0.01168 =
         0.01464   -0.00055   -0.00204    0.00098
C8    1   -0.047755    0.773703    0.434134    11.00000    0.01890    0.01842 =
         0.02931   -0.00399    0.00655    0.00121
AFIX 137
H8A   2   -0.171964    0.763916    0.397571    11.00000   -1.50000
H8B   2   -0.089618    0.842867    0.466045    11.00000   -1.50000
H8C   2   -0.034659    0.696756    0.462137    11.00000   -1.50000
AFIX   0
C9    1    0.262028    0.936731    0.387280    11.00000    0.02490    0.01140 =
         0.02444    0.00095   -0.00390    0.00012
AFIX 137
H9A   2    0.283417    0.976500    0.434157    11.00000   -1.50000
H9B   2    0.136999    0.980408    0.360497    11.00000   -1.50000
H9C   2    0.412064    0.940492    0.360382    11.00000   -1.50000
AFIX   0
HKLF 4




REM  tf-7-61-cp-100k-mo_a.res in P2(1)2(1)2(1)
REM wR2 = 0.1033, GooF = S = 1.047, Restrained GooF = 1.047 for all data
REM R1 = 0.0378 for 9009 Fo > 4sig(Fo) and 0.0478 for all 10696 data
REM 156 parameters refined using 0 restraints

END

WGHT      0.0579      0.0000

REM Highest difference peak  0.401,  deepest hole -0.233,  1-sigma level  0.055
Q1    1   0.4368  0.3245  0.3794  11.00000  0.05    0.40
;
_shelx_res_checksum                68748
_shelx_hkl_file
;
   0   0   3    0.04    0.08
   0   0   4 2579.60   56.04
   0   0   5    0.09    0.12
   0   0  -7    0.04    0.13
   0   0  12  831.00   18.42
   0   0  13    0.12    0.25
   0   0  14  158.22    3.93
   0   0  15    0.41    0.29
   0   0  16  983.43   21.93
   0   0  17    0.04    0.36
   0   0  18  214.46    5.39
   0   0  19    0.46    0.40
   0   0 -20   67.95    2.24
   0   0 -21   -0.24    0.44
   0   0 -22    1.03    0.48
   0   0 -23    0.17    0.46
   0   0 -24    4.51    0.68
   0   0 -25   -0.06    0.52
   0   0 -26   53.64    2.22
   0   0 -27    0.43    0.59
   0   0 -28    1.45    0.68
   0   0 -29    0.08    0.63
   0   0 -30   53.14    2.42
   0   0 -31   -0.61    0.70
   0   0 -32   22.37    1.69
   0   0 -32   21.60    1.61
   0   0 -33   -0.42    0.75
   0   0 -33    0.09    0.80
   0   0 -34    1.24    0.79
   0   0 -34    1.81    0.86
   0   0 -35   -0.64    0.93
   0   0 -35    0.19    0.79
   0   0 -36    0.65    0.83
   0   0 -36    1.52    0.83
   0   0 -37   -0.54    0.84
   0   0 -38   21.08    1.73
   0   0 -39   -0.10    0.82
   0   0 -40   11.39    1.29
   0  -1   2 1571.31   34.10
   0  -1   3  178.78    4.02
   0  -1   4    2.14    0.14
   0  -1   4    1.65    0.16
   0  -1   5 5132.43  110.70
   0  -1   5 5068.78  110.81
   0  -1   6  148.09    3.39
   0  -1   6  149.07    3.51
   0  -1   7  910.63   19.80
   0  -1   7  895.72   19.95
   0  -1   8  129.55    3.01
   0  -1   8  124.90    3.16
   0  -1  11  187.78    4.46
   0  -1 -12   91.70    2.67
   0   1 -12   89.35    2.65
   0  -1  13    3.68    0.35
   0  -1 -13    2.33    0.37
   0  -1  14    1.01    0.29
   0  -1 -14    1.57    0.36
   0  -1  15  124.93    3.25
   0  -1  16   44.90    1.52
   0  -1  17   24.77    1.08
   0  -1  18   51.02    1.75
   0   1 -19    0.52    0.39
   0  -1  19    0.04    0.36
   0   1 -20    2.05    0.49
   0  -1 -20    1.73    0.47
   0   1 -21  109.31    3.26
   0  -1 -21  109.28    3.19
   0   1 -22    0.75    0.50
   0  -1 -22    0.15    0.40
   0  -1 -23    2.36    0.54
   0   1 -23    2.66    0.60
   0   1 -24   58.42    2.29
   0  -1 -24   60.52    2.22
   0  -1 -25    1.03    0.57
   0   1 -25    0.73    0.57
   0   1 -26    2.42    0.72
   0  -1 -26    1.95    0.64
   0  -1 -27   59.50    2.40
   0   1 -27   59.28    2.46
   0   1 -28    2.07    0.73
   0  -1 -28    2.62    0.71
   0   1 -29    1.17    0.68
   0  -1 -29    2.06    0.70
   0   1 -30    2.70    0.82
   0  -1 -30    2.37    0.79
   0   1 -31   13.28    1.29
   0   1 -31   14.94    1.40
   0  -1 -31   12.44    1.19
   0   1 -32    2.98    0.94
   0  -1 -32    3.72    0.89
   0   1 -32    4.08    0.92
   0   1 -33    0.11    0.76
   0  -1 -33   -0.35    0.70
   0   1 -33   -0.88    0.84
   0   1 -34   -0.10    0.87
   0   1 -34   -0.65    0.82
   0  -1 -34    1.14    0.75
   0  -1 -34    0.18    0.74
   0   1 -35    9.23    1.25
   0   1 -35   10.51    1.24
   0  -1 -35    6.34    1.08
   0  -1 -35    7.67    1.14
   0  -1 -36    0.98    0.79
   0  -1 -36    1.37    0.83
   0   1 -36    1.45    0.84
   0   1 -36    1.50    0.85
   0   1 -37    0.11    0.84
   0  -1 -37    2.41    0.87
   0   1 -38    0.88    0.88
   0  -1 -38   -0.42    0.93
   0   1 -39    5.53    1.12
   0  -1 -39    5.36    1.06
   0  -1 -40    5.29    1.04
   0   1 -40    4.46    1.00
   0  -2   1   19.38    0.63
   0   2  -2   30.36    0.78
   0  -2   3 1628.98   35.39
   0   2   4   20.39    0.55
   0  -2   4   20.58    0.55
   0  -2  -4   19.50    0.65
   0  -2   4   19.85    0.61
   0   2   5   79.38    1.85
   0  -2   5   79.88    1.85
   0  -2   5   76.63    1.93
   0  -2  -5   77.25    2.00
   0  -2   6 2028.51   43.87
   0   2   6 2036.58   43.87
   0  -2   6 2024.85   44.00
   0  -2  -6 1958.36   44.05
   0   2   7   10.26    0.40
   0  -2   7    9.87    0.40
   0  -2  -7    9.82    0.50
   0  -2   7   10.16    0.48
   0  -2   8  135.00    3.17
   0   2   8  140.34    3.18
   0  -2   8  130.70    3.31
   0  -2  -8  128.53    3.37
   0  -2   9   67.67    1.74
   0  -2   9   66.42    1.87
   0  -2  10  920.53   20.28
   0  -2  11   15.42    0.64
   0  -2 -11   14.70    0.75
   0  -2  12   65.67    1.80
   0  -2 -12   62.32    1.99
   0  -2  13   20.35    0.83
   0  -2 -13   22.55    1.02
   0  -2  14   16.30    0.74
   0  -2 -14   16.37    0.90
   0  -2  15   13.73    0.71
   0  -2 -15   14.29    0.86
   0  -2  16   23.58    1.01
   0  -2 -16   22.49    1.14
   0  -2  17   12.01    0.75
   0  -2 -17   12.42    0.86
   0  -2  18   12.83    0.78
   0   2 -19   15.70    0.94
   0  -2 -20    0.76    0.38
   0   2 -20    0.29    0.41
   0   2 -21   14.78    0.99
   0  -2 -21   14.90    0.90
   0  -2 -22    1.20    0.46
   0   2 -22    1.29    0.48
   0   2 -23   46.64    1.97
   0  -2 -23   51.00    1.90
   0  -2 -24    7.64    0.79
   0   2 -24    7.93    0.85
   0   2 -25    0.14    0.55
   0  -2 -25    0.69    0.51
   0  -2 -26   51.34    2.09
   0   2 -26   53.63    2.27
   0  -2 -27    1.44    0.64
   0   2 -27    1.89    0.75
   0  -2 -28    4.34    0.74
   0   2 -28    4.62    0.91
   0   2 -28    3.99    0.87
   0   2 -29    4.43    0.87
   0   2 -29    6.72    0.99
   0  -2 -29    4.47    0.85
   0  -2 -30    1.57    0.74
   0   2 -30    2.08    0.77
   0   2 -30    1.37    0.71
   0   2 -31    0.41    0.72
   0   2 -31    0.38    0.71
   0  -2 -31    0.55    0.64
   0   2 -32   -0.10    0.67
   0  -2 -32    0.49    0.69
   0   2 -32    1.58    0.85
   0   2 -33    1.31    0.84
   0   2 -33    0.51    0.85
   0  -2 -33    0.75    0.74
   0   2 -34    3.52    0.92
   0   2 -34    3.47    0.97
   0  -2 -34    1.61    0.75
   0  -2 -35    3.97    0.86
   0   2 -35    4.47    1.01
   0   2 -35    5.11    1.09
   0  -2 -35    3.69    0.92
   0  -2 -36    5.65    1.07
   0   2 -36    7.68    1.20
   0   2 -36    5.80    1.13
   0   2 -37    1.14    0.89
   0  -2 -37   -0.51    0.83
   0   2 -38    6.22    1.19
   0  -2 -38    6.75    1.10
   0  -2 -39    0.98    0.77
   0   2 -39    0.32    0.77
   0   3   0    0.01    0.07
   0   3   0    0.03    0.09
   0   3   1   28.83    0.77
   0  -3   1   28.08    0.92
   0   3  -1   28.32    0.79
   0   3   1   28.63    0.73
   0   3   1   27.72    0.78
   0   3   2    2.26    0.16
   0  -3   2    2.46    0.23
   0   3  -2    2.25    0.14
   0   3  -2    2.12    0.18
   0   3  -3  422.42    9.35
   0   3  -4  448.49   10.20
   0  -3   4  464.15   10.09
   0  -3   4  437.65   10.15
   0   3  -5  736.10   16.47
   0   3   5  779.80   16.38
   0  -3   5  748.53   16.37
   0  -3   5  735.36   16.45
   0  -3  -5  727.90   16.55
   0   3   6  252.51    5.47
   0  -3   6  251.11    5.47
   0  -3  -6  227.17    5.65
   0  -3   6  232.61    5.55
   0  -3   7   14.40    0.51
   0   3   7   14.42    0.51
   0  -3  -7   14.65    0.64
   0  -3   7   14.64    0.58
   0  -3   8  179.20    4.51
   0  -3  -8  176.10    4.60
   0  -3   9   83.24    2.06
   0  -3  -9   78.43    2.25
   0  -3   9   80.77    2.18
   0  -3  10    2.59    0.26
   0  -3 -10    2.53    0.34
   0   3  11  448.89    9.97
   0  -3  11  452.03    9.97
   0   3  12    0.09    0.21
   0  -3  12    0.04    0.22
   0  -3 -12    0.15    0.23
   0  -3  13    1.25    0.26
   0   3  13    1.41    0.28
   0  -3 -13    1.60    0.35
   0  -3  14   35.24    1.22
   0   3  14   35.55    1.22
   0  -3 -14   35.64    1.42
   0  -3  15  269.37    6.38
   0   3  15  267.46    6.38
   0  -3 -15  266.52    6.68
   0  -3  16   69.62    2.09
   0   3  16   69.50    2.09
   0  -3 -16   70.24    2.33
   0   3 -17  106.03    2.99
   0   3  17  103.17    2.90
   0  -3  17  102.13    2.90
   0  -3 -17  105.26    3.17
   0   3 -18    0.35    0.35
   0   3  18    0.66    0.33
   0  -3  18    0.31    0.35
   0  -3 -18    0.06    0.38
   0  -3 -19   14.64    0.82
   0   3 -19   15.91    0.96
   0  -3 -20    0.60    0.37
   0   3 -20    0.82    0.46
   0  -3 -21    9.21    0.72
   0   3 -21    9.33    0.83
   0   3 -22    0.94    0.51
   0  -3 -22    0.18    0.41
   0  -3 -23   12.35    0.88
   0   3 -23   11.16    0.98
   0   3 -24    5.32    0.79
   0  -3 -24    5.37    0.69
   0  -3 -25   23.34    1.27
   0   3 -25   24.21    1.45
   0   3 -26    7.29    0.95
   0  -3 -26    5.78    0.77
   0  -3 -27    4.26    0.74
   0   3 -27    2.21    0.72
   0   3 -28   25.86    1.67
   0  -3 -28   27.97    1.51
   0  -3 -29    2.63    0.74
   0   3 -29    3.07    0.87
   0   3 -30    0.75    0.73
   0  -3 -30    1.77    0.66
   0   3 -31   32.55    2.03
   0  -3 -31   37.74    1.87
   0  -3 -32    4.67    0.91
   0   3 -32    5.53    1.07
   0  -3 -33    5.07    0.88
   0   3 -33    4.62    1.04
   0   3 -34    2.67    0.95
   0  -3 -34    2.75    0.78
   0   3 -35    0.65    0.86
   0  -3 -36    1.70    0.87
   0   3 -36    2.99    0.97
   0  -3 -37    1.18    0.84
   0  -3 -38    2.12    0.86
   0  -3 -39    0.38    0.75
   0  -4   0 1296.60   28.89
   0   4   0 1308.64   28.60
   0   4   0 1317.83   28.55
   0   4   1    0.59    0.13
   0   4   1    0.64    0.11
   0   4  -1    0.80    0.13
   0  -4   1    0.62    0.19
   0   4  -1    1.19    0.17
   0   4  -1    1.20    0.11
   0   4   1    0.45    0.14
   0  -4   2  111.37    2.87
   0   4  -2  109.30    2.89
   0   4   2  110.54    2.63
   0   4   2  111.02    2.56
   0   4  -2  113.54    2.68
   0   4  -2  114.85    2.57
   0   4   2  109.42    2.65
   0   4  -3  645.90   14.61
   0   4   3  646.51   14.33
   0  -4   3  649.23   14.58
   0   4  -3  643.75   14.28
   0   4   3  668.36   14.36
   0   4  -3  657.23   14.39
   0   4  -4  134.28    3.13
   0   4  -4  132.23    3.21
   0   4  -4  132.56    3.40
   0  -4   4  136.79    3.10
   0   4   4  131.92    3.03
   0  -4   4  138.17    3.04
   0   4   4  135.05    3.17
   0   4  -5  144.09    3.45
   0  -4   5  146.96    3.29
   0   4   5  146.28    3.29
   0  -4  -5  139.85    3.48
   0   4  -5  145.05    3.65
   0  -4   5  144.19    3.36
   0   4  -6   32.19    0.98
   0  -4   6   31.14    0.84
   0   4   6   29.84    0.83
   0   4  -6   32.34    1.13
   0  -4   6   29.78    0.90
   0  -4  -6   30.08    1.02
   0   4  -7  120.30    2.95
   0  -4   7  120.98    2.81
   0   4   7  118.93    2.81
   0  -4   7  118.79    2.90
   0  -4  -7  118.39    3.03
   0   4  -8   29.54    0.98
   0  -4   8   30.33    0.88
   0   4   8   29.24    0.88
   0  -4   8   29.92    0.97
   0  -4  -8   28.40    1.06
   0   4  -9  247.54    5.73
   0  -4   9  249.17    5.60
   0  -4  -9  239.78    5.84
   0  -4   9  238.47    5.71
   0   4 -10  930.02   20.19
   0  -4  10  919.96   20.04
   0  -4 -10  868.03   20.31
   0   4 -11  118.67    3.06
   0   4  11  116.30    2.94
   0  -4  11  119.66    2.94
   0  -4 -11  118.95    3.22
   0   4 -12    4.77    0.43
   0  -4  12    2.86    0.32
   0   4  12    3.48    0.34
   0  -4 -12    3.47    0.43
   0  -4  13  116.87    2.95
   0   4  13  112.64    2.95
   0  -4 -13  114.12    3.22
   0  -4  14   75.29    2.11
   0   4  14   74.49    2.12
   0  -4 -14   75.30    2.39
   0   4 -15  104.71    2.89
   0  -4  15  104.40    2.78
   0   4  15   99.18    2.76
   0  -4 -15  102.06    3.05
   0   4 -16  183.50    4.77
   0  -4  16  188.23    4.66
   0   4  16  185.42    4.65
   0  -4 -16  186.75    4.96
   0  -4 -17   46.13    1.86
   0   4 -17   52.09    1.80
   0  -4 -18    8.33    0.76
   0  -4 -18    8.80    0.58
   0   4 -18   10.31    0.77
   0  -4 -19    0.48    0.41
   0   4 -19    0.45    0.46
   0  -4 -19    0.36    0.34
   0  -4 -20  249.30    6.02
   0   4 -20  241.37    6.34
   0   4 -21   32.68    1.54
   0  -4 -21   30.72    1.28
   0   4 -22   37.08    1.72
   0  -4 -22   38.09    1.49
   0  -4 -23   73.78    2.39
   0   4 -23   76.07    2.75
   0  -4 -24   32.20    1.42
   0   4 -24   30.91    1.67
   0  -4 -25    0.72    0.52
   0   4 -25    0.46    0.64
   0   4 -26   59.98    2.53
   0  -4 -26   58.46    2.18
   0   4 -27   83.33    3.18
   0  -4 -27   82.98    2.79
   0  -4 -28   13.15    1.06
   0   4 -28   13.57    1.30
   0  -4 -29    2.34    0.67
   0   4 -29    4.10    0.90
   0  -4 -30    6.96    0.87
   0   4 -30    7.97    1.08
   0   4 -31   -0.61    0.91
   0  -4 -31    0.83    0.70
   0  -4 -32   14.83    1.19
   0   4 -32   17.14    1.53
   0   4 -33    0.22    0.84
   0   4 -34    3.40    1.04
   0   4 -35    7.07    1.22
   0   4 -36   16.26    1.54
   0  -4 -36   16.69    1.49
   0  -4 -37    4.47    0.99
   0  -4 -38    0.19    0.74
   0  -4 -39    0.36    0.78
   0  -5   0    0.07    0.21
   0   5   0    0.12    0.12
   0   5   0    0.24    0.12
   0  -5   1   69.80    2.09
   0   5   1   69.07    1.81
   0   5  -1   70.07    1.83
   0   5   1   70.21    1.74
   0   5  -1   76.76    1.79
   0   5  -1   71.36    1.70
   0   5   1   69.71    1.83
   0  -5   2    2.42    0.32
   0   5   2    1.89    0.21
   0   5  -2    1.81    0.21
   0   5   2    1.77    0.16
   0   5  -2    1.73    0.21
   0   5  -2    1.91    0.16
   0   5   2    1.67    0.21
   0   5   3  169.23    4.00
   0  -5   3  171.00    4.29
   0   5  -3  169.75    4.34
   0   5  -3  173.54    4.08
   0   5   3  169.34    3.90
   0   5  -3  172.39    4.03
   0   5  -3  178.26    3.95
   0   5   3  174.13    4.04
   0   5  -4  875.71   19.84
   0  -5   4  898.28   19.37
   0   5   4  881.30   19.48
   0   5   4  873.79   19.35
   0   5  -4  888.25   19.44
   0   5  -4  899.72   19.58
   0   5   4  892.13   19.51
   0  -5  -5 1139.28   26.01
   0  -5   5 1196.07   25.84
   0   5  -5 1202.92   26.30
   0   5  -5 1190.01   25.91
   0   5  -5 1184.69   26.03
   0   5  -5 1214.24   26.05
   0   5   5 1166.06   25.96
   0   5  -6  174.77    4.06
   0   5  -6  171.71    4.16
   0   5   6  169.35    3.93
   0  -5   6  179.38    3.94
   0  -5   6  171.82    4.00
   0   5  -6  172.71    4.39
   0  -5  -6  169.78    4.17
   0   5  -7    7.45    0.46
   0   5  -7    7.85    0.43
   0  -5   7    8.36    0.36
   0   5   7    7.88    0.35
   0  -5   7    8.06    0.40
   0   5  -7    8.42    0.58
   0  -5  -7    7.50    0.48
   0   5  -8  990.14   21.91
   0   5  -8  999.41   21.99
   0  -5   8 1016.64   21.78
   0   5   8  976.80   21.77
   0  -5   8  996.09   21.87
   0  -5  -8  971.76   22.04
   0   5  -8 1004.28   22.25
   0   5  -9   15.85    0.71
   0   5  -9   15.19    0.66
   0  -5   9   14.32    0.56
   0  -5  -9   14.32    0.72
   0  -5   9   13.28    0.61
   0   5  -9   13.29    0.78
   0   5 -10   24.91    0.93
   0   5 -10   22.85    0.94
   0  -5  10   24.70    0.83
   0  -5 -10   24.33    1.03
   0   5 -11    6.31    0.50
   0   5 -11    6.89    0.50
   0  -5  11    6.39    0.41
   0   5  11    5.79    0.39
   0  -5 -11    6.39    0.54
   0   5 -12   22.70    0.97
   0  -5  12   22.27    0.84
   0   5  12   21.25    0.83
   0  -5 -12   21.65    1.02
   0   5 -13  119.63    3.16
   0  -5  13  114.83    2.95
   0   5  13  112.41    2.94
   0  -5 -13  112.17    3.24
   0   5 -14  197.89    4.90
   0   5  14  185.02    4.67
   0  -5  14  198.62    4.71
   0  -5 -14  188.32    5.00
   0  -5 -15   78.43    2.56
   0   5 -15   82.80    2.48
   0  -5 -16   13.19    0.89
   0   5 -16   13.55    0.85
   0  -5 -17   30.84    1.45
   0   5 -17   30.13    1.38
   0  -5 -17   31.99    1.11
   0  -5 -18  242.49    6.49
   0   5 -18  256.22    6.45
   0  -5 -18  253.19    5.98
   0  -5 -19   26.08    1.41
   0   5 -19   30.15    1.42
   0  -5 -19   29.93    1.13
   0   5 -19   27.93    1.41
   0   5 -20  135.92    3.91
   0   5 -20  138.73    3.99
   0  -5 -20  128.87    3.48
   0   5 -21   59.19    2.35
   0   5 -21   65.26    2.37
   0  -5 -21   65.21    2.02
   0   5 -22  307.18    7.81
   0   5 -22  291.54    7.70
   0  -5 -22  298.82    7.23
   0   5 -23    0.07    0.59
   0  -5 -23   -0.04    0.44
   0   5 -23    0.07    0.58
   0   5 -24   74.65    2.78
   0   5 -24   70.85    2.77
   0  -5 -24   69.28    2.30
   0   5 -25   12.26    1.19
   0   5 -25   15.39    1.25
   0  -5 -25   14.33    0.95
   0   5 -26   17.52    1.38
   0   5 -26   17.18    1.34
   0  -5 -26   14.46    0.99
   0   5 -27   13.21    1.23
   0  -5 -27   14.93    1.03
   0   5 -27   12.85    1.26
   0   5 -28    2.22    0.82
   0   5 -28    2.68    0.87
   0  -5 -28    1.35    0.61
   0   5 -29    0.86    0.72
   0   5 -29    1.15    0.80
   0  -5 -29    0.71    0.55
   0   5 -30   33.10    2.09
   0   5 -30   30.40    1.97
   0   5 -31   14.22    1.49
   0   5 -31   15.20    1.48
   0   5 -32    7.61    1.18
   0   5 -32    7.25    1.20
   0   5 -33   -0.55    0.86
   0   5 -33    0.12    0.91
   0   5 -34    6.54    1.17
   0   5 -34    7.42    1.17
   0   5 -35    0.95    0.86
   0   5 -35   -0.90    0.99
   0   5 -36    0.12    0.86
   0   5 -36    0.22    0.87
   0   5 -37   -0.35    0.84
   0  -5 -37    1.82    0.82
   0  -5 -38    3.00    0.81
   0   5 -38    1.57    0.93
   0   5 -39    0.76    0.82
   0   6   0 1933.88   42.40
   0  -6   0 1909.72   42.82
   0   6   0 1961.32   42.32
   0  -6   1   33.03    1.29
   0   6  -1   33.87    1.06
   0   6   1   32.95    1.03
   0  -6  -1   32.78    1.33
   0   6  -1   34.22    1.00
   0   6   1   32.31    0.95
   0   6   1   34.02    1.06
   0   6   2    9.22    0.45
   0  -6   2    9.17    0.62
   0   6  -2    9.44    0.39
   0   6   2    9.30    0.39
   0   6  -2    9.45    0.45
   0   6   2   10.00    0.48
   0   6   3  152.59    3.61
   0  -6   3  151.07    3.95
   0   6  -3  151.21    3.52
   0   6   3  151.22    3.49
   0   6  -3  151.19    3.69
   0  -6   4   39.55    0.99
   0  -6  -4   40.44    1.16
   0   6  -4   38.56    1.45
   0   6   4   38.36    1.14
   0   6  -4   36.13    1.09
   0   6   4   39.24    1.03
   0   6  -5  127.72    3.44
   0   6   5  126.05    3.05
   0  -6  -5  126.18    3.10
   0  -6   5  127.34    2.90
   0   6   5  119.67    2.88
   0   6  -5  128.69    3.03
   0   6   5  126.59    3.19
   0  -6   6   41.75    1.11
   0   6  -6   41.77    1.52
   0  -6  -6   41.81    1.29
   0   6   6   41.10    1.21
   0   6   6   39.62    1.04
   0   6  -6   40.63    1.20
   0   6   6   42.94    1.35
   0  -6  -7    0.05    0.18
   0  -6   7    0.18    0.13
   0   6  -7    0.08    0.24
   0   6   7    0.01    0.09
   0   6  -7    0.31    0.21
   0   6  -7   -0.12    0.19
   0   6  -7   -0.03    0.21
   0   6   7    0.03    0.22
   0   6  -8   71.24    2.27
   0  -6  -8   74.54    2.10
   0  -6   8   73.47    1.90
   0   6  -8   72.78    1.99
   0   6  -8   72.70    2.09
   0  -6  -9   47.09    1.57
   0   6  -9   51.03    1.77
   0   6  -9   48.49    1.56
   0   6  -9   48.78    1.49
   0  -6 -10  275.96    6.70
   0   6 -10  285.50    6.93
   0   6 -10  283.41    6.70
   0   6 -10  276.90    6.58
   0   6 -11    5.24    0.54
   0  -6 -11    4.25    0.46
   0   6 -11    5.13    0.48
   0   6 -11    5.37    0.47
   0   6 -12    9.41    0.71
   0  -6 -12    8.18    0.64
   0   6 -12    8.03    0.58
   0   6 -12    7.95    0.61
   0  -6 -13   32.46    1.37
   0   6 -13   34.89    1.49
   0   6 -13   34.47    1.30
   0   6 -13   35.39    1.38
   0  -6 -14    5.23    0.56
   0   6 -14    5.26    0.55
   0  -6 -14    4.89    0.33
   0   6 -14    5.58    0.55
   0  -6 -15    6.23    0.63
   0   6 -15    7.16    0.65
   0   6 -15    5.81    0.59
   0  -6 -15    5.80    0.38
   0  -6 -16   72.24    2.44
   0   6 -16   74.01    2.42
   0  -6 -16   72.12    1.95
   0  -6 -17   10.64    0.84
   0  -6 -17   10.63    0.56
   0   6 -17   10.26    0.84
   0  -6 -18    3.41    0.61
   0  -6 -18    2.17    0.35
   0   6 -18    2.14    0.52
   0   6 -19    0.66    0.49
   0  -6 -19    0.44    0.30
   0  -6 -20   70.84    2.06
   0   6 -20   69.68    2.56
   0  -6 -21    0.72    0.37
   0   6 -21    0.28    0.52
   0  -6 -22   46.59    1.60
   0   6 -22   45.44    2.07
   0   6 -23    8.44    0.94
   0   6 -23    9.60    1.02
   0  -6 -23    7.16    0.64
   0   6 -24   12.06    1.17
   0   6 -24   13.25    1.14
   0  -6 -24   13.04    0.84
   0   6 -25    9.39    1.02
   0  -6 -25    7.05    0.68
   0   6 -25    8.71    1.05
   0   6 -26   38.69    2.12
   0   6 -26   41.63    2.10
   0   6 -27    6.93    1.02
   0   6 -27    8.92    1.09
   0   6 -28    0.47    0.72
   0   6 -28    0.41    0.75
   0   6 -29    1.29    0.86
   0   6 -29    2.22    0.81
   0   6 -30    8.93    1.26
   0   6 -30    9.35    1.24
   0   6 -31    1.15    0.88
   0   6 -31    1.41    0.87
   0   6 -32    0.35    0.85
   0   6 -32   -0.11    0.83
   0   6 -33    9.28    1.34
   0   6 -33    9.96    1.32
   0   6 -34    0.12    0.83
   0   6 -34    0.57    0.87
   0   6 -35   -0.91    1.02
   0   6 -35    0.84    0.91
   0   6 -36    4.62    1.12
   0  -6 -37    0.70    0.75
   0   6 -37    0.70    0.90
   0  -6 -38   -0.17    0.68
   0   6 -38    1.23    0.87
   0  -7   0    0.18    0.22
   0   7   0    0.09    0.17
   0   7   0    0.13    0.16
   0   7   0    0.30    0.24
   0   7   1   71.72    1.86
   0   7  -1   70.97    1.90
   0  -7  -1   72.61    2.36
   0   7  -1   73.03    1.98
   0   7   1   73.68    1.96
   0  -7   1   71.96    2.31
   0   7  -1   70.85    2.14
   0   7   1   75.66    2.15
   0   7   2  193.39    4.51
   0  -7   2  201.12    5.06
   0   7   2  193.58    4.63
   0   7  -2  199.44    4.90
   0   7   2  196.94    4.84
   0   7   3    4.18    0.27
   0   7  -3    4.60    0.30
   0  -7  -3    4.68    0.30
   0  -7   3    4.14    0.44
   0   7   3    4.35    0.33
   0   7  -3    4.33    0.45
   0   7   3    3.84    0.39
   0   7   3    4.09    0.35
   0   7   4   85.10    2.09
   0   7  -4   88.10    2.35
   0   7  -4   89.68    2.18
   0   7   4   87.53    2.25
   0  -7   4   90.41    2.61
   0  -7   4   83.40    1.98
   0  -7  -4   85.20    2.21
   0   7  -4   87.32    2.51
   0   7   4   87.52    2.42
   0   7   4   85.24    2.29
   0  -7   5    6.82    0.28
   0   7   5    7.04    0.42
   0  -7  -5    6.81    0.42
   0   7  -5    7.23    0.40
   0   7  -5    7.16    0.49
   0   7   5    7.03    0.32
   0   7   5    6.24    0.49
   0   7   5    7.35    0.46
   0  -7   6  217.21    4.95
   0   7   6  216.70    5.14
   0   7  -6  224.09    5.63
   0  -7  -6  218.62    5.20
   0   7   6  219.18    4.94
   0   7  -6  224.36    5.33
   0   7  -6  222.59    5.15
   0   7   6  220.84    5.36
   0   7  -7    0.65    0.33
   0   7   7    0.38    0.12
   0  -7  -7    0.78    0.23
   0   7   7    0.41    0.21
   0  -7   7    0.61    0.14
   0   7  -7    0.95    0.24
   0   7  -7    0.96    0.31
   0   7   7    0.90    0.30
   0   7  -8  170.21    4.50
   0  -7  -8  168.03    4.17
   0   7   8  170.24    4.04
   0   7   8  163.05    3.76
   0   7  -8  168.70    4.09
   0   7  -8  170.75    4.25
   0   7   8  170.80    4.27
   0  -7  -9    0.13    0.25
   0   7   9    0.03    0.10
   0   7  -9    0.39    0.33
   0   7  -9   -0.11    0.25
   0   7  -9   -0.03    0.24
   0   7  -9   -0.03    0.28
   0   7 -10   15.37    0.93
   0  -7 -10   15.05    0.80
   0   7 -10   17.00    0.77
   0   7 -10   14.74    0.81
   0   7  10   15.32    0.43
   0  -7 -10   15.41    0.44
   0  -7 -11    0.26    0.26
   0   7 -11    0.26    0.29
   0   7 -11    0.13    0.28
   0  -7 -11    0.23    0.12
   0   7 -11    0.16    0.30
   0   7 -12   53.63    2.00
   0  -7 -12   53.35    1.84
   0  -7 -12   55.43    1.37
   0   7 -12   53.24    1.77
   0   7 -12   54.92    1.87
   0   7 -13    0.28    0.34
   0  -7 -13    0.35    0.34
   0   7 -13    0.09    0.32
   0   7 -13    0.49    0.32
   0  -7 -13    0.31    0.15
   0   7 -14    9.37    0.80
   0  -7 -14   10.81    0.77
   0   7 -14   10.85    0.80
   0   7 -14   12.48    0.80
   0  -7 -14   10.98    0.46
   0  -7 -15    4.12    0.58
   0   7 -15    3.63    0.59
   0   7 -15    3.91    0.52
   0  -7 -15    3.99    0.30
   0   7 -15    3.86    0.56
   0   7 -16   93.77    3.09
   0  -7 -16   92.49    2.94
   0   7 -16   93.75    2.89
   0  -7 -16   94.31    2.37
   0   7 -16   96.05    2.98
   0   7 -17    5.97    0.72
   0  -7 -17    7.54    0.74
   0  -7 -17    6.73    0.43
   0   7 -17    7.84    0.78
   0   7 -17    6.87    0.71
   0   7 -18   21.46    1.27
   0  -7 -18   19.38    1.15
   0   7 -18   18.25    1.17
   0  -7 -18   19.21    0.78
   0   7 -18   18.25    1.12
   0   7 -19    0.21    0.47
   0   7 -19   -0.12    0.46
   0   7 -19    0.07    0.47
   0   7 -20   16.28    1.17
   0   7 -20   14.80    1.14
   0   7 -21   11.97    1.09
   0   7 -22   44.01    2.10
   0   7 -23    1.41    0.68
   0   7 -24    5.98    0.92
   0   7 -25    0.56    0.67
   0   7 -26    4.49    0.95
   0   7 -27    3.27    0.91
   0   7 -28    9.06    1.20
   0   7 -28    9.69    1.22
   0   7 -29    2.09    0.91
   0   7 -29    2.65    0.91
   0   7 -30    0.22    0.84
   0   7 -30    0.91    0.83
   0   7 -31    0.89    0.88
   0   7 -31    2.69    0.96
   0   7 -32    4.63    1.12
   0   7 -32    2.49    0.99
   0   7 -33    2.29    1.00
   0   7 -33    2.17    0.98
   0   7 -34    1.45    0.92
   0   7 -34    1.94    0.95
   0   7 -35   -0.72    0.96
   0   7 -36    2.01    0.98
   0   7 -37    1.72    0.94
   0  -8   0   63.60    2.27
   0   8   0   66.49    1.92
   0  -8   0   68.16    1.63
   0   8   0   70.77    1.84
   0   8   0   66.98    1.94
   0   8   0   68.93    2.13
   0   8   1  197.99    4.63
   0  -8   1  196.93    4.38
   0  -8  -1  197.62    4.49
   0  -8   1  194.90    5.19
   0  -8  -1  200.17    5.28
   0   8   1  193.43    4.74
   0   8  -1  205.11    5.04
   0   8   1  200.16    5.01
   0   8   1  199.01    4.78
   0   8   2   59.81    1.60
   0  -8  -2   60.50    1.55
   0   8   2   58.21    1.71
   0  -8   2   59.84    2.08
   0  -8  -2   60.34    2.18
   0   8  -2   57.98    1.95
   0   8   2   60.51    1.76
   0   8   2   59.81    1.93
   0   8   3    1.03    0.25
   0   8   3    1.25    0.20
   0  -8   3    1.51    0.37
   0  -8  -3    0.84    0.18
   0   8   3    1.16    0.31
   0   8  -3    1.75    0.38
   0   8   3    1.41    0.28
   0   8   4   58.00    1.49
   0   8  -4   58.89    1.58
   0   8   4   55.49    1.64
   0  -8   4   56.87    1.98
   0  -8  -4   55.08    1.56
   0   8  -4   56.16    1.94
   0   8   4   57.17    1.70
   0   8   4   55.33    1.84
   0   8   5  165.84    3.94
   0   8  -5  174.91    4.11
   0   8  -5  174.07    4.31
   0  -8  -5  170.65    4.11
   0   8   5  172.03    4.15
   0   8  -5  164.60    4.51
   0   8   5  176.80    4.23
   0   8   5  176.47    4.41
   0  -8  -6  132.45    3.31
   0   8   6  133.43    3.31
   0   8  -6  134.50    3.29
   0   8   6  131.09    3.07
   0   8  -6  134.09    3.48
   0   8   6  132.16    3.37
   0   8   6  126.46    3.51
   0   8   7   73.28    2.00
   0   8  -7   72.76    2.43
   0  -8  -7   73.56    2.05
   0   8  -7   73.26    2.17
   0   8  -7   74.72    2.02
   0   8   7   70.44    1.75
   0   8   7   70.02    2.20
   0   8   8    1.77    0.28
   0  -8  -8    1.99    0.31
   0   8  -8    2.56    0.47
   0   8  -8    1.53    0.35
   0   8  -8    2.29    0.34
   0   8   8    2.08    0.18
   0   8   8    1.75    0.40
   0  -8  -9    1.79    0.34
   0   8   9    1.91    0.31
   0   8  -9    2.59    0.49
   0   8  -9    1.90    0.39
   0   8  -9    2.12    0.35
   0   8   9    2.49    0.17
   0   8   9    2.10    0.45
   0   8  10  482.11   10.69
   0   8 -10  480.64   11.28
   0  -8 -10  468.86   10.86
   0   8  10  463.46   10.28
   0   8 -10  483.40   10.82
   0   8 -10  482.54   11.00
   0   8 -11   48.26    1.87
   0   8  11   44.63    1.44
   0  -8 -11   41.85    1.55
   0   8 -11   46.50    1.58
   0   8 -11   46.59    1.69
   0  -8 -12    7.45    0.64
   0   8 -12    8.35    0.76
   0   8 -12    8.33    0.64
   0   8 -12    7.31    0.67
   0   8 -12    7.97    0.69
   0   8 -13   78.35    2.62
   0  -8 -13   75.56    2.39
   0   8 -13   76.82    2.36
   0   8 -13   70.74    2.43
   0  -8 -14    2.10    0.46
   0   8 -14    2.95    0.55
   0   8 -14    2.36    0.48
   0   8 -14    1.98    0.49
   0   8 -15   47.26    1.93
   0  -8 -15   44.78    1.76
   0   8 -15   46.68    1.75
   0   8 -15   42.20    1.78
   0   8 -16    4.20    0.65
   0  -8 -16    4.83    0.60
   0   8 -16    5.37    0.64
   0   8 -16    6.13    0.69
   0  -8 -17   23.91    1.26
   0   8 -17   24.40    1.39
   0   8 -17   25.97    1.31
   0   8 -17   24.13    1.36
   0   8 -18    0.91    0.47
   0   8 -18    0.72    0.49
   0   8 -18    1.16    0.53
   0   8 -19    9.27    0.91
   0   8 -19    9.03    0.86
   0   8 -19    7.96    0.87
   0   8 -20   24.09    1.49
   0   8 -20   23.97    1.40
   0   8 -21   53.90    2.22
   0   8 -21   47.44    2.21
   0   8 -22    9.67    0.99
   0   8 -22   10.35    1.07
   0   8 -23    0.35    0.63
   0   8 -23    0.24    0.58
   0   8 -24    0.83    0.65
   0   8 -24    0.28    0.65
   0   8 -25    2.33    0.76
   0   8 -26   14.26    1.36
   0   8 -27   26.39    1.84
   0   8 -28    6.25    1.08
   0   8 -29    2.50    0.95
   0   8 -30    0.12    0.83
   0   8 -31    7.54    1.25
   0   8 -32    4.11    1.13
   0   8 -33    6.76    1.21
   0   8 -33    7.29    1.28
   0   8 -34    5.19    1.09
   0   8 -35    1.10    0.81
   0   8 -35    0.24    0.85
   0   8 -36    0.85    0.76
   0   8 -37    0.80    0.83
   0  -9   0   -0.06    0.32
   0  -9   0    0.09    0.09
   0   9   0   -0.04    0.34
   0   9   0    0.61    0.28
   0  -9   1   30.51    1.42
   0   9   1   33.12    1.14
   0  -9  -1   32.25    1.49
   0  -9  -1   30.16    0.84
   0   9  -1   29.56    1.14
   0   9   1   31.14    1.15
   0   9   1   27.73    1.28
   0   9  -1   31.68    1.36
   0  -9   2  172.54    4.69
   0  -9  -2  167.41    3.94
   0   9   2  171.32    4.21
   0  -9  -2  171.47    4.81
   0   9  -2  182.99    4.61
   0   9   2  169.88    4.25
   0   9   2  169.41    4.49
   0  -9  -3  123.22    3.04
   0  -9  -3  127.95    3.86
   0   9   3  131.82    3.26
   0  -9   3  128.63    3.70
   0   9  -3  132.35    3.64
   0   9   3  126.47    3.53
   0   9   3  123.98    3.30
   0   9   4   26.35    0.86
   0  -9   4   29.75    1.37
   0   9   4   27.13    1.01
   0  -9  -4   26.51    0.90
   0   9  -4   25.34    1.27
   0   9   4   26.47    1.07
   0   9   4   26.62    1.21
   0   9   5 1437.76   31.40
   0   9  -5 1458.30   31.57
   0   9   5 1450.07   31.63
   0  -9  -5 1418.14   31.54
   0   9  -5 1473.63   32.14
   0   9   5 1437.66   31.71
   0   9   5 1393.08   31.93
   0   9  -6 1172.45   25.22
   0   9  -6 1154.59   25.45
   0   9   6 1134.29   24.97
   0   9   6 1154.78   25.24
   0  -9  -6 1127.70   25.19
   0   9  -6 1130.39   25.74
   0   9   6 1105.58   25.52
   0   9   6 1152.64   25.33
   0   9  -7    0.77    0.38
   0   9  -7    0.03    0.30
   0   9   7   -0.37    0.33
   0  -9  -7   -0.03    0.28
   0   9  -7    0.27    0.46
   0   9   7    0.21    0.40
   0  -9  -8    2.61    0.38
   0   9   8    2.29    0.35
   0   9  -8    1.78    0.36
   0   9  -8    2.24    0.42
   0   9   8    2.16    0.48
   0   9  -9   25.56    1.34
   0   9   9   25.35    0.98
   0  -9  -9   25.56    1.06
   0   9  -9   24.89    1.05
   0   9  -9   25.53    1.17
   0   9   9   25.80    1.22
   0   9  10  195.84    4.79
   0  -9 -10  195.91    4.95
   0   9 -10  200.22    5.41
   0   9 -10  197.69    5.11
   0   9 -10  199.17    4.93
   0   9  11  139.11    3.57
   0   9 -11  144.42    4.16
   0  -9 -11  135.45    3.74
   0   9 -11  145.51    3.75
   0   9 -11  140.11    3.90
   0  -9 -12  136.25    3.70
   0   9  12  136.55    3.48
   0   9 -12  134.58    4.03
   0   9 -12  134.87    3.66
   0   9 -12  132.46    3.82
   0  -9 -13   10.50    0.77
   0   9  13    8.95    0.59
   0   9 -13    9.10    0.85
   0   9 -13    7.87    0.69
   0   9 -13    9.73    0.81
   0   9  14   27.20    1.09
   0  -9 -14   28.65    1.32
   0   9 -14   29.29    1.52
   0   9 -14   29.17    1.32
   0   9 -14   29.12    1.41
   0  -9 -15  142.61    4.01
   0   9  15  142.46    3.70
   0   9 -15  148.19    4.33
   0   9 -15  142.58    4.19
   0   9 -15  148.58    4.05
   0   9 -15  138.27    4.15
   0  -9 -16    3.76    0.58
   0   9 -16    3.39    0.61
   0   9 -16    3.65    0.65
   0   9 -16    3.21    0.61
   0   9 -16    4.67    0.67
   0   9 -17   18.53    1.24
   0   9 -17   20.96    1.29
   0   9 -17   21.03    1.20
   0   9 -17   17.86    1.22
   0   9 -18   14.30    1.10
   0   9 -18   16.23    1.19
   0   9 -18   15.34    1.09
   0   9 -19   72.77    2.78
   0   9 -19   74.54    2.67
   0   9 -20    4.42    0.78
   0   9 -20    4.40    0.81
   0   9 -21    3.95    0.77
   0   9 -21    2.85    0.73
   0   9 -22   90.66    3.24
   0   9 -22   88.31    3.34
   0   9 -23   28.50    1.81
   0   9 -23   28.51    1.70
   0   9 -24    2.92    0.85
   0   9 -24    2.47    0.82
   0   9 -25   26.10    1.74
   0   9 -25   27.83    1.83
   0   9 -26    1.76    0.79
   0   9 -26    2.86    0.89
   0   9 -27    2.20    0.90
   0   9 -27    2.44    0.88
   0   9 -28    0.21    0.81
   0   9 -28   -0.45    0.80
   0   9 -29    2.91    0.96
   0   9 -29    2.50    0.94
   0   9 -30    0.36    0.88
   0   9 -30   -0.45    0.99
   0   9 -31   -0.67    0.81
   0   9 -31   -0.12    0.88
   0   9 -32    6.13    1.19
   0   9 -33    4.50    1.04
   0   9 -34    2.35    0.86
   0   9 -35    5.55    1.11
   0   9 -36    4.71    0.96
   0 -10   0  248.47    6.42
   0  10   0  233.95    5.86
   0  10   0  246.54    6.21
   0 -10  -1   39.69    1.75
   0 -10   1   36.28    1.66
   0  10  -1   38.15    1.60
   0  10  -1   36.68    1.36
   0  10   1   38.53    1.58
   0  10   1   35.53    1.34
   0  10   2  183.87    4.46
   0 -10  -2  170.19    4.09
   0 -10   2  191.73    5.03
   0 -10  -2  185.85    5.12
   0  10  -2  180.40    4.53
   0  10   2  182.12    4.51
   0  10   2  181.26    4.77
   0  10  -2  182.44    4.87
   0 -10  -3   40.44    1.16
   0 -10  -3   44.73    1.93
   0  10   3   40.02    1.37
   0 -10   3   41.90    1.76
   0  10  -3   37.90    1.67
   0  10   3   41.76    1.63
   0  10   3   41.38    1.45
   0  10   4  109.21    2.93
   0 -10  -4  109.55    2.74
   0 -10  -4  114.76    3.64
   0  10  -4  111.27    3.38
   0  10   4  113.58    3.27
   0  10   4  110.02    3.01
   0 -10  -5   10.08    0.53
   0  10   5    9.40    0.60
   0  10  -5   10.30    0.86
   0  10   5   11.70    0.82
   0  10   5   10.39    0.67
   0  10   6   17.36    0.81
   0 -10  -6   18.42    0.77
   0  10  -6   19.94    1.17
   0  10   6   19.73    0.92
   0  10   6   18.51    1.04
   0  10  -7   28.10    1.06
   0  10   7   26.08    1.02
   0 -10  -7   25.54    1.00
   0  10  -7   30.22    1.47
   0  10   7   26.27    1.27
   0  10  -8   33.84    1.25
   0  10  -8   33.53    1.39
   0  10   8   32.30    1.19
   0 -10  -8   32.62    1.20
   0  10  -8   35.12    1.63
   0  10   8   34.69    1.49
   0  10  -9   23.50    1.05
   0  10  -9   25.86    1.22
   0  10   9   23.95    0.97
   0 -10  -9   23.94    1.02
   0  10  -9   25.32    1.38
   0  10   9   24.01    1.25
   0 -10 -10  287.09    6.99
   0  10  10  288.04    6.86
   0  10 -10  299.88    7.05
   0  10 -10  291.04    7.22
   0 -10 -11    2.71    0.44
   0  10 -11    2.81    0.58
   0  10  11    2.87    0.39
   0  10 -11    2.29    0.45
   0  10 -11    3.28    0.55
   0  10  12    6.17    0.49
   0 -10 -12    5.04    0.55
   0  10 -12    5.52    0.69
   0  10 -12    6.40    0.62
   0  10 -12    7.56    0.70
   0  10 -13    2.70    0.58
   0 -10 -13    2.83    0.45
   0  10  13    3.42    0.41
   0  10 -13    2.80    0.54
   0  10 -13    3.29    0.53
   0  10  14   12.22    0.69
   0  10 -14   10.86    0.98
   0 -10 -14   12.45    0.82
   0  10 -14   13.32    0.89
   0  10 -14   12.06    0.93
   0  10 -15   14.28    1.08
   0  10  15   14.32    0.76
   0  10 -15   14.18    0.98
   0  10 -15   14.87    1.04
   0  10 -16    3.34    0.60
   0  10  16    2.30    0.40
   0  10 -16    1.51    0.57
   0  10 -16    1.93    0.53
   0  10  17    4.21    0.46
   0  10 -17    3.74    0.73
   0  10 -17    4.23    0.65
   0  10  18   21.46    0.98
   0  10 -18   22.50    1.35
   0  10 -18   23.26    1.41
   0  10  19   22.94    1.03
   0  10 -19   25.98    1.48
   0  10 -19   25.55    1.52
   0  10 -20    5.77    0.86
   0  10 -20    5.15    0.80
   0  10 -21    1.34    0.59
   0  10 -21    0.23    0.61
   0  10 -22    0.61    0.63
   0  10 -22    0.99    0.64
   0  10 -23   -0.64    0.67
   0  10 -23   -0.35    0.62
   0  10 -24    1.05    0.70
   0  10 -24    1.47    0.79
   0  10 -25   15.55    1.38
   0  10 -25   13.61    1.32
   0  10 -26    2.92    0.87
   0  10 -26    2.60    0.88
   0  10 -27   19.26    1.61
   0  10 -27   15.08    1.45
   0  10 -28   11.56    1.35
   0  10 -28    9.36    1.21
   0  10 -29   -0.11    0.75
   0  10 -29   -0.44    0.88
   0  10 -30   18.78    1.64
   0  10 -30   16.55    1.55
   0  10 -31    2.77    0.97
   0  10 -32    0.32    0.69
   0  10 -33    4.64    1.02
   0  10 -34    1.79    0.87
   0  10 -35   10.93    1.24
   0 -11   0    0.83    0.46
   0  11   0    1.01    0.37
   0  11   0    0.98    0.53
   0 -11  -1  123.63    3.93
   0 -11   1  126.28    3.89
   0  11  -1  125.03    3.42
   0  11   1  128.82    3.42
   0  11   1  127.41    3.74
   0  11  -1  125.28    3.77
   0 -11  -2    2.34    0.57
   0 -11   2    2.16    0.50
   0  11   2    1.88    0.51
   0  11  -2    1.92    0.53
   0  11   2    1.62    0.38
   0  11  -2    2.37    0.42
   0 -11  -3   37.37    1.84
   0  11   3   38.83    1.38
   0 -11   3   39.74    1.75
   0  11  -3   40.77    1.49
   0  11   3   39.78    1.44
   0  11  -3   36.83    1.71
   0  11   3   37.42    1.63
   0  11   4   70.14    2.10
   0 -11  -4   72.85    2.76
   0  11  -4   74.31    2.59
   0  11   4   71.59    2.19
   0  11   4   70.37    2.45
   0  11   5    9.64    0.62
   0 -11  -5   10.60    0.99
   0 -11  -5    8.94    0.48
   0  11  -5   10.91    0.92
   0  11   5   10.24    0.69
   0  11   5    8.20    0.76
   0 -11  -6    5.82    0.80
   0 -11  -6    5.38    0.40
   0  11   6    6.09    0.51
   0  11  -6    5.65    0.75
   0  11   6    5.95    0.68
   0 -11  -7    0.29    0.23
   0  11   7    0.59    0.30
   0  11   7    0.38    0.39
   0  11  -7    0.62    0.47
   0  11   8    0.73    0.30
   0 -11  -8    0.98    0.29
   0  11   8    1.06    0.46
   0  11  -8    1.69    0.58
   0  11  -9   38.61    1.44
   0 -11  -9   38.09    1.36
   0  11   9   38.44    1.35
   0  11  -9   40.39    1.88
   0  11   9   41.40    1.73
   0  11  10    6.19    0.51
   0 -11 -10    6.79    0.55
   0  11 -10    6.89    0.61
   0  11 -10    6.17    0.66
   0  11 -10    6.95    0.82
   0  11 -11    0.48    0.40
   0  11 -11    0.70    0.42
   0  11 -11    0.08    0.50
   0  11  11    0.34    0.28
   0 -11 -11    0.19    0.30
   0  11  12   19.65    0.89
   0  11 -12   22.09    1.22
   0  11 -12   21.01    1.09
   0  11  13    0.19    0.29
   0  11 -13    1.06    0.43
   0  11 -13    0.74    0.45
   0  11  14   17.32    0.83
   0  11 -14   16.84    1.13
   0  11 -14   17.88    1.08
   0  11  15   26.60    1.08
   0  11 -15   26.15    1.51
   0  11 -15   27.64    1.50
   0  11 -15   32.00    1.47
   0  11  16   19.12    0.89
   0  11 -16   20.10    1.30
   0  11 -16   21.33    1.25
   0  11 -17   18.01    1.22
   0  11 -17   16.61    1.19
   0  11 -18   27.70    1.52
   0  11 -18   25.59    1.53
   0  11 -19    3.36    0.75
   0  11 -19    1.45    0.65
   0  11 -20    5.71    0.88
   0  11 -20    6.77    0.90
   0  11 -21   29.11    1.69
   0  11 -21   25.43    1.64
   0  11 -22    6.34    0.96
   0  11 -22    5.84    0.95
   0  11 -23    4.05    0.89
   0  11 -23    2.20    0.76
   0  11 -24    0.95    0.75
   0  11 -24    0.09    0.73
   0  11 -25    0.20    0.74
   0  11 -25    1.07    0.73
   0  11 -26    5.06    0.99
   0  11 -26    4.56    1.02
   0  11 -27   13.34    1.43
   0  11 -27   10.91    1.24
   0  11 -28    0.21    0.78
   0  11 -28    0.20    0.78
   0  11 -29    5.83    1.05
   0  11 -30    0.31    0.67
   0  11 -31    8.53    1.14
   0  11 -32    1.47    0.80
   0  11 -33   -0.19    0.80
   0  11 -34    2.18    0.80
   0 -12   0   13.98    1.08
   0  12   0   13.92    1.06
   0  12   0   14.55    0.87
   0 -12   1   64.55    2.52
   0 -12  -1   66.47    2.58
   0  12  -1   64.92    2.12
   0  12   1   59.82    2.34
   0  12   1   65.78    2.11
   0  12  -1   71.65    2.52
   0 -12  -2   34.68    1.73
   0 -12   2   32.47    1.61
   0  12  -2   31.09    1.59
   0  12   2   30.85    1.53
   0  12  -2   28.77    1.28
   0  12   2   29.08    1.25
   0 -12  -3   26.72    1.57
   0 -12   3   30.00    1.54
   0  12  -3   28.17    1.51
   0  12  -3   29.09    1.27
   0  12   3   28.26    1.47
   0  12   3   30.37    1.25
   0 -12  -4   41.19    1.99
   0  12   4   40.68    1.52
   0  12  -4   38.52    1.53
   0  12   4   38.74    1.74
   0  12  -4   40.75    1.87
   0  12   5    6.36    0.54
   0 -12  -5    7.26    0.88
   0  12  -5    7.64    0.87
   0  12   5    5.12    0.67
   0  12   5    5.17    0.57
   0  12   6   10.36    0.67
   0 -12  -6   12.28    1.11
   0  12  -6   11.39    1.01
   0  12   6   12.25    0.95
   0  12   7   14.37    0.77
   0  12  -7   13.88    1.10
   0  12   7   13.19    1.00
   0  12   8    9.59    0.64
   0  12  -8   11.31    1.04
   0  12   8    9.62    0.87
   0  12   9   13.41    0.74
   0  12  -9   14.66    1.19
   0  12   9   13.08    1.03
   0  12  10    0.60    0.32
   0  12 -10    1.41    0.61
   0  12 -11   41.59    2.13
   0  12  11   43.73    1.46
   0  12 -12   19.34    1.17
   0  12 -12   16.77    1.32
   0  12  12   16.46    0.82
   0  12 -13   27.35    1.42
   0  12 -13   27.64    1.32
   0  12 -13   22.48    1.58
   0  12  13   23.14    0.99
   0  12 -14   25.83    1.34
   0  12 -14   23.05    1.36
   0  12 -14   27.32    1.75
   0  12  14   25.08    1.03
   0  12 -15    1.48    0.57
   0  12 -15    1.90    0.58
   0  12 -16   45.12    2.00
   0  12 -16   45.78    1.96
   0  12 -17    3.90    0.74
   0  12 -17    3.43    0.68
   0  12 -18    2.66    0.69
   0  12 -18    1.78    0.65
   0  12 -19    0.40    0.56
   0  12 -19    0.38    0.64
   0  12 -20   24.84    1.58
   0  12 -20   28.78    1.65
   0  12 -21   12.60    1.21
   0  12 -21   14.60    1.27
   0  12 -22    0.53    0.64
   0  12 -22   -0.52    0.72
   0  12 -23    4.56    0.91
   0  12 -23    3.07    0.78
   0  12 -24   -0.19    0.62
   0  12 -24    1.32    0.77
   0  12 -25    2.17    0.83
   0  12 -26    2.49    0.88
   0  12 -27    0.48    0.71
   0  12 -28   21.09    1.60
   0  12 -29   -0.10    0.69
   0  12 -30    0.38    0.70
   0  12 -31    5.19    0.94
   0  12 -32    0.98    0.74
   0  12 -33    0.09    0.74
   0 -13   0   -0.08    0.45
   0  13   0    0.35    0.36
   0  13   0    0.28    0.50
   0 -13   1    0.31    0.46
   0  13  -1    0.09    0.36
   0  13   1    0.14    0.45
   0  13   1    0.35    0.35
   0  13  -1    0.80    0.59
   0 -13   2   26.06    1.48
   0  13   2   25.39    1.19
   0  13  -2   27.94    1.26
   0  13  -2   25.50    1.48
   0  13   2   25.28    1.43
   0  13  -3   13.83    0.89
   0  13  -3   16.21    1.21
   0  13   3   14.74    0.89
   0  13   3   16.50    1.15
   0  13  -4    0.43    0.37
   0  13   4   -0.13    0.45
   0  13   4    0.43    0.40
   0  13  -4    0.39    0.52
   0  13  -5   10.99    1.02
   0  13  -5   11.97    0.85
   0  13   5   13.38    1.03
   0  13   6   39.29    1.80
   0  13  -6   37.54    1.58
   0  13  -6   43.83    2.05
   0  13  -7    3.42    0.70
   0  13   7    4.00    0.69
   0  13   8    0.57    0.33
   0  13  -8    0.26    0.55
   0  13   8    0.28    0.49
   0  13   9    1.57    0.37
   0  13   9    2.09    0.61
   0  13  -9    2.72    0.70
   0  13  10  138.87    3.64
   0  13 -10  146.70    4.62
   0  13  11   15.36    0.80
   0  13 -11   14.84    1.31
   0  13  12    1.13    0.35
   0  13 -12    1.63    0.66
   0  13 -13    1.28    0.74
   0  13 -14   48.22    2.48
   0  13 -15   33.73    1.70
   0  13 -15   33.19    2.07
   0  13 -16   56.98    2.35
   0  13 -16   60.67    2.84
   0  13 -17    1.27    0.60
   0  13 -17    0.45    0.75
   0  13 -18    9.46    0.99
   0  13 -18   10.48    1.31
   0  13 -19    0.40    0.54
   0  13 -19    0.47    0.81
   0  13 -20   -0.08    0.60
   0  13 -21    0.08    0.62
   0  13 -22    2.33    0.69
   0  13 -23    2.81    0.78
   0  13 -24    3.75    0.82
   0  13 -25    3.43    0.88
   0  13 -26   45.78    2.28
   0  13 -27    2.63    0.84
   0  13 -28    2.70    0.80
   0  13 -29   10.18    1.14
   0  13 -30    3.02    0.86
   0  13 -31    3.50    0.85
   0  13 -32    5.14    1.19
   0  13 -33    1.29    0.96
   0  14   0  251.54    6.28
   0  14   0  243.39    6.77
   0  14  -1  121.36    3.55
   0  14  -1  126.94    4.05
   0  14   1  125.25    3.99
   0  14   1  128.96    3.58
   0  14  -2    0.90    0.66
   0  14  -2    1.28    0.50
   0  14   2    1.44    0.67
   0  14   2    1.59    0.51
   0  14  -3   31.43    1.42
   0  14   3   32.32    1.71
   0  14   3   33.73    1.42
   0  14  -3   31.81    1.76
   0  14   4   15.35    1.19
   0  14  -4   17.18    1.04
   0  14  -4   17.78    1.34
   0  14   4   17.07    1.00
   0  14  -5   34.66    1.91
   0  14   5   32.92    1.72
   0  14  -5   31.67    1.46
   0  14  -6    0.83    0.52
   0  14  -6    2.30    0.75
   0  14   6    1.04    0.58
   0  14  -7   60.04    2.59
   0  14  -7   54.07    2.05
   0  14   7   56.89    2.36
   0  14  -8   78.37    3.12
   0  14   8   75.70    2.86
   0  14  -8   75.56    2.56
   0  14  -9   25.56    1.69
   0  14   9   20.65    1.38
   0  14 -10   10.94    1.20
   0  14 -11   41.07    2.22
   0  14 -12   45.05    2.39
   0  14 -13  164.72    5.37
   0  14 -14   11.09    1.28
   0  14 -15   78.98    3.36
   0  14 -16   50.57    2.64
   0  14 -17   32.29    2.19
   0  14 -18    2.17    0.97
   0  14 -19    6.05    1.21
   0  14 -20    1.86    0.68
   0  14 -20    2.02    0.98
   0  14 -21    4.03    0.81
   0  14 -21    2.31    0.99
   0  14 -22    1.17    0.72
   0  14 -22    1.43    0.87
   0  14 -23    4.83    0.91
   0  14 -23    5.54    1.23
   0  14 -24    6.74    0.98
   0  14 -24    7.98    1.32
   0  14 -25   21.71    1.59
   0  14 -25   23.90    2.00
   0  14 -26    0.09    0.70
   0  14 -26    1.20    0.91
   0  14 -27    7.39    1.03
   0  14 -27   10.07    1.45
   0  14 -28    6.67    0.92
   0  14 -28    6.54    1.29
   0  14 -29    6.40    1.32
   0  14 -30    3.11    1.09
   0  14 -31    2.76    1.05
   0  15   0    0.25    0.55
   0  15   0    0.10    0.40
   0  15  -1    2.29    0.50
   0  15   1    1.91    0.65
   0  15  -1    3.41    0.74
   0  15   1    2.38    0.50
   0  15   2    6.37    0.67
   0  15  -2    6.77    0.92
   0  15   2    6.06    0.89
   0  15  -2    5.94    0.67
   0  15   3    9.50    0.99
   0  15   3    9.90    0.80
   0  15  -3    8.93    0.79
   0  15  -4    2.81    0.58
   0  15   4    2.80    0.71
   0  15  -4    2.09    0.74
   0  15  -5   70.91    2.45
   0  15   5   73.47    2.84
   0  15  -5   75.25    3.02
   0  15  -6   53.12    2.49
   0  15   6   51.64    2.30
   0  15  -6   51.67    1.98
   0  15  -7    1.26    0.71
   0  15   7    2.11    0.74
   0  15  -7    1.37    0.53
   0  15   8   13.78    1.22
   0  15  -8   16.81    1.07
   0  15  -8   17.00    1.45
   0  15   9    0.73    0.63
   0  15  -9    0.41    0.68
   0  15  -9   -0.17    0.50
   0  15 -10   10.47    0.91
   0  15 -10    9.90    1.22
   0  15 -11    3.08    0.88
   0  15 -12   15.61    1.45
   0  15 -13    6.11    1.09
   0  15 -14    1.48    0.84
   0  15 -15   11.77    1.42
   0  15 -16    9.75    1.33
   0  15 -17    8.26    1.30
   0  15 -18   24.37    1.92
   0  15 -19    0.13    0.86
   0  15 -20    4.74    1.17
   0  15 -21   17.74    1.74
   0  15 -22    1.57    0.98
   0  15 -23    0.52    0.85
   0  15 -24   -0.26    0.85
   0  15 -25    2.48    0.99
   0  15 -26    2.07    0.98
   0  15 -27    3.69    1.12
   0  15 -28    0.50    0.86
   0  15 -29    2.05    0.96
   0  15 -30    1.16    0.92
   0  16   0   13.43    1.22
   0  16   0   12.95    0.90
   0  16  -1   -0.09    0.59
   0  16  -1   -0.30    0.47
   0  16   1    0.20    0.42
   0  16   1    0.45    0.65
   0  16  -2    0.37    0.70
   0  16   2    0.34    0.45
   0  16  -2    1.16    0.46
   0  16   2    0.61    0.63
   0  16   3    3.12    0.77
   0  16  -3    1.79    0.53
   0  16  -3    2.45    0.77
   0  16  -4   -0.10    0.64
   0  16   4   -0.17    0.64
   0  16  -4    0.31    0.45
   0  16  -5    7.32    1.03
   0  16   5   10.48    1.08
   0  16  -5    9.39    0.81
   0  16  -6    1.01    0.69
   0  16   6    0.87    0.63
   0  16  -6    0.43    0.50
   0  16  -7    0.21    0.68
   0  16   7   -0.09    0.61
   0  16  -7   -0.06    0.47
   0  16   8    5.06    0.89
   0  16  -8    6.87    1.06
   0  16  -8    6.42    0.73
   0  16  -9    0.43    0.76
   0  16  -9   -0.12    0.53
   0  16 -10   21.59    1.72
   0  16 -10   23.89    1.31
   0  16 -11   -0.06    0.47
   0  16 -11   -0.45    0.78
   0  16 -12    0.12    0.48
   0  16 -12   -0.46    0.86
   0  16 -13   18.11    1.65
   0  16 -13   15.58    1.12
   0  16 -14    2.01    1.04
   0  16 -15    0.12    0.85
   0  16 -16    5.89    1.13
   0  16 -17    2.36    0.99
   0  16 -18    1.00    0.92
   0  16 -19   -0.63    0.83
   0  16 -20    4.09    1.11
   0  16 -21    5.39    1.14
   0  16 -22    1.29    0.93
   0  16 -23    5.89    1.17
   0  16 -24    1.14    0.90
   0  16 -25    0.13    0.86
   0  16 -26    0.49    0.83
   0  16 -27    0.72    0.92
   0  16 -28    4.86    1.09
   0  17   0    1.05    0.75
   0  17   0    0.59    0.47
   0  17  -1   12.43    0.91
   0  17   1    9.68    1.10
   0  17  -1   11.30    1.24
   0  17   2    3.42    0.83
   0  17  -2    1.99    0.52
   0  17  -2    3.49    0.88
   0  17  -3    1.38    0.75
   0  17   3    0.28    0.68
   0  17  -3   -0.15    0.51
   0  17  -4   16.78    1.43
   0  17  -4   15.66    1.02
   0  17   4   15.94    1.36
   0  17   5   10.74    1.18
   0  17  -5   10.74    1.22
   0  17  -5    9.65    0.85
   0  17  -6    9.18    1.16
   0  17   6    7.49    1.05
   0  17  -6    7.66    0.76
   0  17   7    0.83    0.70
   0  17  -7    1.29    0.83
   0  17  -7    0.59    0.52
   0  17  -8    8.37    0.84
   0  17   8   12.00    1.25
   0  17  -8    9.38    1.29
   0  17  -9    3.69    0.67
   0  17  -9    3.56    0.97
   0  17 -10   19.81    1.67
   0  17 -10   17.41    1.14
   0  17 -11   21.61    1.75
   0  17 -11   17.43    1.15
   0  17 -12    0.88    0.55
   0  17 -12    1.28    0.86
   0  17 -13    2.85    1.00
   0  17 -13    4.31    0.70
   0  17 -14    1.09    0.87
   0  17 -14    1.39    0.59
   0  17 -15    9.38    0.92
   0  17 -15   11.49    1.44
   0  17 -16   42.12    2.54
   0  17 -17   -0.12    0.92
   0  17 -18    5.25    1.11
   0  17 -19    2.89    1.03
   0  17 -20    8.43    1.34
   0  17 -21    2.01    1.04
   0  17 -22    0.50    0.88
   0  17 -23    0.62    0.83
   0  17 -24   -0.48    1.02
   0  17 -25    3.30    1.03
   0  17 -26    0.11    0.84
   0  18   0    2.29    0.79
   0  18   1   18.94    1.51
   0  18  -1   15.67    1.44
   0  18  -1   16.84    1.05
   0  18  -2    5.70    1.02
   0  18  -2    6.96    0.72
   0  18   2    6.29    0.98
   0  18  -3    2.04    0.54
   0  18   3    3.28    0.91
   0  18  -3    3.28    0.89
   0  18  -4   21.03    1.65
   0  18  -4   22.24    1.19
   0  18   4   22.35    1.64
   0  18   5   16.00    1.40
   0  18  -5   12.98    1.40
   0  18  -5   13.92    0.96
   0  18   6   18.77    1.57
   0  18  -6   19.32    1.62
   0  18  -6   20.31    1.16
   0  18  -7   29.88    1.45
   0  18  -7   31.61    2.08
   0  18   7   33.02    1.98
   0  18  -8   62.60    2.96
   0  18  -9    1.02    0.92
   0  18 -10   52.84    2.72
   0  18 -11   62.69    3.04
   0  18 -12   21.36    1.77
   0  18 -13    2.15    0.97
   0  18 -14   17.04    1.67
   0  18 -15    1.56    0.93
   0  18 -16   11.72    1.43
   0  18 -17    1.46    0.97
   0  18 -18    3.90    1.03
   0  18 -19    1.21    1.00
   0  18 -20   19.12    1.76
   0  18 -21    8.57    1.37
   0  18 -22   -0.70    0.95
   0  18 -23    3.55    1.01
   0  18 -24    0.22    0.87
   0  19   0    1.00    0.76
   0  19   1    0.30    0.69
   0  19  -1    0.10    0.77
   0  19  -2    2.65    0.85
   0  19   2    1.39    0.78
   0  19   3    1.68    0.86
   0  19  -3    2.29    0.87
   0  19  -4   12.13    1.32
   0  19   4    9.98    1.21
   0  19  -5   22.51    1.71
   0  19   5   24.12    1.70
   0  19  -6   -0.43    0.81
   0  19   6   -0.19    0.77
   0  19  -7    7.48    1.11
   0  19  -8    3.73    1.01
   0  19  -9   22.86    1.75
   0  19 -10    0.68    0.83
   0  19 -11    1.26    0.93
   0  19 -12   20.59    1.77
   0  19 -13    3.11    1.01
   0  19 -14   18.90    1.71
   0  19 -15   14.70    1.60
   0  19 -16   -0.58    0.94
   0  19 -17    0.47    0.82
   0  19 -18    3.47    1.00
   0  19 -19    0.91    0.86
   0  19 -20    1.00    0.88
   0  19 -21    6.31    1.15
   0  19 -22    0.74    0.91
   0  20   0    0.90    0.79
   0  20  -1    6.23    1.08
   0  20   1    8.65    1.12
   0  20  -2   -0.50    0.79
   0  20   2    1.48    0.80
   0  20  -3    5.87    0.98
   0  20   3    7.37    1.07
   0  20   4    0.20    0.79
   0  20  -4   -0.21    0.73
   0  20  -5    1.68    0.86
   0  20   5    3.19    0.91
   0  20  -6    2.11    0.86
   0  20  -7   -0.11    0.76
   0  20  -8    4.36    1.05
   0  20  -9    6.97    1.14
   0  20 -10   -0.22    0.79
   0  20 -11    3.46    0.94
   0  20 -12    2.27    0.91
   0  20 -13   -0.11    0.77
   0  20 -14    2.51    0.97
   0  20 -15    3.91    1.04
   0  20 -16    5.61    1.16
   0  20 -17    3.93    1.02
   0  20 -18   -0.52    0.82
   0  20 -19    0.92    0.81
   0  21   0   -0.29    0.87
   0  21  -1   -0.20    0.73
   0  21   1    0.58    0.79
   0  21  -2    3.33    0.94
   0  21   2    2.33    0.85
   0  21   3    2.76    0.92
   0  21  -3    2.06    0.82
   0  21  -4    0.39    0.75
   0  21   4    1.89    0.82
   0  21  -5    4.94    0.97
   0  21  -6    9.74    1.21
   0  21  -7    4.94    1.05
   0  21  -8   -0.10    0.80
   0  21  -9   23.78    1.76
   0  21 -10    1.91    0.83
   0  21 -11    1.50    0.82
   0  21 -12    0.10    0.75
   0  21 -13    0.10    0.80
   0  21 -14    2.86    0.89
   0  21 -15   -0.19    0.73
   0  21 -16    2.09    0.82
   0  22   0   -0.37    0.77
   0  22   1    0.09    0.73
   0  22  -1    0.37    0.74
   0  22  -2   -0.09    0.70
   0  22   2    0.18    0.71
   0  22  -3   -0.28    0.81
   0  22  -4    6.45    1.00
   0  22  -5    1.19    0.77
   0  22  -6    0.82    0.78
   0  22  -7   -0.27    0.73
   0  22  -8   11.31    1.22
   0  22  -9    1.63    0.76
   0  22 -10    0.91    0.75
   0  22 -11    0.81    0.73
   0  23   0   -0.16    0.74
   0  23  -1    5.98    0.99
   0  23  -2   19.12    1.47
  -1   0   0    1.07    0.12
  -1   0   1   19.54    0.56
  -1   0  -3  376.27    8.28
  -1   0  -4 9999.00  216.54
  -1   0  -5 7420.42  160.41
   1   0  -5 7392.02  160.34
   1   0  -6 4800.68  104.51
  -1   0  -6 4854.50  104.58
  -1   0  -7  388.94    8.71
   1   0  -7  386.13    8.62
  -1   0   7  404.30    8.92
   1   0  -8   70.35    1.73
  -1   0  -8   71.14    1.83
  -1   0   8   74.97    2.04
  -1   0  -9  105.37    2.67
  -1   0   9  115.18    2.90
  -1   0 -10 1339.27   29.24
  -1   0  10 1325.12   29.48
  -1   0 -11  276.91    6.50
  -1   0  11  288.54    6.75
  -1   0 -12   27.31    0.98
   1   0  12   29.57    0.97
  -1   0  12   26.61    1.13
  -1   0 -13   16.61    0.75
   1   0  13   17.89    0.74
  -1   0  13   18.79    0.92
  -1   0 -14    3.87    0.40
   1   0  14    4.29    0.39
  -1   0  14    4.22    0.48
  -1   0 -14    3.76    0.47
  -1   0 -15   31.95    1.19
   1   0  15   30.49    1.13
  -1   0 -15   33.84    1.37
  -1   0  15   30.53    1.32
  -1   0 -16  565.35   13.11
   1   0  16  583.89   13.06
  -1   0 -16  575.42   13.38
  -1   0 -17   12.58    0.78
   1   0  17   12.31    0.75
  -1   0 -17   12.28    0.85
  -1   0 -18    0.56    0.35
   1   0  18    0.69    0.38
  -1   0 -18    0.54    0.38
  -1   0 -19    4.49    0.56
   1   0  19    4.79    0.58
  -1   0 -19    4.87    0.64
  -1   0 -20  117.89    3.50
   1   0  20  129.12    3.53
  -1   0 -20  120.53    3.69
  -1   0 -21  252.62    6.43
   1   0  21  250.98    6.38
  -1   0 -22   68.84    2.42
   1   0  22   70.27    2.41
  -1   0 -23   13.80    1.01
   1   0  23   13.82    1.01
  -1   0 -24    9.58    0.92
   1   0  24   11.85    0.95
  -1   0 -25   11.31    1.03
   1   0  25   11.61    1.01
  -1   0 -26    5.81    0.81
   1   0 -26    6.03    0.84
   1   0 -27   10.16    0.99
  -1   0 -27   10.69    1.05
  -1   0 -28    8.89    1.02
   1   0 -28    7.87    0.95
   1   0 -29   -0.08    0.61
  -1   0 -29   -0.08    0.71
  -1   0 -29    1.72    0.77
  -1   0 -30    1.69    0.76
   1   0 -30    1.32    0.75
  -1   0 -30    1.42    0.76
  -1   0 -31   -0.30    0.77
  -1   0 -31    0.46    0.75
   1   0 -31    1.46    0.77
  -1   0 -32    2.44    0.89
  -1   0 -32    3.49    0.92
   1   0 -32    3.26    0.81
  -1   0 -33   10.81    1.26
   1   0 -33    9.43    1.14
   1   0 -34   -0.09    0.75
  -1   0 -34   -0.22    0.90
   1   0 -35    4.97    1.03
   1   0 -35    4.86    1.05
  -1   0 -35    3.96    1.07
   1   0 -36   28.00    1.94
   1   0 -36   31.92    1.91
  -1   0 -36   27.27    1.98
   1   0 -37    6.11    1.14
  -1   0 -37    4.53    1.06
   1   0 -37    5.83    1.04
  -1   0 -38    4.18    1.03
   1   0 -38    6.55    1.07
   1   0 -38    5.79    1.14
   1   0 -39   -0.17    0.79
   1   0 -39    1.21    0.81
  -1   0 -39    0.31    0.81
   1   1 -39    4.17    1.00
  -1  -1 -39    4.93    1.00
  -1  -1 -38    6.09    1.14
   1   1 -38    5.77    1.03
   1   1 -37    3.54    0.97
  -1  -1 -37    2.56    0.94
  -1  -1 -36    6.10    1.16
   1   1 -36    6.01    1.09
  -1  -1 -35    5.11    1.06
   1   1 -35    5.94    1.05
  -1  -1 -34    3.66    0.97
   1   1 -34    3.68    0.94
  -1  -1 -33    1.23    0.85
   1   1 -33    1.12    0.86
  -1  -1 -32   18.92    1.48
  -1  -1 -32   19.12    1.51
   1   1 -32   19.03    1.51
  -1  -1 -31    8.14    1.10
  -1  -1 -31    7.76    1.05
   1   1 -31    8.73    1.09
   1   1 -30    2.23    0.82
  -1  -1 -30    3.12    0.80
  -1  -1 -30    2.21    0.81
  -1  -1 -29    8.06    0.99
   1   1 -29    8.82    1.05
   1   1 -28    1.24    0.70
  -1  -1 -28    0.85    0.66
  -1  -1 -27    9.60    1.00
   1   1 -27   11.61    1.07
   1   1 -26   53.11    2.25
  -1  -1 -26   52.61    2.21
   1   1 -25    5.47    0.81
  -1  -1 -25    4.65    0.75
   1  -1  25    4.14    0.70
  -1  -1 -24    2.36    0.58
   1  -1  24    3.21    0.64
  -1  -1 -23   33.09    1.53
   1  -1  23   32.83    1.56
  -1  -1 -22   17.94    1.07
   1  -1  22   17.79    1.09
  -1  -1 -21    6.35    0.66
   1  -1  21    5.18    0.67
  -1  -1 -20   42.66    1.67
   1  -1  20   45.79    1.73
  -1  -1 -20   47.13    1.92
  -1  -1 -19   32.87    1.37
   1  -1  19   35.68    1.44
  -1  -1 -18    8.77    0.67
   1  -1  18    8.39    0.67
  -1  -1 -17   14.18    0.79
   1  -1  17   16.35    0.84
  -1  -1 -16   30.75    1.18
   1  -1  16   30.89    1.18
  -1  -1 -15    9.62    0.60
   1  -1  15    8.34    0.57
  -1  -1 -14   30.52    1.11
   1  -1  14   31.47    1.12
  -1   1  14   32.66    1.32
  -1  -1 -13  106.87    2.83
   1  -1  13  112.19    2.83
  -1   1  13  113.05    3.12
  -1  -1 -12  158.68    3.90
   1  -1  12  165.58    3.89
  -1   1  12  157.38    4.17
  -1  -1 -11  938.82   20.89
   1  -1  11  957.36   20.87
  -1   1  11  944.54   21.18
  -1  -1 -10  182.99    4.39
   1  -1  10  192.91    4.38
  -1   1  10  184.87    4.63
  -1  -1  -9  334.86    7.67
  -1   1   9  351.66    7.95
  -1  -1  -8  201.63    4.66
   1   1  -8  202.13    4.64
   1  -1   8  204.05    4.64
  -1   1   8  204.08    4.89
   1   1  -7  154.11    3.56
  -1  -1  -7  147.26    3.56
   1  -1   7  157.10    3.55
  -1   1   7  158.86    3.79
   1   1  -6 1163.71   25.41
  -1  -1  -6 1152.75   25.40
   1  -1   6 1195.41   25.39
  -1   1   6 1124.03   25.60
  -1  -1  -5 2148.77   46.56
   1   1  -5 2119.92   46.58
   1  -1   5 2158.21   46.55
   1  -1   4  148.19    3.37
   1   1  -3 1880.77   40.87
   1  -1   3 1881.65   40.86
   1   1  -2  641.45   14.30
   1  -1   2  665.73   14.30
   1   1  -1 2195.55   47.56
   1   1  -1 2185.72   47.56
  -1   1   0  650.95   14.49
   1   1   0  660.96   14.38
  -1   1  -1 2247.65   48.91
   1   1   2  649.30   14.20
  -1   1  -3 1881.32   40.94
   1   1   3 1884.68   40.90
  -1   1  -4  145.82    3.41
  -1   1  -4  148.93    3.40
  -1   1  -5 2176.51   46.96
  -1   1  -5 2141.48   46.97
  -1   1  -6 1186.42   25.85
  -1   1  -6 1178.82   25.85
  -1   1  -7  151.50    3.57
  -1   1  -8  204.75    4.76
  -1  -1   8  205.34    4.94
  -1   1  -9  341.60    7.86
  -1  -1   9  353.84    8.06
  -1   1 -10  185.95    4.40
  -1  -1  10  182.58    4.59
  -1   1 -11  945.08   21.28
  -1   1 -11  985.63   21.46
  -1  -1  11  964.31   21.51
  -1   1 -12  162.82    3.98
  -1  -1  12  161.43    4.18
  -1   1 -12  159.80    4.14
  -1   1 -13  109.73    2.91
  -1  -1  13  112.66    3.12
  -1   1 -13  110.15    3.06
  -1   1 -14   30.50    1.16
  -1  -1  14   32.76    1.32
  -1   1 -14   31.85    1.29
  -1   1 -15    9.28    0.61
  -1  -1  15    8.05    0.65
  -1   1 -15    8.42    0.66
  -1   1 -16   29.95    1.21
  -1   1 -16   29.46    1.31
  -1  -1  16   29.39    1.31
  -1   1 -17   16.16    0.88
  -1   1 -17   15.49    0.95
  -1   1 -18    8.23    0.68
  -1   1 -18    9.09    0.77
  -1   1 -19   39.18    1.55
  -1   1 -19   35.77    1.60
  -1   1 -20   42.31    1.70
  -1   1 -20   43.15    1.80
  -1   1 -21    6.42    0.71
  -1   1 -22   19.22    1.17
  -1   1 -23   36.49    1.70
  -1   1 -24    3.54    0.68
  -1   1 -25    5.34    0.80
  -1   1 -26   55.69    2.36
  -1   1 -26   54.93    2.38
   1  -1 -26   56.21    2.25
   1  -1 -27   10.34    1.00
  -1   1 -27   10.73    1.09
  -1   1 -27   10.61    1.07
  -1   1 -28    1.85    0.76
  -1   1 -28    1.02    0.69
   1  -1 -28    1.21    0.65
   1  -1 -29    7.40    0.95
  -1   1 -29    7.10    0.99
  -1   1 -29    9.19    1.12
   1  -1 -30    1.50    0.71
  -1   1 -30    2.72    0.82
  -1   1 -30    1.76    0.84
  -1   1 -31    7.83    1.10
   1  -1 -31    7.59    1.02
  -1   1 -31    7.14    1.13
   1  -1 -32   19.91    1.47
  -1   1 -32   17.22    1.50
  -1   1 -32   20.49    1.62
   1  -1 -33    0.26    0.69
  -1   1 -33    0.70    0.84
  -1   1 -33    0.44    0.80
   1  -1 -34    3.78    0.88
  -1   1 -34    4.03    1.00
   1  -1 -35    5.35    1.03
  -1   1 -35    5.93    1.14
   1  -1 -36    5.09    1.00
   1  -1 -36    2.61    0.99
  -1   1 -36    5.95    1.13
   1  -1 -37    3.35    0.91
   1  -1 -37    1.65    0.88
  -1   1 -37    2.48    0.93
   1  -1 -38    7.33    1.08
  -1   1 -38    6.52    1.22
   1  -1 -38    8.11    1.19
   1  -1 -39    5.74    0.93
  -1   1 -39    3.63    1.00
   1  -1 -39    5.21    1.06
   1   2 -39    1.10    0.86
  -1  -2 -39    1.76    0.83
  -1  -2 -38    0.60    0.83
   1   2 -38    1.06    0.83
  -1  -2 -37    3.48    0.95
   1   2 -37    5.75    1.09
   1   2 -36    0.10    0.81
  -1  -2 -36    0.21    0.75
  -1  -2 -35    1.44    0.84
   1   2 -35    2.38    0.89
   1   2 -34    1.57    0.94
  -1  -2 -34    2.03    0.85
   1   2 -33   10.20    1.22
  -1  -2 -33    9.42    1.19
  -1  -2 -32    4.06    0.91
   1   2 -32    4.57    0.99
  -1  -2 -31    1.64    0.69
   1   2 -31    1.11    0.79
  -1  -2 -30   17.66    1.36
   1   2 -30   17.22    1.45
  -1  -2 -29    3.96    0.81
   1   2 -29    7.62    1.04
  -1  -2 -28    2.69    0.72
   1   2 -28    3.94    0.86
  -1  -2 -27    8.13    0.90
   1   2 -27    7.93    0.96
   1   2 -26    6.73    0.90
  -1  -2 -26    6.26    0.82
  -1  -2 -25    0.85    0.53
   1   2 -25    0.82    0.59
  -1  -2 -24    1.63    0.54
   1  -2  24    2.24    0.59
  -1  -2 -23    3.24    0.56
   1  -2  23    5.01    0.71
  -1  -2 -22   28.07    1.32
   1  -2  22   25.38    1.31
  -1  -2 -21   38.09    1.52
   1  -2  21   35.96    1.56
  -1  -2 -20   11.11    0.78
   1  -2  20   10.13    0.80
  -1  -2 -19  106.85    3.10
   1  -2  19  117.98    3.25
  -1  -2 -18    9.36    0.65
   1  -2  18    8.22    0.67
  -1  -2 -17   16.21    0.81
   1  -2  17   17.53    0.86
  -1  -2 -17   14.58    0.98
  -1  -2 -16   24.13    1.00
   1  -2  16   25.40    1.04
  -1  -2 -16   26.48    1.25
  -1  -2 -15   76.00    2.16
   1  -2  15   76.66    2.17
  -1  -2 -15   78.92    2.48
  -1  -2 -14   34.34    1.17
   1  -2  14   36.00    1.21
  -1  -2 -14   36.16    1.43
  -1  -2 -13   19.90    0.79
   1  -2  13   20.89    0.82
  -1  -2 -13   19.50    0.97
  -1  -2 -12   55.02    1.59
   1  -2  12   57.49    1.61
  -1  -2 -12   58.38    1.88
  -1  -2 -11  272.39    6.35
   1  -2  11  282.83    6.37
  -1  -2 -10   22.12    0.74
   1  -2  10   21.06    0.75
   1   2  -9   82.43    2.04
  -1  -2  -9   77.01    1.98
   1  -2   9   79.18    1.99
  -1  -2  -8    0.01    0.12
   1  -2   8   -0.05    0.14
   1   2  -8    0.12    0.15
   1   2  -7   67.60    1.75
  -1  -2  -7   67.73    1.69
   1  -2   7   69.84    1.70
  -1  -2  -6  290.88    6.66
   1   2  -6  312.44    6.75
   1  -2   6  298.28    6.67
   1   2  -5 1794.99   38.86
   1  -2   5 1776.51   38.78
   1   2  -4   65.38    1.62
   1  -2   4   63.07    1.54
   1   2  -3  102.80    2.36
   1   2  -3  102.39    2.46
   1  -2   3  104.32    2.39
  -1   2   3  104.20    2.42
   1   2  -2  649.02   13.84
   1  -2   2  643.27   13.76
   1   2  -1 1797.60   38.55
  -1   2   1 1752.65   38.49
  -1   2   0    1.92    0.24
   1   2   0    2.14    0.15
  -1   2   0    2.02    0.16
  -1   2  -1 1868.31   41.36
   1  -2  -1 1809.28   41.36
   1   2   1 1935.30   41.12
  -1   2  -2  655.07   14.69
   1   2   2  649.11   14.42
   1   2   2  673.18   14.43
  -1   2  -3  102.58    2.41
   1   2   3  102.42    2.30
   1   2   3   94.56    2.31
  -1   2  -4   60.86    1.59
   1   2   4   62.06    1.49
  -1   2  -5 1797.19   38.34
  -1   2  -5 1738.37   38.33
   1   2   5 1746.66   38.22
  -1   2  -6  308.92    6.86
  -1   2  -6  300.74    6.87
   1   2   6  301.12    6.76
  -1   2  -7   70.94    1.85
  -1   2  -7   71.68    1.84
   1   2   7   69.39    1.74
  -1   2  -8    0.09    0.15
  -1   2  -8    0.15    0.16
   1   2   8   -0.06    0.12
  -1   2  -8    0.06    0.14
  -1   2  -9   79.80    2.14
  -1   2  -9   80.51    2.14
  -1  -2   9   81.70    2.28
  -1   2  -9   83.79    2.21
  -1   2 -10   21.26    0.82
  -1  -2  10   21.61    0.92
  -1   2 -11  276.33    6.46
  -1  -2  11  275.07    6.62
  -1   2 -12   56.01    1.69
  -1   2 -12   55.25    1.78
  -1  -2  12   59.20    1.84
  -1   2 -13   19.73    0.86
  -1   2 -13   18.28    0.90
  -1  -2  13   19.75    0.95
  -1   2 -14   33.96    1.26
  -1  -2  14   35.50    1.38
  -1   2 -14   34.32    1.34
  -1   2 -15   74.80    2.26
  -1   2 -15   74.67    2.35
  -1  -2  15   76.72    2.39
  -1   2 -16   24.30    1.10
  -1   2 -16   24.67    1.16
  -1  -2  16   26.02    1.21
  -1   2 -17   16.49    0.93
  -1   2 -17   16.63    0.97
  -1   2 -18    9.30    0.72
  -1   2 -18    8.19    0.73
  -1   2 -19  109.05    3.19
  -1   2 -19  104.26    3.23
  -1   2 -20    9.91    0.83
  -1   2 -21   37.22    1.64
  -1   2 -22   27.89    1.43
  -1   2 -23    2.90    0.63
  -1   2 -23    5.11    0.72
  -1   2 -24    1.03    0.58
  -1   2 -24    1.87    0.60
  -1   2 -25    0.31    0.60
  -1   2 -25    0.44    0.58
  -1   2 -26    4.72    0.86
   1  -2 -26    5.87    0.79
  -1   2 -26    6.37    0.90
  -1   2 -27    8.64    1.01
   1  -2 -27    6.95    0.83
  -1   2 -27    6.77    0.96
  -1   2 -28    2.83    0.82
  -1   2 -28    3.18    0.82
   1  -2 -28    2.85    0.72
  -1   2 -29    6.69    0.98
   1  -2 -29    5.20    0.82
  -1   2 -29    5.49    0.96
  -1   2 -30   17.67    1.45
   1  -2 -30   16.55    1.30
  -1   2 -30   17.13    1.47
  -1   2 -31    2.81    0.91
  -1   2 -31    1.06    0.77
   1  -2 -31    1.32    0.71
  -1   2 -32    4.33    1.00
  -1   2 -32    4.07    1.01
   1  -2 -32    3.42    0.86
  -1   2 -33    6.50    1.14
   1  -2 -33   10.57    1.14
  -1   2 -33    9.52    1.27
  -1   2 -34    1.97    0.89
   1  -2 -34    1.14    0.74
   1  -2 -35    3.56    0.86
  -1   2 -35    3.26    1.01
   1  -2 -36    0.16    0.70
  -1   2 -36    0.12    0.89
   1  -2 -37    2.73    0.95
   1  -2 -37    2.64    0.86
  -1   2 -37    3.34    1.00
  -1   2 -38    1.12    0.92
   1  -2 -38    0.10    0.78
  -1   2 -39    0.32    0.83
   1  -2 -39    0.29    0.75
  -1  -3 -39   -0.28    0.78
   1   3 -39   -0.47    0.81
   1   3 -39    0.21    0.74
   1   3 -38   -0.20    0.82
  -1  -3 -38   -0.19    0.72
   1   3 -38    0.54    0.87
   1   3 -37    8.24    1.19
  -1  -3 -37    6.79    1.11
   1   3 -37    5.55    1.17
  -1  -3 -36    2.37    0.92
   1   3 -36    2.70    0.91
   1   3 -36    2.90    1.00
   1   3 -35    5.15    1.07
   1   3 -35    5.25    1.08
  -1  -3 -35    7.21    1.11
   1   3 -34    2.01    0.90
   1   3 -34    1.88    0.93
  -1  -3 -34    2.74    0.89
   1   3 -33    4.83    1.03
  -1  -3 -33    2.89    0.88
   1   3 -33    4.11    0.99
   1   3 -32   17.97    1.57
   1   3 -32   16.22    1.50
   1   3 -31    1.11    0.83
   1   3 -31    0.10    0.79
  -1  -3 -30    1.18    0.69
   1   3 -30    1.07    0.74
   1   3 -30    1.75    0.80
   1   3 -29   17.73    1.42
   1   3 -29   15.61    1.40
  -1  -3 -29   14.80    1.20
   1   3 -28    5.94    0.95
  -1  -3 -28    4.43    0.75
  -1  -3 -27   13.10    1.08
   1   3 -27   15.13    1.26
  -1  -3 -26    2.20    0.63
   1   3 -26    2.85    0.73
  -1  -3 -25   54.46    2.11
   1   3 -25   56.52    2.31
   1   3 -24   24.32    1.45
  -1  -3 -24   25.21    1.32
   1  -3  24   24.28    1.35
  -1  -3 -23   34.42    1.49
   1  -3  23   32.10    1.55
  -1  -3 -22   41.95    1.63
   1  -3  22   40.47    1.70
  -1  -3 -21   70.32    2.27
   1  -3  21   70.74    2.36
  -1  -3 -20   20.73    1.02
   1  -3  20   19.00    1.04
  -1  -3 -19   35.90    1.38
   1  -3  19   37.88    1.49
  -1  -3 -19   37.36    1.68
  -1  -3 -18   24.93    1.05
   1  -3  18   25.22    1.15
  -1  -3 -18   24.87    1.31
  -1  -3 -17    1.95    0.36
   1  -3  17    2.57    0.40
  -1  -3 -17    2.79    0.51
  -1  -3 -16   92.35    2.57
   1  -3  16   97.40    2.67
  -1  -3 -16  101.00    2.99
  -1  -3 -15   43.04    1.34
   1  -3  15   38.66    1.34
  -1  -3 -15   41.95    1.63
  -1  -3 -14    2.95    0.32
   1  -3  14    3.15    0.37
  -1  -3 -14    4.64    0.51
  -1  -3 -13   48.59    1.42
   1  -3  13   47.80    1.47
  -1  -3 -13   49.50    1.74
  -1  -3 -12  224.74    5.26
   1  -3  12  223.87    5.30
  -1  -3 -12  237.44    5.70
  -1  -3 -11   47.66    1.35
   1  -3  11   50.07    1.40
  -1  -3 -10   41.08    1.15
   1  -3  10   42.26    1.19
  -1   3  10   39.30    1.40
   1   3  -9  420.58    9.28
  -1  -3  -9  400.87    9.12
   1  -3   9  417.53    9.17
  -1   3   9  403.99    9.45
  -1  -3  -8  210.30    4.83
   1   3  -8  217.99    4.99
   1  -3   8  216.25    4.88
  -1   3   8  209.10    5.12
   1   3  -7  149.52    3.54
  -1  -3  -7  147.33    3.39
   1  -3   7  146.43    3.42
  -1   3   7  149.85    3.65
   1   3  -6   90.68    2.22
   1  -3   6   86.73    2.09
  -1   3   6   86.35    2.29
   1   3  -5  154.13    3.62
  -1   3   5  154.93    3.67
   1   3  -5  154.07    3.59
   1  -3   5  151.33    3.48
   1   3  -4   26.22    0.82
   1   3  -4   24.82    0.80
   1   3  -4   24.25    0.75
  -1   3   4   25.64    0.82
   1  -3   4   25.45    0.69
   1   3  -3   15.52    0.45
   1   3  -3   16.17    0.54
   1   3  -3   16.67    0.59
  -1   3   3   14.33    0.54
   1  -3   3   16.28    0.47
  -1   3   3   14.90    0.53
   1   3  -2   50.84    1.34
  -1   3   2   47.98    1.25
   1  -3   2   50.29    1.20
  -1   3   2   47.53    1.28
   1   3  -1  688.74   15.25
  -1   3   1  656.66   15.20
  -1   3   0  659.78   14.95
   1   3   0  700.38   14.96
  -1   3  -1  704.71   16.69
  -1   3  -1  702.34   16.44
  -1   3  -2   49.36    1.52
  -1  -3   2   48.25    1.27
   1   3   2   50.28    1.20
   1   3   2   48.76    1.28
  -1   3  -3   14.70    0.71
   1   3   3   16.26    0.48
   1   3   3   16.51    0.55
  -1   3  -4   24.05    0.97
   1   3   4   25.59    0.70
   1   3   4   26.27    0.78
  -1   3  -5  156.28    3.67
   1   3   5  151.80    3.49
  -1   3  -6   90.92    2.28
   1   3   6   86.37    2.09
  -1   3  -6   88.03    2.18
  -1   3  -7  150.68    3.60
   1   3   7  145.00    3.42
  -1   3  -7  149.60    3.53
  -1   3  -8  214.24    4.97
   1   3   8  209.68    4.78
  -1   3  -8  203.89    4.92
  -1   3  -9  410.52    9.46
  -1   3  -9  419.49    9.49
  -1  -3   9  424.04    9.59
  -1   3  -9  415.63    9.47
  -1   3 -10   40.98    1.31
  -1   3 -10   40.33    1.32
   1   3  10   41.27    1.19
  -1  -3  10   42.96    1.41
  -1   3 -11   52.23    1.58
  -1   3 -11   49.17    1.54
   1   3  11   48.65    1.41
  -1  -3  11   51.10    1.63
  -1   3 -12  225.38    5.45
  -1   3 -12  223.70    5.43
   1   3  12  225.53    5.28
  -1  -3  12  228.88    5.55
  -1   3 -12  220.78    5.46
  -1   3 -13   48.10    1.63
  -1   3 -13   49.75    1.61
   1   3  13   49.91    1.50
  -1   3 -13   50.94    1.65
  -1  -3  13   49.55    1.70
  -1   3 -14    3.41    0.44
  -1   3 -14    3.33    0.43
   1   3  14    3.69    0.39
  -1   3 -14    3.37    0.41
  -1  -3  14    4.39    0.48
  -1   3 -15   40.74    1.52
  -1   3 -15   41.34    1.51
   1   3  15   42.96    1.39
  -1  -3  15   41.29    1.57
  -1   3 -15   39.30    1.51
  -1   3 -16   97.04    2.84
  -1   3 -16   96.38    2.82
   1   3  16   96.55    2.66
  -1  -3  16   92.89    2.86
  -1   3 -16   97.31    2.85
  -1   3 -17    1.55    0.42
  -1   3 -17    1.87    0.45
   1   3  17    2.97    0.44
  -1   3 -17    2.12    0.42
  -1  -3  17    2.20    0.44
  -1   3 -18   25.01    1.22
  -1   3 -18   21.23    1.14
   1   3  18   26.47    1.15
  -1   3 -19   38.88    1.60
  -1   3 -19   36.73    1.56
   1   3  19   32.59    1.41
  -1   3 -20   21.20    1.20
  -1   3 -20   21.83    1.22
   1   3  20   22.00    1.13
  -1   3 -21   69.62    2.52
  -1   3 -21   68.75    2.50
   1   3  21   71.82    2.37
  -1   3 -22   41.24    1.84
  -1   3 -22   42.47    1.85
   1   3  22   39.80    1.71
  -1   3 -23   35.24    1.74
  -1   3 -23   36.76    1.74
   1   3  23   34.69    1.61
  -1   3 -24   25.60    1.50
  -1   3 -24   21.81    1.40
   1   3  24   22.41    1.32
  -1   3 -25   55.30    2.43
   1  -3 -25   58.72    2.16
  -1   3 -25   57.16    2.42
  -1   3 -26    2.55    0.75
   1  -3 -26    1.62    0.59
  -1   3 -26    2.05    0.73
   1  -3 -27   14.19    1.08
  -1   3 -27   15.83    1.33
  -1   3 -27   14.38    1.29
  -1   3 -28    3.49    0.87
  -1   3 -28    3.36    0.85
   1  -3 -28    5.20    0.79
  -1   3 -29   14.75    1.42
  -1   3 -29   16.20    1.42
   1  -3 -29   14.90    1.17
  -1   3 -30    2.11    0.84
   1  -3 -30    1.91    0.67
  -1   3 -30    1.59    0.81
  -1   3 -31   -0.31    0.74
   1  -3 -31    1.31    0.68
  -1   3 -31   -0.22    0.84
   1  -3 -32   15.24    1.24
  -1   3 -32   17.97    1.58
  -1   3 -32   17.61    1.60
   1  -3 -33    3.23    0.80
  -1   3 -33    3.26    1.01
   1  -3 -34    3.15    0.81
  -1   3 -34    3.78    0.95
  -1   3 -35    7.39    1.21
   1  -3 -35    6.09    0.95
  -1   3 -36    2.96    1.01
  -1   3 -37    5.26    1.15
  -1   3 -38   -0.46    0.87
   1  -3 -38    0.67    0.79
  -1   3 -39   -0.77    0.86
   1  -3 -39    0.65    0.75
   1   4 -39    1.04    0.86
   1   4 -39    1.34    0.83
  -1  -4 -39    1.42    0.78
   1   4 -38    0.43    0.83
   1   4 -38    0.10    0.88
  -1  -4 -38    0.46    0.74
   1   4 -37    2.71    1.01
   1   4 -37    3.11    0.98
  -1  -4 -37    2.72    0.87
   1   4 -36    1.13    0.91
   1   4 -36    2.32    0.93
  -1  -4 -36    1.60    0.77
   1   4 -35   -0.11    0.91
   1   4 -35    0.11    0.85
  -1  -4 -35    0.19    0.75
   1   4 -34    7.05    1.13
  -1  -4 -34    7.76    1.12
   1   4 -33   20.07    1.67
   1   4 -33   20.94    1.67
   1   4 -32    3.63    1.01
   1   4 -32    6.13    1.06
   1   4 -31    0.93    0.77
   1   4 -31    1.48    0.87
   1   4 -30   34.28    2.02
   1   4 -30   30.33    1.91
   1   4 -29    1.62    0.79
   1   4 -29    3.20    0.93
  -1  -4 -28    1.14    0.64
   1   4 -28    2.54    0.85
   1   4 -28    1.22    0.69
   1   4 -27   17.82    1.40
  -1  -4 -27   17.44    1.20
   1   4 -27   18.09    1.40
  -1  -4 -26   31.78    1.52
   1   4 -26   28.78    1.72
   1   4 -26   26.64    1.62
   1   4 -25   58.26    2.41
  -1  -4 -25   58.43    2.14
   1   4 -24   14.82    1.15
  -1  -4 -24   11.30    0.89
  -1  -4 -23   53.29    1.91
   1   4 -23   53.51    2.16
   1  -4  23   49.06    1.99
  -1  -4 -22   11.55    0.83
   1  -4  22   12.30    0.93
  -1  -4 -21  152.59    4.02
   1  -4  21  148.95    4.16
  -1  -4 -20   33.67    1.32
   1  -4  20   34.71    1.46
  -1  -4 -19  121.21    3.25
   1  -4  19  122.65    3.41
  -1  -4 -19  121.57    3.72
  -1  -4 -18   12.99    0.72
   1  -4  18   13.51    0.82
  -1  -4 -18   13.70    0.96
  -1  -4 -17  243.27    5.85
   1  -4  17  250.48    6.01
  -1  -4 -17  242.24    6.36
  -1  -4 -16  104.17    2.71
   1  -4  16  100.31    2.80
  -1  -4 -16  103.18    3.15
  -1  -4 -15   11.21    0.58
   1  -4  15   12.19    0.67
  -1  -4 -15   12.02    0.84
  -1  -4 -14   65.67    1.80
   1  -4  14   64.44    1.88
  -1  -4 -14   69.23    2.24
  -1  -4 -13   39.71    1.20
   1  -4  13   39.98    1.27
  -1  -4 -13   41.98    1.57
  -1  -4 -12   78.76    2.00
   1  -4  12   76.51    2.07
  -1  -4 -12   80.11    2.42
  -1  -4 -11  144.84    3.43
   1  -4  11  147.36    3.52
  -1  -4 -10   43.74    1.18
   1  -4  10   43.43    1.25
  -1  -4  -9  113.78    2.72
   1   4  -9  121.04    2.95
   1  -4   9  114.94    2.78
   1   4  -8   32.52    1.05
  -1  -4  -8   31.31    0.86
   1  -4   8   31.26    0.91
   1   4  -7  514.82   11.28
   1  -4   7  501.29   11.09
   1   4  -7  492.88   11.30
  -1   4   7  500.23   11.34
   1   4  -6  176.26    4.10
   1   4  -6  178.47    4.22
   1  -4   6  176.25    4.04
  -1   4   6  183.63    4.27
   1   4  -6  176.68    4.24
   1   4  -5 1651.22   35.55
   1   4  -5 1617.73   35.40
   1  -4   5 1620.65   35.34
   1   4  -5 1612.08   35.55
  -1   4   5 1636.04   35.54
   1   4  -4  594.46   13.07
   1   4  -4  587.93   12.92
   1  -4   4  581.03   12.86
  -1   4   4  593.11   13.03
   1   4  -4  600.54   13.10
   1   4  -4  579.24   13.08
   1   4  -3   21.03    0.61
  -1   4   3   21.18    0.67
   1   4  -3   20.35    0.74
   1  -4   3   20.60    0.58
   1  -4   2  188.77    4.76
  -1   4   2  191.78    4.36
   1  -4   2  193.59    4.29
  -1   4   1  118.26    2.64
   1  -4   1  114.04    2.62
   1   4  -1  116.78    2.83
  -1   4   1  113.51    2.63
  -1   4   0  449.67    9.78
   1   4   0  444.18   10.02
  -1   4   0  447.37    9.83
  -1  -4   1  114.54    2.85
  -1   4  -1  119.44    3.12
   1   4   1  114.09    2.61
   1   4   1  116.00    2.80
  -1   4  -2  194.08    4.32
  -1  -4   2  194.11    4.50
  -1   4  -2  179.89    4.75
   1   4   2  193.29    4.28
   1   4   2  190.06    4.46
  -1  -4   3   20.30    0.71
  -1   4  -3   20.91    0.53
   1   4   3   20.95    0.58
   1   4   3   20.85    0.71
  -1   4  -3   20.53    0.62
  -1   4  -4  589.28   12.91
   1   4   4  587.42   12.92
   1   4   4  599.15   13.10
  -1   4  -5 1651.00   35.86
  -1   4  -5 1638.46   35.69
   1   4   5 1629.03   35.66
   1   4   5 1657.92   35.84
  -1   4  -6  180.65    4.27
   1   4   6  180.01    4.08
  -1   4  -6  178.11    4.13
   1   4   7  504.32   11.00
  -1   4  -7  489.42   11.08
   1   4   8   32.92    0.93
  -1   4  -8   31.13    1.00
  -1  -4   9  115.67    3.01
  -1   4  -9  115.07    2.89
   1   4  10   44.22    1.27
  -1   4 -10   44.47    1.38
  -1  -4  10   45.55    1.47
   1   4  11  148.31    3.58
  -1  -4  11  149.02    3.83
   1   4  12   76.91    2.11
  -1   4 -12   81.09    2.25
  -1  -4  12   81.59    2.34
  -1   4 -13   41.02    1.44
   1   4  13   40.36    1.30
  -1  -4  13   40.75    1.48
  -1   4 -13   41.61    1.43
  -1   4 -14   68.05    2.09
   1   4  14   63.96    1.90
  -1  -4  14   68.35    2.12
  -1   4 -15   12.01    0.78
   1   4  15   11.52    0.66
  -1  -4  15   11.53    0.76
  -1   4 -16  101.47    2.97
  -1   4 -16   95.24    2.97
   1   4  16  101.42    2.78
  -1  -4  16  102.20    2.98
  -1   4 -17  242.28    6.33
  -1   4 -17  249.73    6.29
   1   4  17  257.68    6.15
  -1  -4  17  248.49    6.30
  -1   4 -18   12.11    0.88
  -1   4 -18   11.03    0.87
   1   4  18   11.88    0.80
  -1   4 -19  117.53    3.55
  -1   4 -19  110.47    3.46
   1   4  19  121.80    3.32
  -1   4 -20   33.70    1.60
  -1   4 -20   31.47    1.53
   1   4  20   32.83    1.41
  -1   4 -21  151.42    4.41
  -1   4 -21  152.90    4.36
   1   4  21  143.70    4.10
  -1   4 -22   11.67    1.00
  -1   4 -22    9.74    0.94
   1   4  22    9.02    0.83
  -1   4 -23   55.72    2.29
  -1   4 -23   58.09    2.30
  -1   4 -24   11.75    1.08
  -1   4 -24   12.78    1.13
   1  -4 -25   57.84    2.15
  -1   4 -25   61.88    2.54
  -1   4 -25   60.85    2.58
   1  -4 -26   32.03    1.52
  -1   4 -26   28.84    1.81
  -1   4 -26   30.81    1.80
  -1   4 -27   16.50    1.35
   1  -4 -27   16.82    1.13
  -1   4 -27   16.14    1.39
  -1   4 -28    2.12    0.81
  -1   4 -28    0.96    0.72
   1  -4 -28    1.94    0.63
  -1   4 -29    3.07    0.93
  -1   4 -29    2.60    0.90
   1  -4 -29    2.92    0.74
  -1   4 -30   32.49    2.00
   1  -4 -30   30.77    1.64
  -1   4 -30   30.20    2.01
  -1   4 -31    0.79    0.84
   1  -4 -31    1.49    0.69
  -1   4 -31   -0.43    0.86
  -1   4 -32    6.28    1.13
  -1   4 -32    6.89    1.21
   1  -4 -32    4.94    0.84
   1  -4 -33   17.92    1.32
  -1   4 -33   20.04    1.72
  -1   4 -34    4.22    1.11
  -1   4 -35    0.97    0.93
  -1   4 -36    1.93    0.92
  -1   4 -37    1.07    0.90
  -1   4 -38    0.92    0.86
   1  -4 -38   -0.47    0.82
   1  -4 -39    1.52    0.77
  -1   4 -39    1.11    0.81
  -1  -5 -38    1.56    0.78
   1   5 -38    1.32    0.90
   1   5 -38    1.81    0.86
   1   5 -37    1.16    0.86
   1   5 -37    1.32    0.89
  -1  -5 -37    0.98    0.77
   1   5 -36    0.34    0.86
   1   5 -36    0.43    0.93
  -1  -5 -36    1.80    0.76
   1   5 -35    7.28    1.22
   1   5 -35    9.62    1.27
  -1  -5 -35    8.01    1.08
   1   5 -34    1.37    0.81
   1   5 -34    0.54    0.88
  -1  -5 -34    0.37    0.75
   1   5 -33    2.83    0.96
   1   5 -33    3.75    0.96
   1   5 -32    7.43    1.13
   1   5 -32    6.37    1.15
   1   5 -31    5.11    1.01
   1   5 -31    3.33    0.98
   1   5 -30    3.08    0.94
   1   5 -30    5.29    1.01
   1   5 -29    5.33    1.01
   1   5 -29    8.11    1.11
   1   5 -28   67.64    2.83
   1   5 -28   57.34    2.63
   1   5 -27   42.71    2.16
   1   5 -27   40.00    2.08
  -1  -5 -26    1.62    0.56
   1   5 -26    1.17    0.68
   1   5 -26    1.05    0.73
   1   5 -25    5.06    0.88
  -1  -5 -25    6.25    0.70
   1   5 -25    5.48    0.87
   1   5 -24   80.92    2.96
  -1  -5 -24   81.86    2.56
   1   5 -24   77.18    2.89
  -1  -5 -23   27.24    1.25
   1   5 -23   29.11    1.57
   1   5 -23   27.52    1.56
   1   5 -22   32.28    1.61
  -1  -5 -22   31.80    1.33
   1   5 -22   33.02    1.62
   1  -5  22   29.42    1.42
   1   5 -21   25.96    1.38
  -1  -5 -21   23.21    1.08
   1  -5  21   23.04    1.20
  -1  -5 -20   21.30    0.98
   1  -5  20   20.24    1.10
  -1  -5 -19   63.48    1.93
   1  -5  19   62.73    2.08
  -1  -5 -18   91.86    2.53
   1  -5  18   90.69    2.69
  -1  -5 -18   98.20    3.07
  -1  -5 -17   67.36    1.93
   1  -5  17   66.34    2.09
  -1  -5 -17   67.09    2.38
  -1  -5 -16   67.18    1.91
   1  -5  16   69.14    2.08
  -1  -5 -16   71.48    2.40
  -1  -5 -15  149.72    3.64
   1  -5  15  145.34    3.78
  -1  -5 -15  154.73    4.18
  -1  -5 -14  287.71    6.65
   1  -5  14  284.13    6.79
  -1  -5 -13   42.60    1.24
   1  -5  13   43.72    1.35
  -1  -5 -13   42.54    1.64
  -1  -5 -12  265.57    6.08
   1  -5  12  260.71    6.18
  -1  -5 -11  289.05    6.50
   1   5 -11  286.81    6.76
   1  -5  11  289.40    6.62
   1   5 -10  223.32    5.28
  -1  -5 -10  221.20    5.02
   1  -5  10  222.22    5.14
   1   5 -10  223.77    5.43
   1   5  -9   51.16    1.49
   1   5  -9   53.28    1.58
   1  -5   9   50.53    1.38
   1   5  -9   51.11    1.62
   1   5  -8    7.80    0.44
   1   5  -8    8.46    0.50
   1  -5   8    8.32    0.37
   1   5  -8    8.82    0.53
   1   5  -7   98.32    2.46
   1   5  -7  101.43    2.57
   1  -5   7   99.92    2.34
  -1   5   7   96.64    2.29
   1   5  -7   96.97    2.62
   1   5  -6   45.76    1.25
   1   5  -6   45.18    1.35
   1  -5   6   44.28    1.13
  -1   5   6   42.55    1.09
   1   5  -6   42.97    1.38
   1   5  -5   68.34    1.71
   1   5  -5   68.40    1.83
   1  -5   5   66.05    1.59
  -1   5   5   65.07    1.57
   1   5  -5   66.03    1.89
   1   5  -4   26.23    0.79
  -1   5   4   24.38    0.67
   1  -5   4   25.42    0.68
   1  -5   3  432.40   10.04
  -1   5   3  430.38    9.46
   1  -5   3  429.92    9.43
   1  -5   2  128.68    3.47
   1  -5   2  127.94    2.89
   1   5  -2  135.10    3.24
  -1   5   2  126.75    2.97
   1  -5   1 1091.26   24.84
   1  -5   1 1116.57   24.19
   1   5  -1 1120.38   24.53
  -1   5   1 1109.50   24.28
   1   5   0  884.07   19.61
  -1   5   0  887.89   19.38
   1   5   1 1115.35   24.63
  -1  -5   1 1097.15   24.72
   1   5   1 1119.72   24.32
   1   5   1 1139.15   24.65
  -1  -5   2  131.54    3.32
   1   5   2  131.18    3.28
   1   5   2  132.10    2.98
   1   5   2  139.06    3.29
  -1   5  -3  430.16    9.62
  -1  -5   3  428.68    9.81
   1   5   3  438.39    9.81
   1   5   3  431.88    9.50
   1   5   3  443.24    9.78
   1   5   4   25.79    0.68
   1   5   4   24.58    0.87
  -1   5  -4   24.96    0.78
  -1   5  -5   68.56    1.83
   1   5   5   67.25    1.61
  -1   5  -5   67.07    1.74
   1   5   5   66.37    1.84
  -1   5  -6   43.83    1.34
   1   5   6   45.57    1.14
   1   5   6   42.63    1.34
  -1   5  -7  101.83    2.62
   1   5   7   99.01    2.38
  -1   5  -7  102.41    2.94
  -1   5  -8    8.38    0.50
   1   5   8    8.05    0.37
  -1   5  -8    8.39    0.64
  -1   5  -9   51.81    1.59
  -1  -5   9   52.84    1.60
  -1   5  -9   49.08    1.82
  -1   5 -10  216.94    5.32
   1   5  10  222.68    5.11
  -1  -5  10  221.97    5.37
   1   5  11  288.42    6.68
  -1  -5  11  297.19    6.94
   1   5  12  263.18    6.15
  -1  -5  12  269.43    6.41
   1   5  13   40.08    1.29
  -1  -5  13   40.45    1.45
   1   5  14  294.31    6.86
  -1  -5  14  290.50    7.07
   1   5  15  145.89    3.80
  -1  -5  15  155.19    4.02
   1   5  16   67.93    2.09
  -1  -5  16   70.41    2.24
  -1   5 -17   65.38    2.23
   1   5  17   62.66    2.01
  -1   5 -18   92.63    2.90
   1   5  18   89.78    2.66
  -1   5 -19   61.78    2.26
   1   5  19   61.16    2.05
  -1   5 -20   22.16    1.25
   1   5  20   21.17    1.12
  -1   5 -21   23.33    1.38
   1   5  21   24.16    1.23
  -1   5 -22   30.42    1.63
   1   5  22   29.26    1.42
  -1   5 -23   26.68    1.55
   1  -5 -24   84.08    2.61
  -1   5 -24   78.64    3.03
  -1   5 -25    4.41    0.86
   1  -5 -25    6.44    0.69
  -1   5 -26    0.45    0.69
   1  -5 -26    0.61    0.53
  -1   5 -27   37.32    2.11
   1  -5 -27   41.79    1.75
   1  -5 -28   61.07    2.27
  -1   5 -28   60.74    2.76
   1  -5 -29    7.11    0.83
  -1   5 -29    6.01    1.09
   1  -5 -30    3.26    0.74
  -1   5 -30    4.09    1.00
  -1   5 -31    2.21    0.97
  -1   5 -32    6.42    1.13
   1   6 -38    0.61    0.82
  -1  -6 -38    0.65    0.69
   1   6 -38    1.26    0.84
   1   6 -37    0.22    0.80
   1   6 -37   -0.53    0.93
  -1  -6 -37    1.00    0.71
   1   6 -36    1.08    0.91
  -1  -6 -36    0.68    0.74
   1   6 -36    0.45    0.83
   1   6 -35    2.04    0.96
   1   6 -35    1.64    0.95
  -1  -6 -35    1.65    0.78
   1   6 -34    3.76    1.03
   1   6 -34    2.85    0.96
   1   6 -33    0.87    0.87
   1   6 -33    0.23    0.81
   1   6 -32    7.53    1.15
   1   6 -32    5.11    1.10
   1   6 -31    0.77    0.81
   1   6 -31    0.31    0.82
   1   6 -30   22.07    1.69
   1   6 -30   20.96    1.69
   1   6 -29    9.89    1.23
   1   6 -29    8.92    1.13
   1   6 -28   14.67    1.38
   1   6 -28   12.57    1.30
   1   6 -27    1.42    0.78
   1   6 -27    0.93    0.76
   1   6 -26   17.07    1.40
   1   6 -26   15.39    1.30
   1   6 -25    0.48    0.67
   1   6 -25    1.57    0.66
   1   6 -24    7.93    0.93
  -1  -6 -23    8.77    0.69
   1   6 -23    7.72    0.91
   1   6 -22   11.27    1.01
  -1  -6 -22   10.05    0.71
  -1  -6 -21    1.53    0.39
   1   6 -21    1.39    0.54
   1  -6  21    1.38    0.49
   1   6 -20   39.37    1.72
  -1  -6 -20   36.31    1.32
   1  -6  20   36.89    1.50
   1   6 -19   68.26    2.38
  -1  -6 -19   65.93    1.94
   1  -6  19   64.09    2.13
  -1  -6 -18   40.31    1.34
   1   6 -18   44.21    1.73
   1  -6  18   40.00    1.51
  -1  -6 -18   40.25    1.78
   1   6 -17   47.86    1.80
  -1  -6 -17   48.01    1.46
   1  -6  17   47.48    1.64
  -1  -6 -17   51.10    1.97
  -1  -6 -16  110.49    2.84
   1   6 -16  110.40    3.22
   1  -6  16  116.80    3.06
  -1  -6 -16  116.13    3.43
   1   6 -15   27.25    1.20
  -1  -6 -15   27.14    0.92
   1  -6  15   28.35    1.10
  -1  -6 -15   29.18    1.35
   1   6 -14  115.77    3.13
  -1  -6 -14  110.04    2.75
   1  -6  14  114.97    2.96
   1   6 -14  109.67    3.21
  -1  -6 -14  115.39    3.32
   1   6 -13    1.85    0.38
  -1  -6 -13    2.11    0.24
   1  -6  13    1.77    0.32
   1   6 -13    1.93    0.38
  -1  -6 -13    2.14    0.42
   1   6 -12   53.69    1.70
   1  -6  12   52.40    1.54
  -1  -6 -12   54.04    1.89
   1   6 -12   53.30    1.81
   1   6 -11   88.20    2.45
   1  -6  11   86.46    2.26
   1   6 -11   90.29    2.59
  -1  -6 -11   90.56    2.64
   1   6 -10  113.86    2.95
   1  -6  10  111.46    2.75
   1   6 -10  113.30    3.10
   1   6  -9   98.73    2.53
   1   6  -9   99.95    2.62
   1  -6   9   94.09    2.33
  -1   6   9   91.44    2.27
   1   6  -9   95.63    2.68
   1   6  -8    1.46    0.25
   1   6  -8    1.09    0.29
   1   6  -8    1.19    0.29
   1   6  -8    1.16    0.30
  -1   6   8    1.17    0.16
   1  -6   8    1.18    0.19
   1   6  -7   30.19    1.08
   1   6  -7   31.15    1.01
  -1   6   7   29.26    0.82
   1   6  -7   29.83    1.14
   1  -6   7   28.51    0.83
   1   6  -7   32.02    1.19
   1   6  -6  316.75    7.14
   1   6  -6  316.09    7.37
  -1   6   6  307.81    6.93
   1  -6   6  310.83    6.93
   1   6  -6  316.51    7.38
   1   6  -5  108.63    2.92
   1  -6   5  111.04    2.52
  -1   6   5  107.02    2.54
   1   6  -4  301.02    7.04
  -1   6   4  294.65    6.66
   1  -6   4  301.57    6.60
   1   6  -3    9.31    0.51
   1   6  -3    9.56    0.57
   1  -6   3   10.02    0.69
   1  -6   3    9.91    0.31
   1   6  -3   10.43    0.60
  -1   6   3    9.32    0.41
   1   6  -2  200.47    4.67
   1  -6   2  195.56    5.06
   1   6  -2  208.56    4.82
   1  -6   2  195.06    4.33
  -1   6   2  192.40    4.49
   1   6  -1  134.37    3.48
   1   6  -1  145.67    3.43
   1  -6   1  137.82    3.81
   1   6  -1  137.05    3.52
  -1   6   1  139.61    3.27
   1   6   0    3.42    0.34
   1  -6   0    2.79    0.40
  -1   6   0    3.61    0.25
   1   6   0    3.10    0.34
   1  -6  -1  134.89    3.80
  -1  -6   1  141.39    3.58
   1   6   1  139.61    3.45
   1   6   1  133.80    3.43
  -1   6  -1  136.32    3.23
   1   6   1  138.45    3.47
   1  -6  -2  189.73    5.13
  -1  -6   2  198.53    4.84
   1   6   2  193.43    4.73
   1   6   2  198.63    4.35
   1   6   2  193.43    4.75
  -1  -6   3    9.73    0.56
   1   6   3    9.68    0.55
   1   6   3    9.49    0.30
   1   6   3    8.76    0.51
  -1   6  -4  300.14    6.88
   1   6   4  303.22    7.06
  -1   6  -4  299.45    7.44
   1   6   4  305.09    6.69
   1   6   4  302.13    7.05
  -1   6  -5  110.26    2.73
  -1   6  -5  109.44    3.20
   1   6   5  110.86    2.54
   1   6   5  108.61    2.85
  -1   6  -6  309.14    7.24
  -1   6  -6  318.58    7.69
   1   6   6  313.69    6.95
   1   6   6  294.42    7.25
  -1   6  -6  326.68    7.17
  -1   6  -7   28.51    1.05
  -1   6  -7   29.81    1.32
   1   6   7   29.04    0.84
   1   6   7   32.43    1.12
  -1   6  -8    1.20    0.30
   1   6   8    1.56    0.19
  -1   6  -8    1.00    0.35
  -1   6  -9   93.49    2.76
  -1   6  -9  100.98    2.68
  -1   6  -9   98.56    3.01
  -1  -6   9   96.70    2.61
  -1   6 -10  111.65    2.99
  -1   6 -10  107.44    3.09
   1   6  10  109.47    2.71
  -1   6 -10  116.09    3.36
  -1  -6  10  111.25    2.94
  -1   6 -11   90.38    2.66
  -1   6 -11   91.37    2.56
   1   6  11   87.61    2.29
  -1  -6  11   92.17    2.50
  -1   6 -11   84.12    2.82
  -1   6 -12   51.84    1.85
  -1   6 -12   52.48    1.75
   1   6  12   52.10    1.53
  -1  -6  12   54.45    1.72
  -1   6 -12   53.26    2.03
  -1   6 -13    1.85    0.41
   1   6  13    2.12    0.34
  -1   6 -13    2.86    0.53
  -1  -6  13    2.14    0.38
   1   6  14  112.18    2.92
  -1  -6  14  106.61    3.04
   1   6  15   25.96    1.06
  -1  -6  15   26.40    1.16
   1   6  16  111.83    3.04
  -1  -6  16  111.98    3.19
   1   6  17   47.21    1.62
   1   6  18   37.78    1.44
   1   6  19   67.58    2.18
   1   6  20   34.48    1.47
  -1   6 -21    1.04    0.58
   1   6  21    1.50    0.50
  -1   6 -22   10.34    1.01
   1  -6 -23    8.74    0.69
  -1   6 -23    8.79    0.99
   1  -6 -24    6.87    0.65
  -1   6 -24    6.38    0.91
   1  -6 -25    0.62    0.45
  -1   6 -25    1.60    0.73
  -1   6 -26   16.43    1.39
   1  -6 -26   16.62    1.01
  -1   6 -27    2.36    0.83
   1  -6 -27    1.38    0.55
  -1   6 -28   14.18    1.38
  -1   6 -29    6.75    1.13
  -1   6 -30   18.43    1.63
  -1   6 -31    1.13    0.87
   1   7 -37    2.19    0.90
   1   7 -37   -0.79    0.85
  -1  -7 -37    0.39    0.64
   1   7 -37    0.97    0.83
  -1  -7 -36    0.72    0.69
   1   7 -36    0.88    0.88
   1   7 -36    1.19    0.91
   1   7 -35   -0.11    0.84
   1   7 -35    1.42    0.97
  -1  -7 -35    0.58    0.75
   1   7 -34    0.79    0.85
   1   7 -34    1.10    0.93
   1   7 -33    0.45    0.83
   1   7 -33    0.88    0.84
   1   7 -32    6.39    1.12
   1   7 -32    5.30    1.07
   1   7 -31    1.54    0.85
   1   7 -31    0.94    0.82
   1   7 -30    1.82    0.84
   1   7 -30    1.84    0.88
   1   7 -29    0.62    0.77
   1   7 -28    1.90    0.81
   1   7 -27   22.72    1.64
   1   7 -26    5.79    0.96
   1   7 -25    0.17    0.65
   1   7 -24   24.47    1.56
   1   7 -23    5.81    0.87
   1   7 -22    9.80    0.98
   1   7 -21    1.84    0.63
   1   7 -21    1.23    0.58
   1   7 -21    1.47    0.47
   1   7 -20    7.45    0.82
   1   7 -20    7.49    0.80
   1   7 -20    6.64    0.73
   1   7 -19    4.60    0.67
   1   7 -19    5.57    0.71
   1  -7  19    4.86    0.57
   1   7 -19    6.74    0.72
   1   7 -18   10.01    0.86
   1   7 -18   12.21    0.93
   1  -7  18   11.47    0.74
   1   7 -18   11.12    0.87
   1   7 -17    8.16    0.74
   1  -7  17    7.96    0.63
  -1  -7 -17    8.67    0.81
   1   7 -17    8.10    0.72
   1   7 -16    5.51    0.61
   1  -7  16    5.05    0.50
  -1  -7 -16    4.60    0.62
   1   7 -16    4.23    0.55
   1   7 -15    8.34    0.68
   1  -7  15    7.30    0.55
  -1  -7 -15    9.53    0.79
   1   7 -15    7.60    0.68
   1   7 -14   78.79    2.42
   1  -7  14   75.71    2.16
  -1  -7 -14   80.55    2.56
   1   7 -14   78.78    2.50
   1   7 -13    3.58    0.47
   1  -7  13    2.70    0.36
  -1  -7 -13    3.12    0.49
   1   7 -13    3.19    0.47
   1   7 -12   12.81    0.75
  -1  -7 -12   12.60    0.82
   1   7 -12   12.54    0.79
   1  -7  12   12.42    0.62
   1   7 -11  121.90    3.25
  -1  -7 -11  128.15    3.43
   1   7 -11  117.27    3.37
  -1   7  11  118.76    2.91
   1  -7  11  126.11    3.02
   1   7 -11  121.10    3.49
   1   7 -10   68.33    1.98
  -1   7  10   64.80    1.67
   1   7 -10   66.82    2.11
   1  -7  10   64.67    1.73
   1   7 -10   65.39    2.17
   1   7  -9   17.64    0.81
   1   7  -9   19.25    0.95
  -1   7   9   19.85    0.64
   1  -7   9   19.49    0.67
   1   7  -9   20.49    1.01
   1   7  -8   35.68    1.19
  -1   7   8   34.23    0.96
   1   7  -8   33.89    1.33
   1  -7   8   32.78    0.96
   1   7  -8   35.71    1.37
   1   7  -7  239.44    5.81
   1  -7   7  234.03    5.29
  -1   7   7  233.95    5.31
   1   7  -6  134.06    3.59
   1  -7   6  133.75    3.11
  -1   7   6  138.54    3.16
   1   7  -5   29.55    1.17
   1  -7   5   30.19    0.79
  -1   7   5   29.49    0.86
   1   7  -4   75.55    2.25
   1   7  -4   79.90    2.16
  -1   7   4   75.73    1.90
   1  -7   4   77.37    1.79
   1   7  -4   81.04    2.33
   1   7  -3   54.62    1.61
   1  -7   3   51.59    1.90
   1   7  -3   51.13    1.65
   1   7  -3   54.89    1.75
   1  -7   3   53.76    1.24
  -1   7   3   52.08    1.45
   1   7  -2    9.28    0.53
   1  -7   2    8.74    0.69
   1   7  -2    9.24    0.57
   1   7  -2   11.17    0.65
  -1   7   2    9.50    0.43
   1   7  -1   33.59    1.13
   1   7  -1   35.57    0.90
   1   7  -1   34.60    1.22
   1  -7   1   34.31    1.47
   1   7  -1   31.43    1.24
  -1   7   1   35.01    1.03
   1   7   0    7.27    0.50
  -1  -7   0    6.94    0.56
   1  -7   0    6.72    0.62
   1   7   0    7.96    0.46
   1   7   0    7.64    0.27
  -1   7   0    6.64    0.37
   1   7   0    6.95    0.53
  -1  -7   1   34.88    1.33
   1  -7  -1   34.61    1.49
   1   7   1   36.17    1.14
   1   7   1   34.61    1.21
   1   7   1   35.00    1.22
  -1   7  -1   34.06    1.04
   1   7   1   35.40    1.27
   1  -7  -2    8.58    0.71
  -1  -7   2    8.58    0.59
   1   7   2    9.46    0.57
   1   7   2    9.52    0.57
   1   7   2   10.22    0.61
   1  -7  -3   53.25    2.01
   1   7   3   51.57    1.64
  -1  -7   3   55.23    1.74
   1   7   3   53.73    1.24
   1   7   3   51.74    1.66
   1   7   3   53.55    1.65
  -1   7  -4   76.66    2.02
  -1   7  -4   73.81    2.50
  -1  -7   4   78.98    2.25
   1   7   4   75.56    2.17
   1   7   4   76.64    1.77
   1   7   4   77.91    2.20
   1   7   4   73.08    2.16
  -1   7  -5   30.67    1.01
  -1   7  -5   30.91    1.41
   1   7   5   29.86    1.12
   1   7   5   30.19    0.80
   1   7   5   30.14    1.13
   1   7   5   31.19    1.14
  -1   7  -6  138.24    3.93
   1   7   6  138.30    3.55
   1   7   6  137.30    3.15
   1   7   6  137.60    3.53
   1   7   6  136.11    3.54
  -1   7  -7  240.75    5.75
  -1   7  -7  244.17    6.23
   1   7   7  240.24    5.40
   1   7   7  235.71    5.77
   1   7   7  240.81    5.81
  -1   7  -8   36.87    1.27
  -1   7  -8   35.29    1.55
   1   7   8   34.75    0.99
   1   7   8   36.06    1.31
  -1   7  -8   33.11    1.18
  -1   7  -9   20.53    1.14
  -1  -7   9   21.07    0.86
  -1   7  -9   20.30    0.92
  -1   7  -9   19.44    0.86
  -1   7 -10   64.67    2.05
   1   7  10   68.71    1.78
  -1   7 -10   65.86    2.37
  -1  -7  10   67.57    1.96
  -1   7 -11  124.90    3.42
   1   7  11  130.49    3.11
  -1   7 -11  123.26    3.76
  -1  -7  11  121.39    3.27
  -1   7 -12   12.71    0.87
  -1   7 -12   12.42    0.77
   1   7  12   12.36    0.62
  -1   7 -12   13.74    0.98
  -1  -7  12   11.83    0.68
  -1   7 -13    3.21    0.53
  -1   7 -13    3.02    0.48
   1   7  13    3.57    0.38
  -1   7 -13    3.53    0.60
  -1  -7  13    3.45    0.40
  -1   7 -14   78.05    2.63
  -1   7 -14   79.72    2.54
   1   7  14   80.29    2.23
  -1  -7  14   81.84    2.40
  -1   7 -14   86.03    2.88
  -1   7 -15    9.00    0.75
  -1   7 -15    9.31    0.82
   1   7  15    8.72    0.59
  -1  -7  15    8.17    0.63
  -1   7 -15    8.84    0.84
  -1   7 -16    4.49    0.63
   1   7  16    4.47    0.49
  -1   7 -16    3.90    0.64
  -1   7 -17    9.24    0.88
  -1   7 -17    7.76    0.75
   1   7  17    7.52    0.62
  -1   7 -17    8.66    0.88
  -1   7 -18   13.25    0.98
  -1   7 -18    9.65    0.95
   1   7  18   10.79    0.76
  -1   7 -18   12.03    1.02
  -1   7 -19    4.60    0.73
   1   7  19    4.23    0.55
  -1   7 -20    6.86    0.88
  -1   7 -21    1.21    0.66
   1  -7 -22   12.74    0.74
  -1   7 -22   11.08    1.09
  -1   7 -23    4.94    0.86
  -1   7 -24   22.97    1.65
  -1   7 -25   -0.80    0.71
  -1   7 -26    5.36    1.03
  -1   7 -26    6.57    1.05
  -1   7 -27   21.51    1.63
  -1   7 -27   20.06    1.67
  -1   7 -28    3.40    0.98
  -1   7 -28    2.72    0.96
  -1   7 -29    0.66    0.83
  -1   7 -29    2.00    0.90
  -1   7 -30    2.02    0.90
  -1   7 -30    1.81    0.92
  -1   7 -31   -0.74    0.98
  -1   7 -32    5.29    1.15
  -1   7 -33    2.03    1.00
  -1   7 -34    0.38    0.91
  -1   7 -35    0.75    0.88
   1   8 -37    1.27    0.77
   1   8 -36    0.11    0.78
  -1  -8 -36    0.22    0.65
   1   8 -36   -0.56    0.79
   1   8 -36    0.64    0.88
   1   8 -35    2.55    0.98
   1   8 -35    1.31    1.04
   1   8 -35    1.63    0.92
  -1  -8 -35    1.22    0.65
   1   8 -34    3.94    1.01
   1   8 -34    3.47    1.05
   1   8 -33    4.63    1.13
   1   8 -33    2.56    1.01
   1   8 -32    3.59    1.03
   1   8 -31   14.48    1.49
   1   8 -30    1.09    0.83
   1   8 -29    0.63    0.82
   1   8 -28    7.67    1.08
   1   8 -27    0.98    0.78
   1   8 -26   20.62    1.53
   1   8 -26   18.19    1.50
   1   8 -25    8.18    1.04
   1   8 -25   10.48    1.14
   1   8 -24    0.73    0.68
   1   8 -24    0.26    0.66
   1   8 -23    2.75    0.72
   1   8 -23    1.76    0.70
   1   8 -22   15.07    1.22
   1   8 -22   14.60    1.16
   1   8 -21    4.45    0.73
   1   8 -21    3.38    0.69
   1   8 -20   11.68    0.98
   1   8 -20   12.26    1.02
   1   8 -20   12.87    0.98
   1   8 -19    1.77    0.59
   1   8 -19    1.33    0.53
   1   8 -19    1.04    0.45
   1   8 -18    0.66    0.50
   1   8 -18    0.48    0.48
   1   8 -18   -0.06    0.41
   1   8 -17  126.97    3.66
   1   8 -17  123.07    3.69
   1   8 -17  125.53    3.71
   1   8 -16   13.85    0.92
   1   8 -16   12.10    0.91
   1  -8  16   13.86    0.76
   1   8 -16   13.36    0.93
   1   8 -15   17.66    1.01
   1   8 -15   19.90    1.08
   1   8 -15   18.13    1.06
  -1  -8 -15   19.08    1.10
  -1   8  15   18.72    0.71
   1  -8  15   18.40    0.84
   1   8 -14   73.87    2.32
   1   8 -14   74.37    2.37
   1   8 -14   73.63    2.43
  -1   8  14   70.02    1.91
  -1  -8 -14   82.20    2.52
   1  -8  14   72.82    2.05
   1   8 -14   72.29    2.57
   1   8 -13   19.97    0.98
   1   8 -13   20.11    1.02
   1   8 -13   17.95    1.02
  -1  -8 -13   19.60    1.05
  -1   8  13   18.99    0.69
   1  -8  13   19.68    0.80
   1   8 -13   19.55    1.16
   1   8 -12    7.16    0.61
  -1  -8 -12    9.57    0.71
  -1   8  12    6.96    0.38
   1   8 -12    6.75    0.62
   1  -8  12    6.47    0.43
   1   8 -12    7.04    0.72
   1   8 -11  189.80    4.73
  -1  -8 -11  197.30    4.85
   1   8 -11  188.78    4.89
  -1   8  11  176.44    4.29
   1  -8  11  188.70    4.38
   1   8 -11  187.41    4.99
   1   8 -10   67.21    2.07
   1   8 -10   68.86    2.23
  -1   8  10   64.36    1.72
  -1  -8 -10   72.21    2.18
   1  -8  10   69.20    1.78
   1   8 -10   67.46    2.28
   1   8  -9   39.99    1.54
  -1   8   9   39.03    1.10
   1  -8   9   39.70    1.12
   1   8  -9   39.13    1.57
   1   8  -8    8.08    0.67
   1  -8   8    7.83    0.38
  -1   8   8    7.54    0.38
   1   8  -7   33.78    1.38
   1  -8   7   35.16    0.96
  -1   8   7   33.71    0.99
   1   8  -6  170.38    4.43
   1   8  -6  176.73    4.60
   1   8  -6  177.73    4.21
   1  -8   6  183.63    4.02
  -1   8   6  171.23    4.10
   1   8  -5  317.02    7.35
   1   8  -5  305.46    7.75
   1   8  -5  317.38    7.62
   1  -8   5  341.02    7.17
   1   8  -5  337.08    7.90
  -1   8   5  307.05    7.29
   1   8  -4  126.20    3.11
   1   8  -4  125.73    3.37
   1  -8   4  133.63    2.93
   1   8  -4  125.41    3.57
   1   8  -3   28.93    0.86
   1   8  -3   28.18    1.08
   1   8  -3   28.30    1.24
   1  -8   3   27.94    1.35
   1   8  -3   30.23    1.17
   1   8  -2  205.55    4.94
   1   8  -2  208.32    4.63
   1  -8   2  203.57    5.42
   1   8  -2  199.15    5.03
   1   8  -2  190.66    5.11
   1  -8   1  235.00    6.08
   1   8  -1  229.98    5.65
  -1  -8  -1  231.97    5.92
   1   8  -1  233.89    5.19
   1   8  -1  234.06    5.53
   1   8  -1  221.49    5.73
  -1  -8   0  121.25    3.49
   1  -8   0  130.93    3.74
   1   8   0  125.92    3.30
   1   8   0  124.94    3.17
   1   8   0  119.74    3.29
   1   8   0  126.57    3.39
  -1  -8   1  237.69    5.98
   1   8   1  237.79    5.79
   1  -8  -1  235.24    6.24
   1   8   1  239.89    5.63
   1   8   1  236.09    5.80
   1   8   1  245.19    5.90
  -1  -8   2  200.53    5.14
   1  -8  -2  199.07    5.44
   1   8   2  198.66    4.96
   1   8   2  201.94    4.80
   1   8   2  207.65    5.07
   1   8   2  197.76    4.98
   1   8   3   27.63    0.97
   1  -8  -3   27.34    1.40
   1   8   3   27.70    1.10
  -1  -8   3   28.37    1.20
   1   8   3   27.79    1.11
   1   8   3   26.09    1.13
  -1  -8   4  130.55    3.43
   1   8   4  121.78    3.30
   1  -8  -4  118.63    3.76
   1   8   4  125.57    3.10
   1   8   4  125.19    2.79
   1   8   4  123.17    3.35
   1   8   4  121.99    3.30
   1   8   5  306.46    7.50
   1   8   5  322.75    7.02
   1   8   5  318.18    7.57
   1   8   5  307.65    7.51
  -1   8  -6  173.68    4.34
   1   8   6  174.10    4.49
  -1   8  -6  172.95    4.94
   1   8   6  183.44    4.04
   1   8   6  175.59    4.50
   1   8   6  178.21    4.56
  -1   8  -7   32.60    1.16
   1   8   7   32.90    1.26
  -1   8  -7   33.82    1.57
   1   8   7   33.20    0.92
   1   8   7   33.31    1.27
   1   8   7   32.22    1.28
  -1   8  -8    7.62    0.52
  -1   8  -8    8.46    0.78
  -1  -8   8    7.51    0.47
   1   8   8    7.59    0.58
   1   8   8    7.89    0.38
   1   8   8    7.88    0.63
  -1   8  -9   40.36    1.76
  -1  -8   9   38.89    1.27
  -1   8  -9   41.08    1.45
  -1   8  -9   38.29    1.36
  -1   8 -10   65.84    2.14
  -1  -8  10   68.28    1.96
  -1   8 -10   68.22    2.49
   1   8  10   71.16    1.81
  -1   8 -10   66.71    2.07
  -1   8 -11  180.93    4.78
  -1   8 -11  181.09    5.18
  -1  -8  11  188.87    4.57
   1   8  11  185.53    4.39
  -1   8 -11  189.41    4.73
  -1   8 -12    6.76    0.66
   1   8  12    7.20    0.46
  -1   8 -12    7.18    0.77
  -1  -8  12    6.93    0.51
  -1   8 -13   20.54    1.09
   1   8  13   19.69    0.81
  -1  -8  13   20.70    0.92
  -1   8 -13   19.32    1.24
  -1   8 -14   72.50    2.43
   1   8  14   70.97    2.05
  -1  -8  14   75.96    2.21
  -1   8 -14   75.02    2.72
  -1   8 -15   20.92    1.15
  -1   8 -15   19.95    1.22
   1   8  15   18.26    0.85
  -1  -8  15   17.80    0.91
  -1   8 -15   19.98    1.29
  -1   8 -16   15.98    1.06
  -1   8 -16   12.89    1.03
   1   8  16   13.92    0.77
  -1   8 -16   14.38    1.12
  -1   8 -17  119.59    3.94
  -1   8 -17  124.94    3.88
  -1   8 -17  121.29    3.71
  -1   8 -18   -0.07    0.53
  -1   8 -18    0.65    0.47
  -1   8 -19    0.63    0.59
  -1   8 -19    1.03    0.61
  -1   8 -20   10.46    1.00
  -1   8 -20   10.23    1.04
  -1   8 -21    2.78    0.78
  -1   8 -21    2.33    0.69
  -1   8 -22   15.94    1.33
  -1   8 -22   11.42    1.14
  -1   8 -23    3.08    0.82
  -1   8 -24   -0.20    0.78
  -1   8 -25    8.74    1.20
  -1   8 -26   18.82    1.57
  -1   8 -27    2.51    0.90
  -1   8 -28    6.96    1.16
  -1   8 -29    1.58    0.90
  -1   8 -30    0.62    0.86
  -1   8 -31   15.89    1.61
  -1   8 -36    0.10    0.72
   1   9 -36   -0.10    0.76
   1   9 -35    2.85    0.96
   1   9 -34    2.61    0.91
   1   9 -33   11.12    1.34
   1   9 -33   11.30    1.38
   1   9 -32    5.93    1.18
   1   9 -32    7.05    1.14
   1   9 -32    5.08    1.17
   1   9 -31   11.80    1.45
   1   9 -31   13.91    1.48
   1   9 -30    1.87    0.89
   1   9 -30    2.77    0.91
   1   9 -30    3.21    0.99
   1   9 -29    2.90    0.94
   1   9 -29    3.65    0.98
   1   9 -29    2.26    0.93
   1   9 -28    1.15    0.86
   1   9 -28    0.70    0.84
   1   9 -28    1.08    0.80
   1   9 -27   32.60    1.94
   1   9 -27   35.32    2.04
   1   9 -26    5.63    0.98
   1   9 -26    5.74    1.09
   1   9 -26    7.35    1.07
   1   9 -25    1.58    0.73
   1   9 -25    1.59    0.76
   1   9 -24   10.66    1.14
   1   9 -24   12.59    1.16
   1   9 -23    3.37    0.78
   1   9 -23    3.27    0.78
   1   9 -22   35.68    1.81
   1   9 -22   32.46    1.78
   1   9 -22   32.34    1.94
   1   9 -21   49.32    2.17
   1   9 -21   49.42    2.14
   1   9 -21   44.78    2.27
   1   9 -20    6.00    0.91
   1   9 -20    6.99    0.85
   1   9 -20    6.38    0.81
   1   9 -19   15.59    1.14
   1   9 -19   19.16    1.22
   1   9 -19   17.80    1.34
   1   9 -18    7.56    0.75
   1   9 -18    6.04    0.78
   1   9 -18    7.80    0.93
   1   9 -18    7.47    0.77
   1   9 -17   94.66    3.09
   1   9 -17  103.68    3.12
   1   9 -17   97.65    3.14
   1   9 -17   94.05    3.34
   1   9 -16   50.61    2.01
   1   9 -16   54.09    2.00
   1   9 -16   53.30    2.05
   1   9 -16   55.21    2.26
  -1  -9 -15  202.73    5.36
   1   9 -15  196.50    5.33
   1   9 -15  201.33    5.22
   1   9 -15  202.53    5.35
   1   9 -15  198.15    5.58
  -1   9  14   10.59    0.49
   1   9 -14   11.22    0.85
  -1  -9 -14   12.20    0.85
   1   9 -14   11.03    0.80
   1   9 -14    9.95    0.81
   1   9 -14   10.81    0.94
  -1  -9 -13    4.17    0.58
   1   9 -13    4.14    0.58
  -1   9  13    3.91    0.31
   1   9 -13    4.36    0.56
   1   9 -13    4.10    0.53
   1   9 -13    4.23    0.66
  -1  -9 -12   98.15    2.84
   1   9 -12   97.34    2.94
  -1   9  12   89.00    2.30
   1   9 -12   93.84    2.68
   1   9 -12   94.07    3.02
   1   9 -11  233.72    5.69
   1   9 -11  229.41    6.06
  -1  -9 -11  246.92    5.89
  -1   9  11  227.37    5.32
   1   9 -10  161.75    4.46
   1   9 -10  162.27    4.09
  -1   9  10  157.61    3.78
  -1  -9 -10  171.59    4.29
   1   9  -9  258.94    6.01
   1   9  -9  247.12    6.40
  -1  -9  -9  263.07    6.21
  -1   9   9  245.18    5.74
   1   9  -8  116.27    2.96
   1   9  -8  113.35    3.33
  -1   9   8  112.63    2.76
   1   9  -7    8.50    0.65
   1   9  -7    7.49    0.70
   1   9  -7    7.82    0.50
   1   9  -7    7.32    0.73
  -1   9   7    7.46    0.40
   1   9  -6   13.91    0.63
   1   9  -6   12.78    0.76
   1   9  -6   12.88    0.85
   1   9  -6   13.31    0.92
  -1   9   6   13.59    0.55
   1   9  -5   48.63    1.65
   1   9  -5   50.06    1.42
   1   9  -5   52.29    1.90
   1   9  -4  249.32    5.75
   1   9  -4  258.37    6.08
   1   9  -4  245.82    6.35
   1   9  -3  133.88    3.16
   1   9  -3  132.84    3.47
   1  -9   3  133.79    3.93
   1   9  -3  135.47    3.61
   1   9  -3  139.30    3.78
  -1   9   3  128.09    3.29
   1   9  -2   36.92    1.33
   1   9  -2   37.76    1.05
   1  -9   2   39.85    1.73
   1   9  -2   39.53    1.44
  -1  -9  -2   38.58    1.67
   1   9  -2   38.78    1.56
  -1   9   2   37.27    1.21
   1  -9   1 1221.54   27.67
   1   9  -1 1235.41   27.18
  -1  -9  -1 1231.15   27.51
   1   9  -1 1234.36   27.01
  -1   9   1 1205.84   26.86
   1   9  -1 1208.86   27.32
   1  -9   0   87.34    2.98
  -1  -9   0   84.71    2.78
   1   9   0   91.64    2.61
   1   9   0   93.81    2.48
  -1   9   0   88.94    2.35
   1   9   0   92.73    2.75
   1   9   0   83.72    2.58
  -1  -9   1 1241.81   27.61
   1  -9  -1 1228.04   27.92
   1   9   1 1214.98   27.35
   1   9   1 1253.88   27.16
   1   9   1 1257.21   27.50
  -1   9  -1 1207.46   27.07
   1   9   1 1223.36   27.37
  -1  -9   2   39.79    1.57
   1   9   2   41.16    1.47
   1  -9  -2   36.99    1.75
   1   9   2   41.52    1.33
  -1   9  -2   36.19    1.24
   1   9   2   38.85    1.53
   1   9   2   39.54    1.48
  -1  -9   3  141.63    3.71
   1  -9  -3  136.02    4.05
   1   9   3  130.70    3.51
   1   9   3  128.96    3.29
   1   9   3  126.09    3.57
   1   9   3  129.01    3.52
  -1  -9   4  257.16    6.17
   1   9   4  244.67    6.00
   1  -9  -4  252.03    6.64
   1   9   4  247.10    5.75
   1   9   4  238.18    6.00
   1   9   4  234.77    6.07
   1   9   5   48.87    1.67
   1  -9  -5   50.25    2.13
   1   9   5   49.19    1.46
   1   9   5   49.22    1.69
   1   9   5   49.03    1.73
   1   9   6   13.70    0.77
   1   9   6   14.16    0.63
   1   9   6   13.18    0.82
   1   9   6   12.59    0.78
  -1   9  -7    7.68    0.79
   1   9   7    7.05    0.45
   1   9   7    7.85    0.60
  -1   9  -7    6.91    0.53
   1   9   7    7.21    0.60
   1   9   7    7.99    0.67
  -1  -9   8  117.78    2.91
   1   9   8  112.84    2.85
  -1   9  -8  115.92    3.65
   1   9   8  114.56    3.17
  -1   9  -8  115.82    3.08
   1   9   8  112.50    3.28
   1   9   9  252.39    6.20
  -1  -9   9  259.31    5.91
   1   9   9  242.92    5.80
  -1   9  -9  253.42    6.74
  -1   9  -9  255.17    6.12
   1   9   9  255.26    6.32
   1   9  10  165.24    4.30
  -1   9 -10  164.60    4.79
  -1  -9  10  165.57    4.03
  -1   9 -10  161.35    4.22
   1   9  11  235.17    5.91
  -1   9 -11  240.80    6.47
  -1  -9  11  238.74    5.66
  -1   9 -11  229.24    5.95
  -1   9 -11  244.99    5.91
  -1  -9  12   96.72    2.59
  -1   9 -12   98.08    3.28
  -1   9 -12   91.20    2.86
  -1   9 -12   95.11    2.80
  -1  -9  13    3.84    0.42
  -1   9 -13    3.92    0.65
  -1   9 -13    4.01    0.57
  -1   9 -13    4.11    0.55
  -1   9 -14   10.60    0.98
  -1   9 -14   12.25    0.90
  -1   9 -14   10.71    0.81
  -1   9 -15  194.79    5.60
  -1   9 -15  190.63    5.24
  -1   9 -15  195.45    5.16
  -1   9 -16   56.72    2.38
  -1   9 -16   53.58    2.13
  -1   9 -16   52.65    2.04
  -1   9 -17  101.56    3.30
  -1   9 -18    7.46    0.86
  -1   9 -19   17.57    1.24
  -1   9 -20    6.02    0.86
  -1   9 -21   47.60    2.21
  -1   9 -22   36.50    1.95
  -1   9 -23    1.90    0.73
  -1   9 -24   12.42    1.23
  -1   9 -25    2.08    0.80
  -1   9 -26    5.97    1.06
  -1   9 -32    6.64    1.05
  -1   9 -33    9.49    1.20
  -1   9 -34    1.25    0.73
  -1   9 -35    1.84    0.79
   1  10 -35    0.10    0.74
   1  10 -34    2.58    0.93
   1  10 -34    2.96    1.01
   1  10 -33    4.89    1.07
   1  10 -33    6.25    1.15
   1  10 -32   21.19    1.75
   1  10 -32   19.21    1.70
   1  10 -31    8.67    1.24
   1  10 -31    7.49    1.23
   1  10 -30    5.89    1.11
   1  10 -30    2.46    1.01
   1  10 -29    9.67    1.32
   1  10 -29    9.77    1.27
   1  10 -28   -0.11    0.83
   1  10 -28    1.47    0.79
   1  10 -27    2.69    0.88
   1  10 -27    1.95    0.87
   1  10 -27    1.66    0.81
   1  10 -26   10.36    1.26
   1  10 -26    7.70    1.11
   1  10 -26    8.23    1.14
   1  10 -25   13.80    1.27
   1  10 -25   15.63    1.39
   1  10 -25   12.28    1.30
   1  10 -24    7.47    1.06
   1  10 -24    6.18    0.98
   1  10 -23    9.27    1.07
   1  10 -23    8.75    1.04
   1  10 -23    7.71    1.07
   1  10 -22    4.06    0.86
   1  10 -22    4.35    0.81
   1  10 -22    3.79    0.83
   1  10 -21    5.95    0.94
   1  10 -21    3.76    0.78
   1  10 -21    4.72    0.83
   1  10 -20   20.92    1.39
   1  10 -20   18.99    1.31
   1  10 -20   19.89    1.48
   1  10 -19    7.84    0.88
   1  10 -19    8.05    1.01
   1  10 -19    9.00    0.92
   1  10 -18    1.36    0.57
   1  10 -18    2.05    0.68
   1  10 -18    1.47    0.55
   1  10 -17   26.87    1.37
   1  10 -17   25.01    1.53
   1  10 -16    2.01    0.51
   1  10 -16    1.87    0.62
   1  10 -16    1.12    0.51
   1  10 -15   84.48    2.93
   1  10 -15   93.48    2.88
   1  10 -15   90.74    3.17
   1  10 -14   45.45    2.02
   1  10 -14   48.27    1.79
  -1 -10 -14   48.09    1.85
   1  10 -13   24.42    1.41
   1  10 -13   26.13    1.21
  -1 -10 -13   27.18    1.26
   1  10 -12   10.16    0.89
   1  10 -12    9.56    0.71
  -1 -10 -12    9.23    0.72
   1  10 -11   45.35    1.89
   1  10 -11   46.16    1.60
  -1  10  11   44.27    1.27
  -1 -10 -11   48.39    1.71
   1  10 -10   42.64    1.77
   1  10 -10   41.69    1.45
  -1 -10 -10   43.27    1.55
  -1  10  10   39.34    1.17
   1  10  -9   34.17    1.56
   1  10  -9   37.01    1.29
   1  10  -9   36.26    1.70
  -1  10   9   34.42    1.05
  -1 -10  -9   36.78    1.39
   1  10  -8  114.57    3.46
   1  10  -8  121.07    3.07
  -1  10   8  112.73    2.85
  -1 -10  -8  118.46    3.19
   1  10  -7   11.07    0.62
   1  10  -7   13.18    0.90
   1  10  -7   12.88    1.00
  -1 -10  -7   13.08    0.73
   1  10  -6  336.40    7.74
   1  10  -6  340.26    8.44
   1  10  -5    0.72    0.37
   1  10  -5    1.09    0.29
   1  10  -5    0.74    0.45
   1  10  -4   76.59    1.96
   1  10  -4   71.65    2.25
   1  10  -4   75.22    2.54
   1  10  -3   82.18    2.07
   1  10  -3   82.46    2.40
   1 -10   3   85.23    2.88
  -1 -10  -3   83.49    2.84
   1  10  -3   83.59    2.70
  -1  10   3   79.26    2.23
   1  10  -2    5.83    0.59
  -1 -10  -2    6.73    0.72
   1 -10   2    4.87    0.65
   1  10  -2    6.01    0.51
   1  10  -2    5.63    0.67
  -1  10   2    6.34    0.46
   1  10  -1   48.10    1.72
   1 -10   1   46.07    2.01
  -1 -10  -1   51.11    1.97
   1  10  -1   48.90    1.59
   1  10  -1   47.41    1.73
   1  10  -1   50.37    1.88
  -1  10   1   49.68    1.50
   1  10   0   50.40    1.75
   1 -10   0   46.91    2.04
  -1 -10   0   51.87    1.95
   1  10   0   51.22    1.61
   1  10   0   47.59    1.85
  -1  10   0   49.36    1.51
   1  10   0   47.37    1.73
   1 -10  -1   52.76    2.15
   1  10   1   51.49    1.76
  -1 -10   1   53.34    1.96
   1  10   1   50.33    1.59
   1  10   1   47.46    1.86
   1  10   1   51.22    1.77
  -1  10  -1   47.16    1.51
   1 -10  -2    6.32    0.75
   1  10   2    6.09    0.57
  -1 -10   2    5.47    0.59
   1  10   2    6.07    0.48
   1  10   2    5.55    0.63
   1  10   2    6.37    0.61
  -1  10  -2    6.44    0.47
   1 -10  -3   81.99    2.95
  -1 -10   3   83.75    2.65
   1  10   3   81.65    2.47
   1  10   3   84.20    2.27
   1  10   3   82.33    2.51
  -1  10  -3   81.12    2.27
   1  10   3   79.29    2.58
   1  10   4   71.54    2.24
   1 -10  -4   73.41    2.76
   1  10   4   73.20    2.02
   1  10   4   73.29    2.29
   1  10   4   67.83    2.33
   1  10   5    1.03    0.38
   1 -10  -5    0.87    0.50
   1  10   5    0.81    0.29
   1  10   5    1.21    0.40
   1  10   5    0.58    0.38
   1  10   6  336.70    7.90
   1 -10  -6  340.37    8.67
   1  10   6  319.95    7.55
   1  10   6  336.01    8.05
   1  10   6  326.80    7.92
   1  10   7   12.47    0.79
  -1 -10   7   11.20    0.53
   1  10   7   11.48    0.58
   1  10   7   11.86    0.86
   1  10   7   11.85    0.82
  -1 -10   8  116.55    2.81
   1  10   8  110.55    3.16
   1  10   8  109.47    2.81
   1  10   8  114.80    3.35
  -1 -10   9   34.93    1.10
   1  10   9   33.22    1.38
   1  10   9   35.10    1.09
  -1  10  -9   35.27    1.35
   1  10   9   36.47    1.55
  -1  10 -10   41.86    1.95
  -1 -10  10   42.29    1.27
   1  10  10   40.78    1.54
   1  10  10   38.54    1.18
  -1  10 -10   43.21    1.53
  -1 -10  11   47.40    1.42
  -1  10 -11   46.58    2.10
   1  10  11   48.14    1.70
   1  10  11   43.83    1.28
  -1  10 -11   48.43    1.70
   1  10  12   10.67    0.75
  -1  10 -12    9.61    0.94
   1  10  12    8.80    0.42
  -1  10 -12    9.13    0.71
   1  10  13   24.80    1.18
  -1  10 -13   26.09    1.53
  -1  10 -13   25.22    1.22
   1  10  14   48.68    1.76
  -1  10 -14   47.16    2.16
  -1  10 -14   44.95    1.78
   1  10  15   89.47    2.76
  -1  10 -15   93.47    3.01
  -1  10 -15   88.83    2.87
   1  10  16    1.45    0.46
  -1  10 -16    2.43    0.61
  -1  10 -16    1.02    0.46
  -1  10 -17   24.47    1.43
  -1  10 -17   26.48    1.39
  -1  10 -18    1.01    0.58
  -1  10 -18    0.57    0.52
  -1  10 -19   10.26    1.03
  -1  10 -19    9.34    0.93
  -1  10 -20   20.46    1.41
  -1  10 -20   18.36    1.27
  -1  10 -21    4.98    0.89
  -1  10 -21    7.35    0.87
  -1  10 -22    3.02    0.78
  -1  10 -22    3.81    0.76
  -1  10 -23    6.68    0.92
  -1  10 -24    4.49    0.86
  -1  10 -25   14.30    1.27
  -1  10 -26    8.13    1.04
  -1  10 -27    1.94    0.77
  -1  10 -28    1.22    0.72
  -1  10 -29    7.12    1.08
  -1  10 -30    4.38    0.96
  -1  10 -31    6.81    1.04
  -1  10 -32   21.80    1.63
  -1  10 -33    6.27    1.01
  -1  10 -34    2.80    0.78
   1  11 -34    0.30    0.73
   1  11 -33    0.10    0.75
   1  11 -32    1.05    0.88
   1  11 -32    1.18    0.82
   1  11 -31    2.87    1.01
   1  11 -31    1.75    0.85
   1  11 -30    1.70    0.88
   1  11 -30    2.33    0.87
   1  11 -29    1.99    0.89
   1  11 -29    2.57    0.97
   1  11 -28    0.51    0.82
   1  11 -28    0.56    0.80
   1  11 -27    1.59    0.86
   1  11 -27    2.10    0.92
   1  11 -26    1.64    0.82
   1  11 -26    1.09    0.80
   1  11 -25   33.32    1.93
   1  11 -25   27.58    1.93
   1  11 -24    2.40    0.89
   1  11 -24    2.11    0.78
   1  11 -23   20.27    1.47
   1  11 -23   14.52    1.38
   1  11 -22   33.28    1.77
   1  11 -22   29.72    1.88
   1  11 -21    0.15    0.58
   1  11 -21    0.66    0.65
   1  11 -20   12.13    1.06
   1  11 -20   13.00    1.26
   1  11 -19    2.35    0.66
   1  11 -19    1.94    0.70
   1  11 -18    0.95    0.53
   1  11 -18    1.53    0.66
   1  11 -17   35.68    1.87
   1  11 -17   35.85    1.65
   1  11 -16    6.45    0.73
   1  11 -16    5.94    0.83
   1  11 -15    1.97    0.54
   1  11 -15    1.27    0.57
   1  11 -14    1.87    0.57
   1  11 -14    0.77    0.44
  -1 -11 -14    1.28    0.45
   1  11 -13   28.84    1.28
   1  11 -13   23.94    1.43
  -1 -11 -13   27.21    1.27
   1  11 -12    2.71    0.59
   1  11 -12    3.64    0.51
  -1 -11 -12    3.45    0.51
   1  11 -11   23.02    1.30
   1  11 -11   23.18    1.07
   1  11 -11   21.60    1.40
  -1 -11 -11   21.30    1.07
   1  11 -10   21.79    1.01
   1  11 -10   23.32    1.31
  -1 -11 -10   22.63    1.06
   1  11 -10   22.42    1.39
  -1 -11  -9    5.71    0.54
   1  11  -9    4.82    0.49
   1  11  -9    4.88    0.63
   1  11  -9    5.89    0.81
  -1 -11  -8    1.52    0.35
   1  11  -8    1.34    0.33
   1  11  -8    1.27    0.55
   1  11  -7   11.09    0.62
  -1 -11  -7   10.87    0.66
   1  11  -7   11.95    1.01
  -1 -11  -6    0.09    0.27
   1  11  -6   -0.02    0.26
   1  11  -6   -0.26    0.51
   1  11  -5   42.55    1.29
  -1 -11  -5   42.79    1.39
   1  11  -5   39.19    1.81
  -1 -11  -4   92.59    3.18
   1  11  -4   89.77    3.01
  -1 -11  -3   26.90    1.49
   1 -11   3   26.88    1.47
   1  11  -3   26.25    1.14
   1  11  -3   27.73    1.41
  -1  11   3   25.09    1.00
   1 -11   2   15.08    1.09
  -1 -11  -2   14.83    1.08
   1  11  -2   13.22    0.80
   1  11  -2   15.61    1.06
  -1  11   2   14.85    0.73
   1  11  -2   15.03    0.92
  -1 -11  -1   67.96    2.48
   1 -11   1   66.96    2.59
   1  11  -1   69.46    2.24
   1  11  -1   70.50    2.10
   1  11  -1   69.26    2.44
  -1  11   1   68.14    1.97
   1  11  -1   64.15    2.24
   1  11   0   58.74    2.00
   1 -11   0   58.68    2.38
  -1 -11   0   60.08    2.24
   1  11   0   58.35    1.83
   1  11   0   59.54    2.04
   1  11   0   55.47    2.13
  -1  11   0   57.34    1.75
   1  11   1   67.76    2.20
  -1 -11   1   69.36    2.42
   1 -11  -1   69.75    2.65
   1  11   1   64.38    1.99
   1  11   1   69.32    2.39
   1  11   1   68.05    2.24
  -1  11  -1   66.11    1.95
   1 -11  -2   15.23    1.15
   1  11   2   14.77    0.89
  -1 -11   2   13.61    0.96
   1  11   2   15.05    0.75
   1  11   2   12.35    0.84
  -1  11  -2   14.70    0.73
   1  11   2   13.89    0.97
   1 -11  -3   24.66    1.49
  -1 -11   3   26.38    1.30
   1  11   3   25.35    1.18
   1  11   3   26.83    1.02
   1  11   3   26.07    1.30
  -1  11  -3   25.34    1.03
   1  11   3   27.26    1.25
   1  11   4   88.54    2.67
   1 -11  -4   94.00    3.27
   1  11   4   88.67    2.41
  -1  11  -4   89.62    2.48
   1  11   4   86.49    2.71
   1  11   4   86.86    2.83
   1  11   5   40.97    1.56
  -1 -11   5   41.95    1.12
   1 -11  -5   40.01    1.98
   1  11   5   40.37    1.31
   1  11   5   38.51    1.57
   1  11   5   39.53    1.67
  -1  11  -5   38.88    1.38
   1  11   6    0.07    0.23
   1 -11  -6    0.43    0.48
   1  11   6   -0.09    0.34
   1  11   6    0.05    0.35
   1  11   6    0.05    0.43
   1 -11  -7   12.58    1.12
   1  11   7   11.58    0.77
   1  11   7   10.30    0.56
   1  11   7   12.60    0.85
   1  11   7   12.24    0.91
   1  11   8    1.44    0.27
   1  11   8    2.03    0.42
   1  11   8    1.83    0.51
   1  11   9    4.93    0.56
   1  11   9    4.40    0.37
   1  11   9    4.26    0.63
   1  11  10   22.62    1.10
   1  11  10   20.16    0.74
  -1  11 -10   20.39    1.03
   1  11  11   21.65    1.09
  -1  11 -11   19.99    1.04
   1  11  12    3.40    0.49
  -1  11 -12    2.96    0.49
   1  11  13   24.92    1.20
  -1  11 -13   27.54    1.29
   1  11  14    0.73    0.42
  -1  11 -14    1.75    0.48
   1  11  15    1.16    0.42
  -1  11 -15    2.08    0.51
   1  11  16    5.80    0.62
  -1  11 -16    5.53    0.69
   1  11  17   36.32    1.50
  -1  11 -17   32.12    1.58
   1  11  18    1.11    0.46
  -1  11 -18    0.83    0.49
   1  11  19    1.41    0.49
  -1  11 -19    1.14    0.57
   1  11  20   10.16    0.80
  -1  11 -20   12.63    1.07
   1  11  21    0.05    0.39
  -1  11 -21   -0.59    0.59
  -1  11 -22   28.57    1.64
  -1  11 -23   16.71    1.31
  -1  11 -24    1.90    0.68
  -1  11 -25   28.65    1.72
  -1  11 -26    1.13    0.79
  -1  11 -27    4.07    0.86
  -1  11 -28    1.16    0.69
  -1  11 -29    1.43    0.72
  -1  11 -30    2.49    0.80
  -1  11 -31    2.01    0.76
  -1  11 -32    1.44    0.72
   1  12 -33    0.57    0.73
   1  12 -32    8.71    1.16
   1  12 -31    4.20    0.96
   1  12 -30    2.87    1.00
   1  12 -30    4.10    0.96
   1  12 -29    3.07    0.97
   1  12 -29    3.95    1.01
   1  12 -28    1.32    0.84
   1  12 -28   -0.54    0.90
   1  12 -27   14.46    1.42
   1  12 -27   13.64    1.39
   1  12 -26    5.80    1.03
   1  12 -26    3.52    0.94
   1  12 -25    2.42    0.88
   1  12 -25    2.34    0.83
   1  12 -24   21.85    1.66
   1  12 -24   23.57    1.64
   1  12 -23    9.61    1.12
   1  12 -23    8.72    1.15
   1  12 -22   15.05    1.38
   1  12 -22   14.87    1.29
   1  12 -21    8.40    1.00
   1  12 -21    5.78    1.01
   1  12 -20    9.51    1.12
   1  12 -20   10.69    1.06
   1  12 -19    8.65    1.06
   1  12 -19    7.63    0.93
   1  12 -18    9.40    1.07
   1  12 -18   10.92    0.97
   1  12 -17   25.03    1.39
   1  12 -17   22.06    1.51
   1  12 -16    8.67    0.98
   1  12 -16    9.81    0.87
   1  12 -15   33.41    1.51
   1  12 -15   30.58    1.70
   1  12 -14   10.18    1.00
   1  12 -14   11.00    0.83
   1  12 -14    8.96    1.08
   1  12 -13    3.44    0.56
   1  12 -13    2.85    0.66
   1  12 -13    3.64    0.81
   1  12 -12   19.57    1.30
   1  12 -12   19.67    1.05
   1  12 -12   23.29    1.51
   1  12 -11    1.21    0.41
   1  12 -11    0.94    0.66
   1  12 -10   16.95    0.89
   1  12 -10   14.68    1.20
   1  12  -9    0.51    0.31
   1  12  -9    0.40    0.56
   1  12  -8   47.56    1.57
   1  12  -8   50.28    2.20
   1  12  -7   38.97    1.31
   1  12  -7   37.52    1.86
  -1 -12  -6    2.53    0.61
   1  12  -6    2.13    0.61
  -1 -12  -5   20.91    1.41
   1  12  -5   20.09    1.31
  -1 -12  -4   24.26    1.48
   1  12  -4   25.58    1.44
  -1 -12  -3   49.53    2.15
   1  12  -3   46.34    1.85
   1  12  -3   52.23    2.13
  -1 -12  -2   18.21    1.22
   1 -12   2   16.80    1.22
  -1  12   2   17.98    0.84
   1  12  -2   15.40    1.01
   1  12  -2   19.20    1.24
  -1 -12  -1    3.34    0.62
   1 -12   1    4.26    0.70
  -1  12   1    3.13    0.41
   1  12  -1    3.48    0.53
   1  12  -1    3.32    0.60
   1 -12   0    7.92    0.88
  -1 -12   0    6.70    0.75
   1  12   0    7.06    0.58
  -1  12   0    6.98    0.53
   1  12   0    6.73    0.68
   1  12   0    6.00    0.75
   1  12   1    3.63    0.46
  -1 -12   1    3.95    0.61
   1  12   1    3.27    0.52
   1 -12  -1    3.29    0.62
   1  12   1    3.60    0.63
   1  12   1    3.29    0.55
  -1  12  -1    2.73    0.40
  -1 -12   2   17.57    1.12
   1 -12  -2   19.09    1.34
   1  12   2   17.74    1.01
   1  12   2   19.05    0.88
  -1  12  -2   18.31    0.87
   1  12   2   18.62    1.07
   1  12   2   18.32    1.15
   1  12   3   51.17    1.83
   1 -12  -3   48.89    2.25
  -1 -12   3   51.12    1.98
   1  12   3   50.20    1.59
   1  12   3   47.45    1.97
  -1  12  -3   45.52    1.58
   1  12   3   46.82    1.82
   1  12   4   23.90    1.17
   1  12   4   23.18    0.96
  -1  12  -4   24.52    1.04
   1  12   4   25.49    1.35
   1  12   4   23.21    1.20
   1  12   5   22.56    1.13
   1  12   5   21.70    0.90
  -1  12  -5   21.00    0.98
   1  12   5   22.01    1.15
   1  12   5   24.16    1.29
   1  12   6    1.89    0.31
   1  12   6    2.50    0.48
   1  12   6    2.07    0.50
  -1  12  -6    1.60    0.39
   1  12   6    2.16    0.55
   1  12   7   38.59    1.53
   1  12   7   38.35    1.23
   1  12   7   36.61    1.70
   1  12   7   39.65    1.62
   1  12   8   45.77    1.74
   1  12   8   47.25    1.40
   1  12   8   48.40    1.99
   1  12   9    0.73    0.40
   1  12   9    0.75    0.25
   1  12   9    0.31    0.48
   1  12  10   15.98    0.95
   1  12  11    1.78    0.44
   1  12  12   21.55    1.11
  -1  12 -13    2.84    0.52
   1  12  13    3.10    0.52
  -1  12 -14   11.50    0.87
   1  12  14   10.06    0.78
  -1  12 -15   31.68    1.48
   1  12  15   30.32    1.36
  -1  12 -16    8.35    0.83
   1  12  16    8.37    0.73
  -1  12 -17   20.23    1.25
   1  12  17   21.18    1.10
  -1  12 -18    8.69    0.89
   1  12  18    8.37    0.74
  -1  12 -19    6.55    0.80
   1  12  19    8.96    0.73
  -1  12 -20   10.95    1.02
  -1  12 -21    6.75    0.89
  -1  12 -22   16.14    1.22
  -1  12 -23    7.89    0.95
  -1  12 -24   23.17    1.50
  -1  12 -25    3.73    0.78
  -1  12 -26    2.22    0.75
  -1  12 -27   13.17    1.22
  -1  12 -28    0.08    0.66
  -1  12 -29    3.13    0.81
  -1  12 -30    3.39    0.82
   1  13 -32    1.89    0.72
   1  13 -32    0.71    0.93
   1  13 -31    9.31    1.14
   1  13 -30    0.68    0.71
   1  13 -29    1.00    0.75
   1  13 -28    2.43    0.85
   1  13 -27    8.86    1.17
   1  13 -27    8.08    1.15
   1  13 -26    6.63    1.11
   1  13 -26    6.57    1.08
   1  13 -25   12.23    1.23
   1  13 -25    8.99    1.22
   1  13 -24    3.60    0.94
   1  13 -24    5.87    0.97
   1  13 -23    1.74    0.77
   1  13 -23    1.60    0.85
   1  13 -22   28.15    1.86
   1  13 -22   35.88    1.89
   1  13 -21   10.96    1.18
   1  13 -21   10.59    1.13
   1  13 -20    5.14    0.87
   1  13 -20    6.48    1.00
   1  13 -20    5.63    1.17
   1  13 -19   56.61    2.58
   1  13 -19   58.69    2.39
   1  13 -19   58.84    2.93
   1  13 -18   13.61    1.27
   1  13 -18   14.40    1.14
   1  13 -18   12.76    1.44
   1  13 -17    7.53    1.01
   1  13 -17    8.70    0.90
   1  13 -17    7.31    1.13
   1  13 -16   20.26    1.24
   1  13 -16   20.40    1.45
   1  13 -16   22.56    1.69
   1  13 -15   38.43    1.96
   1  13 -15   38.57    1.69
   1  13 -15   37.40    2.15
   1  13 -14   11.64    0.89
   1  13 -14    9.21    1.16
   1  13 -13    2.50    0.53
   1  13 -13    2.74    0.79
   1  13 -12   11.45    0.85
   1  13 -12   13.24    1.28
   1  13 -11  107.17    3.07
   1  13 -11  105.43    3.82
   1  13 -10   18.03    0.94
   1  13 -10   17.50    1.38
   1  13  -9    6.10    0.90
   1  13  -8    3.07    0.68
   1  13  -7    5.38    0.84
   1  13  -6   14.02    1.17
   1  13  -5   44.63    1.86
   1  13  -5   47.67    2.15
   1  13  -4   14.95    1.03
   1  13  -4   14.52    1.17
  -1 -13  -3    8.44    0.91
   1  13  -3   10.19    1.01
   1  13  -3   10.30    0.87
  -1 -13  -2   59.03    2.34
   1  13  -2   54.54    2.26
  -1  13   2   53.05    1.72
   1  13  -2   50.14    2.00
  -1 -13  -1   13.16    1.06
   1  13  -1   10.30    0.87
   1  13  -1   12.13    1.04
  -1  13   1   11.06    0.70
  -1 -13   0   72.85    2.68
   1  13   0   65.04    2.58
   1  13   0   72.37    2.44
  -1  13   0   72.65    2.13
  -1 -13   1   12.94    1.02
   1  13   1   12.95    1.06
   1  13   1   11.29    0.88
  -1  13  -1   11.71    0.72
   1  13   2   55.58    1.98
  -1 -13   2   54.44    2.15
   1  13   2   48.91    1.94
  -1  13  -2   53.36    1.72
   1  13   2   47.83    2.10
   1  13   3   10.33    0.79
   1  13   3    8.85    0.79
   1  13   3    9.71    0.93
  -1  13  -3    9.16    0.66
   1  13   4   15.00    0.95
   1  13   4   15.09    1.09
   1  13   4   14.39    0.98
  -1  13  -4   13.96    0.80
   1  13   5   45.88    1.74
   1  13   5   43.59    1.93
  -1  13  -5   42.17    1.54
   1  13   5   43.33    1.78
   1  13   6   12.27    0.86
   1  13   6   11.53    0.90
  -1  13  -6   12.45    0.77
   1  13   6   14.42    1.08
   1  13   7    4.38    0.57
   1  13   7    4.97    0.74
  -1  13  -7    4.32    0.52
   1  13   8    3.03    0.52
  -1  13  -8    3.41    0.49
   1  13   8    2.68    0.70
   1  13   9    5.27    0.62
   1  13   9    5.34    0.76
   1  13  10   17.25    1.01
   1  13  11  100.92    3.01
   1  13  12   10.33    0.80
   1  13  13    2.18    0.48
   1  13  14   10.30    0.80
   1  13  15   37.19    1.51
  -1  13 -16   20.66    1.24
   1  13  16   22.10    1.11
  -1  13 -17    6.49    0.80
   1  13  17    7.28    0.68
  -1  13 -18   14.84    1.10
  -1  13 -19   58.31    2.29
  -1  13 -20    4.76    0.75
  -1  13 -21   11.86    1.06
  -1  13 -22   27.59    1.59
  -1  13 -23    1.10    0.63
  -1  13 -24    4.86    0.82
  -1  13 -25    6.43    0.91
  -1  13 -26    7.45    0.93
  -1  13 -32    0.96    0.98
   1  14 -31    2.21    0.98
   1  14 -30    1.15    0.75
   1  14 -30   -0.12    0.99
   1  14 -29   11.84    1.26
   1  14 -29    9.95    1.39
   1  14 -28    2.65    0.94
   1  14 -28    2.80    1.11
   1  14 -27    1.54    0.71
   1  14 -27   -0.26    0.99
   1  14 -26    3.22    0.90
   1  14 -26    4.30    1.15
   1  14 -25    1.86    0.88
   1  14 -25    3.92    1.09
   1  14 -24    2.45    0.87
   1  14 -24    2.73    1.03
   1  14 -23   31.83    1.95
   1  14 -23   30.51    2.19
   1  14 -22    7.25    1.07
   1  14 -22    8.96    1.30
   1  14 -21    7.43    1.06
   1  14 -21    9.34    1.36
   1  14 -20    0.97    0.66
   1  14 -20    1.40    0.73
   1  14 -20    0.50    0.90
   1  14 -19   40.41    2.08
   1  14 -19   34.68    1.82
   1  14 -19   35.25    2.27
   1  14 -18   20.54    1.33
   1  14 -18   21.47    1.81
   1  14 -17    8.52    0.91
   1  14 -17    7.07    1.19
   1  14 -16    6.92    0.77
   1  14 -16    5.76    1.07
   1  14 -15   19.85    1.63
   1  14 -14    5.16    1.02
   1  14 -13   50.06    2.54
   1  14 -12    0.92    0.71
   1  14 -11    7.92    1.06
   1  14 -10   38.45    2.13
   1  14  -9  193.14    5.86
   1  14  -8   17.25    1.41
   1  14  -7    9.99    1.12
   1  14  -7    8.09    0.90
   1  14  -6   36.69    1.97
   1  14  -6   36.46    1.71
   1  14  -5  216.60    5.87
   1  14  -5  220.35    6.30
   1  14  -4    9.13    0.90
   1  14  -4    8.78    1.07
   1  14  -3   23.44    1.49
   1  14  -3   22.22    1.29
   1  14  -2   20.68    1.40
   1  14  -2   21.58    1.25
   1  14  -1   31.63    1.71
  -1  14   1   34.80    1.30
   1  14  -1   33.12    1.56
   1  14   0   14.74    1.19
  -1  14   0   13.85    0.79
   1  14   0   13.80    0.99
   1  14   1   37.19    1.80
   1  14   1   33.54    1.58
  -1  14  -1   34.15    1.31
  -1  14  -2   19.41    0.95
   1  14   2   19.50    1.17
   1  14   2   21.76    1.39
  -1  14  -3   20.73    1.00
   1  14   3   22.10    1.24
   1  14   3   21.17    1.38
   1  14   4    6.46    0.88
  -1  14  -4    7.32    0.66
   1  14   4    7.45    0.78
   1  14   5  215.37    5.63
   1  14   5  215.75    6.02
   1  14   5  213.92    5.74
  -1  14  -5  219.26    5.41
   1  14   6   39.88    1.64
   1  14   6   39.33    1.75
  -1  14  -6   38.22    1.48
   1  14   6   40.35    1.93
   1  14   7   10.03    0.84
  -1  14  -7   10.25    0.73
   1  14   7    9.07    1.01
   1  14   8   14.74    0.98
   1  14   8   15.64    1.24
  -1  14  -8   14.56    0.91
   1  14   9  189.54    4.94
  -1  14  -9  184.00    4.84
   1  14   9  186.08    5.41
   1  14  10   38.04    1.56
  -1  14 -10   35.99    1.49
   1  14  11    7.96    0.73
   1  14  12    0.60    0.46
   1  14  13   48.77    1.80
   1  14  14    2.81    0.51
   1  14  15   18.69    1.02
  -1  14 -31    0.94    0.86
   1  15 -30    0.45    0.83
   1  15 -29    2.33    1.01
   1  15 -28    0.84    0.87
   1  15 -27   -0.37    0.90
   1  15 -26    0.75    0.92
   1  15 -25    2.67    1.01
   1  15 -24   10.64    1.48
   1  15 -23    4.24    1.15
   1  15 -22    3.20    1.04
   1  15 -21    1.14    0.90
   1  15 -20    3.27    1.03
   1  15 -19    2.98    1.01
   1  15 -18    3.18    1.00
   1  15 -17   12.45    1.41
   1  15 -16    8.46    1.27
   1  15 -15    5.30    1.03
   1  15 -14   38.66    2.27
   1  15 -13   11.71    1.34
   1  15 -12   11.44    1.32
   1  15 -11   37.83    2.18
   1  15 -10   27.08    1.85
   1  15  -9   15.98    1.39
   1  15  -9   13.08    1.09
   1  15  -8    2.39    0.65
   1  15  -8    2.56    0.78
   1  15  -7   20.20    1.53
   1  15  -7   20.89    1.31
   1  15  -6   11.22    0.99
   1  15  -6   11.31    1.17
   1  15  -5   18.46    1.42
   1  15  -5   16.96    1.18
   1  15  -4   39.68    2.06
   1  15  -4   40.13    1.82
   1  15  -3    7.77    0.83
   1  15  -3    9.10    1.06
   1  15  -2    3.94    0.79
   1  15  -2    6.08    0.75
   1  15  -1   19.61    1.42
   1  15  -1   21.58    1.25
  -1  15   0   32.61    1.29
   1  15   0   34.24    1.84
   1  15   0   33.33    1.59
   1  15   1   21.17    1.24
   1  15   1   19.68    1.41
  -1  15  -1   21.38    1.01
   1  15   2    5.53    0.74
  -1  15  -2    5.07    0.54
   1  15   2    3.81    0.80
  -1  15  -3    8.24    0.65
   1  15   3    8.66    0.96
   1  15   3    7.12    0.79
   1  15   4   36.84    1.67
  -1  15  -4   36.47    1.40
   1  15   4   33.78    1.82
   1  15   5   19.54    1.20
  -1  15  -5   18.56    0.96
   1  15   5   18.73    1.33
   1  15   6   13.15    1.16
  -1  15  -6    8.62    0.70
   1  15   7   23.47    1.51
  -1  15  -7   21.70    1.08
   1  15   8    4.33    0.59
   1  15   8    4.12    0.84
  -1  15  -8    3.23    0.52
   1  15   9   14.03    0.92
  -1  15  -9   13.36    0.88
   1  15  10   28.14    1.31
  -1  15 -10   28.97    1.30
   1  15  11   40.14    1.61
  -1  15 -11   42.04    1.64
   1  15  12   12.50    0.88
  -1  15 -12   14.20    0.92
   1  15  13   11.24    0.79
  -1  15 -29    1.54    0.85
  -1  15 -30    0.91    0.88
   1  16 -28    0.11    0.81
   1  16 -27   -0.46    0.91
   1  16 -26    2.39    0.98
   1  16 -25    3.53    1.13
   1  16 -24    1.49    0.89
   1  16 -23    1.38    0.95
   1  16 -22    3.64    1.10
   1  16 -21    4.65    1.09
   1  16 -20    0.13    0.85
   1  16 -19    7.84    1.26
   1  16 -18   -0.74    0.91
   1  16 -17    1.22    0.91
   1  16 -16    4.46    1.06
   1  16 -15    1.07    0.86
   1  16 -14    1.17    0.85
   1  16 -13    0.57    0.81
   1  16 -12    5.30    1.06
   1  16 -12    4.69    0.79
   1  16 -11    0.66    0.57
   1  16 -11    0.77    0.75
   1  16 -10    0.43    0.76
   1  16 -10    0.58    0.57
   1  16  -9    3.71    0.92
   1  16  -9    4.27    0.73
   1  16  -8   11.93    1.31
   1  16  -8   10.73    1.02
   1  16  -7    5.31    0.96
   1  16  -7    5.50    0.79
   1  16  -6    4.73    0.78
   1  16  -6    5.28    0.96
   1  16  -5   10.41    1.18
   1  16  -5   10.28    0.96
   1  16  -4    1.88    0.63
   1  16  -4    1.43    0.66
   1  16  -3    5.68    0.94
   1  16  -3    6.20    0.79
   1  16  -2    4.23    0.71
   1  16  -2    3.57    0.82
   1  16  -1   14.48    1.09
   1  16  -1   17.49    1.39
   1  16   0   19.15    1.23
   1  16   0   21.27    1.50
   1  16   1   15.85    1.13
   1  16   1   17.45    1.35
  -1  16  -2    4.99    0.54
   1  16   2    3.81    0.67
   1  16   2    4.46    0.80
   1  16   3    5.73    0.91
   1  16   3    4.71    0.73
  -1  16  -3    5.75    0.58
   1  16   4    1.37    0.57
  -1  16  -4    1.18    0.40
   1  16   4    2.23    0.73
   1  16   5   10.09    1.12
  -1  16  -5   10.57    0.73
   1  16   6    5.57    0.92
   1  16   7    5.12    0.93
   1  16   8   14.44    1.26
  -1  16 -28   -0.57    0.85
   1  17 -26    3.54    1.00
   1  17 -25   -0.11    0.86
   1  17 -24    2.23    1.00
   1  17 -23   -0.96    1.00
   1  17 -22    5.81    1.23
   1  17 -21    1.96    0.94
   1  17 -20   10.68    1.43
   1  17 -19    4.30    1.14
   1  17 -18    2.21    0.97
   1  17 -17    5.13    1.09
   1  17 -16   15.30    1.58
   1  17 -16   16.14    1.28
   1  17 -15    6.49    0.93
   1  17 -15    8.17    1.26
   1  17 -14    4.57    0.85
   1  17 -14    5.46    1.13
   1  17 -13    0.96    0.65
   1  17 -13    1.05    0.84
   1  17 -12   25.59    1.88
   1  17 -12   23.76    1.50
   1  17 -11   20.09    1.35
   1  17 -11   21.95    1.74
   1  17 -10    2.93    0.98
   1  17 -10    2.58    0.71
   1  17  -9   17.41    1.52
   1  17  -9   18.43    1.28
   1  17  -8    5.84    0.84
   1  17  -8    6.56    1.12
   1  17  -7   11.92    1.07
   1  17  -7   14.53    1.40
   1  17  -6    6.43    0.87
   1  17  -6    7.49    1.13
   1  17  -5   19.74    1.58
   1  17  -5   17.78    1.20
   1  17  -4    1.19    0.77
   1  17  -4    1.11    0.57
   1  17  -3    5.26    0.99
   1  17  -3    7.27    0.84
   1  17  -2    2.80    0.86
   1  17  -2    1.52    0.60
   1  17  -1   20.45    1.52
   1  17  -1   19.99    1.25
   1  17   0   13.64    1.07
   1  17   0   16.04    1.38
   1  17   1   18.09    1.20
   1  17   1   18.17    1.47
   1  17   2    2.19    0.79
   1  17   2    1.47    0.58
   1  17   3    5.38    0.94
   1  17   3    5.89    0.79
   1  17   4    1.91    0.78
   1  17   5   19.33    1.50
   1  17   6    9.10    1.09
   1  17   7   13.22    1.30
   1  18 -24    1.19    0.88
   1  18 -23    1.33    0.87
   1  18 -22    5.46    1.13
   1  18 -21    1.74    0.95
   1  18 -20    1.52    0.95
   1  18 -19    1.18    0.96
   1  18 -18    9.52    1.00
   1  18 -18    9.73    1.36
   1  18 -17   12.57    1.12
   1  18 -17   14.88    1.58
   1  18 -16    1.54    0.98
   1  18 -16    0.49    0.62
   1  18 -15   11.81    1.43
   1  18 -15   11.18    1.07
   1  18 -14   21.30    1.37
   1  18 -14   18.45    1.75
   1  18 -13   15.29    1.58
   1  18 -13   16.60    1.25
   1  18 -12    2.43    0.92
   1  18 -12    1.88    0.66
   1  18 -11   36.11    2.25
   1  18 -11   37.69    1.84
   1  18 -10    2.14    0.95
   1  18 -10    1.50    0.65
   1  18  -9   41.07    2.29
   1  18  -9   35.81    1.79
   1  18  -8    2.29    0.97
   1  18  -8    0.93    0.64
   1  18  -7   36.86    2.17
   1  18  -7   36.37    1.77
   1  18  -6   15.58    1.47
   1  18  -6   16.06    1.19
   1  18  -5   30.65    1.61
   1  18  -5   31.90    2.01
   1  18  -4   43.96    1.96
   1  18  -4   47.25    2.41
   1  18  -3   11.23    1.27
   1  18  -3   11.99    1.06
   1  18  -2   21.36    1.33
   1  18  -2   23.96    1.72
   1  18  -1    6.78    1.05
   1  18  -1    6.81    0.82
   1  18   0    3.54    0.71
   1  18   0    3.15    0.88
   1  18   1    6.84    0.82
   1  18   1    5.46    1.04
   1  18   2   25.73    1.72
   1  18   3   12.66    1.28
   1  18   4   47.72    2.39
   1  18   5   28.81    1.89
   1  18   6   15.42    1.40
   1  18   7   37.97    2.12
   1  19 -22    0.10    0.85
   1  19 -21    4.34    1.03
   1  19 -20    0.87    0.77
   1  19 -19    3.66    1.01
   1  19 -18    1.46    0.90
   1  19 -17    3.62    1.03
   1  19 -16    5.79    1.08
   1  19 -15    3.18    0.98
   1  19 -14    5.88    1.14
   1  19 -13   15.91    1.16
   1  19 -13   12.66    1.47
   1  19 -12    9.27    1.27
   1  19 -12    7.98    0.91
   1  19 -11    4.92    1.13
   1  19 -11    4.21    0.75
   1  19 -10   11.24    1.02
   1  19 -10   11.70    1.35
   1  19  -9   33.52    2.12
   1  19  -9   35.49    1.71
   1  19  -8    5.63    0.80
   1  19  -8    5.93    1.07
   1  19  -7    9.80    0.93
   1  19  -7    9.90    1.21
   1  19  -6    0.91    0.57
   1  19  -6   -0.53    0.72
   1  19  -5   -0.18    0.55
   1  19  -5   -0.31    0.73
   1  19  -4    1.87    0.81
   1  19  -4    3.05    0.66
   1  19  -3    0.06    0.56
   1  19  -3   -0.41    0.77
   1  19  -2    3.66    0.67
   1  19  -2    3.67    0.91
   1  19  -1   15.42    1.41
   1  19  -1   14.19    1.07
   1  19   0    5.52    1.03
   1  19   1   12.98    1.32
   1  19   2    4.10    0.95
   1  19   3    0.68    0.75
   1  19   4    1.67    0.81
   1  19   5   -0.39    0.77
   1  19   6    1.62    0.81
   1  20 -19    5.34    1.03
   1  20 -18    2.03    0.87
   1  20 -17    8.59    1.27
   1  20 -16    5.16    1.08
   1  20 -15    8.96    1.20
   1  20 -14    1.06    0.85
   1  20 -13   -0.11    0.82
   1  20 -12    2.95    0.92
   1  20 -11    4.12    0.98
   1  20 -10    1.37    0.83
   1  20  -9    0.73    0.80
   1  20  -8    0.83    0.83
   1  20  -7   -0.10    0.78
   1  20  -6    0.52    0.77
   1  20  -5   15.39    1.45
   1  20  -4    4.24    0.98
   1  20  -4    3.70    0.70
   1  20  -3    3.46    0.91
   1  20  -3    4.27    0.69
   1  20  -2    4.96    0.99
   1  20  -1    9.50    1.18
   1  20   0    3.84    0.93
   1  20   1    7.23    1.13
   1  20   2    4.38    0.97
   1  20   3    3.72    1.01
   1  20   4    4.83    1.02
   1  20   5   15.92    1.42
   1  21 -16    2.68    0.87
   1  21 -15    4.70    0.95
   1  21 -14    6.22    1.04
   1  21 -13    7.81    1.11
   1  21 -12    2.71    0.93
   1  21 -11    0.59    0.81
   1  21 -10    3.14    0.92
   1  21  -9    1.38    0.78
   1  21  -8    0.99    0.82
   1  21  -7    5.11    1.01
   1  21  -6    0.10    0.78
   1  21  -5    2.39    0.83
   1  21  -4    2.50    0.85
   1  21  -3    2.79    0.88
   1  21  -2   11.83    1.28
   1  21  -1    1.43    0.82
   1  21   0    1.33    0.81
   1  21   1    1.24    0.84
   1  21   2    9.62    1.19
   1  21   3    2.52    0.85
   1  22 -11    8.40    1.08
   1  22 -10   -0.35    0.75
   1  22  -9    7.15    1.02
   1  22  -8    0.79    0.74
   1  22  -7    2.85    0.85
   1  22  -6    3.67    0.92
   1  22  -5    4.67    0.95
   1  22  -4    5.85    1.00
   1  22  -3    4.12    0.92
   1  22  -2    1.43    0.72
   1  22  -1    0.18    0.71
   1  22   0    0.54    0.76
   1  22   1    1.69    0.80
   1  22   2    2.01    0.81
  -2   0   0 1509.84   32.99
  -2   0   1  144.69    3.41
   2   0  -1  142.61    3.31
   2   0   1  145.00    3.29
   2   0  -2   80.48    2.02
   2   0  -2   80.82    1.98
   2   0   2   82.56    1.93
   2   0  -3 1317.80   28.84
   2   0  -3 1321.99   28.92
   2   0   3 1328.65   28.81
  -2   0  -4  495.26   10.97
   2   0  -4  494.14   10.91
  -2   0  -5  719.52   15.74
   2   0  -5  710.17   15.66
  -2   0  -6  123.91    2.99
  -2   0  -7    0.36    0.17
  -2   0  -8  283.88    6.57
   2   0  -8  289.11    6.50
  -2   0  -9  695.01   15.44
   2   0  -9  694.68   15.33
  -2   0 -10 1873.69   41.44
   2   0 -10 1895.36   41.30
   2   0  10 1913.08   41.40
  -2   0 -11   62.43    1.82
   2   0 -11   62.45    1.67
  -2   0 -11   64.68    1.88
   2   0  11   66.43    1.79
  -2   0  11   63.39    2.05
   2   0 -12   92.02    2.33
  -2   0 -12   91.27    2.56
   2   0  12   94.59    2.47
  -2   0  12   97.14    2.78
  -2   0 -13  272.75    6.66
   2   0  13  283.11    6.53
  -2   0  13  279.18    6.90
  -2   0 -14  289.29    7.06
   2   0  14  296.64    6.95
  -2   0  14  301.95    7.32
  -2   0 -15  110.45    3.16
   2   0  15  110.50    3.04
  -2   0 -15  121.31    3.38
  -2   0  15  122.41    3.40
  -2   0 -16    2.31    0.43
   2   0  16    2.47    0.44
  -2   0 -16    3.22    0.51
  -2   0  16    2.96    0.50
  -2   0 -17  222.49    5.81
   2   0  17  230.87    5.70
  -2   0  17  237.42    6.06
  -2   0 -17  237.10    6.03
  -2   0 -18   33.56    1.47
   2   0  18   39.36    1.46
  -2   0  18   35.87    1.62
  -2   0 -18   37.69    1.64
  -2   0 -19    8.71    0.76
   2   0  19    8.01    0.70
  -2   0  19   10.31    0.87
  -2   0 -19    9.34    0.83
  -2   0 -20  165.52    4.61
   2   0  20  168.72    4.47
  -2   0 -20  168.25    4.79
  -2   0 -21   88.28    2.94
  -2   0 -21   92.27    2.99
   2   0  21   95.26    2.87
  -2   0 -22   30.70    1.53
  -2   0 -22   29.99    1.54
   2   0  22   31.24    1.49
  -2   0 -23   18.16    1.23
  -2   0 -23   20.00    1.26
   2   0  23   22.38    1.27
  -2   0 -24    3.14    0.66
  -2   0 -24    4.16    0.73
   2   0  24    4.37    0.75
  -2   0 -25   47.80    2.15
  -2   0 -25   50.33    2.20
   2   0  25   52.21    2.12
  -2   0 -26   16.11    1.29
   2   0  26   16.06    1.22
  -2   0 -27   -0.08    0.62
   2   0  27    0.81    0.72
  -2   0 -28    9.27    1.04
   2   0  28    8.69    1.05
   2   0 -29    1.03    0.71
  -2   0 -29    0.47    0.69
   2   0 -30    2.46    0.80
  -2   0 -30    1.56    0.80
   2   0 -31    8.92    1.09
  -2   0 -31    9.99    1.19
  -2   0 -32   18.37    1.55
   2   0 -32   13.75    1.34
  -2   0 -33    4.24    1.03
   2   0 -33    5.15    1.02
  -2   0 -34    2.75    0.99
   2   0 -34    1.62    0.81
  -2   0 -35    7.05    1.18
   2   0 -35    7.01    1.11
   2   0 -36    4.51    0.94
  -2   0 -36    3.52    1.01
  -2   0 -37    0.43    0.82
   2   0 -37    1.20    0.79
  -2   0 -38    0.21    0.76
   2   0 -38   -0.34    0.81
  -2   0 -39    0.20    0.82
   2   0 -39    0.16    0.77
  -2  -1 -39    0.68    0.78
   2   1 -39   -0.29    0.78
   2   1 -39    0.51    0.82
  -2  -1 -38   -0.41    0.80
   2   1 -38   -0.53    0.75
   2   1 -38    0.10    0.76
   2   1 -37    7.46    1.17
  -2  -1 -37    9.00    1.18
   2   1 -37    8.51    1.15
  -2  -1 -36    0.11    0.82
   2   1 -36   -0.10    0.82
   2   1 -36   -0.65    0.79
   2   1 -35   13.35    1.45
  -2  -1 -35   12.85    1.41
   2   1 -35   12.55    1.29
  -2  -1 -34    8.76    1.18
   2   1 -34    5.71    1.06
  -2  -1 -33    9.38    1.22
   2   1 -33   11.77    1.23
  -2  -1 -32    9.29    1.17
   2   1 -32   11.27    1.23
   2   1 -31    3.06    0.87
  -2  -1 -31    3.42    0.88
   2   1 -30    7.82    1.02
  -2  -1 -30    9.21    1.12
   2   1 -29   12.08    1.18
  -2  -1 -29   15.18    1.31
  -2  -1 -28   25.67    1.62
   2  -1  28   26.08    1.58
  -2  -1 -27    1.93    0.70
   2  -1  27    4.48    0.79
  -2  -1 -26    1.44    0.61
   2  -1  26    0.76    0.63
  -2  -1 -25   12.97    1.09
   2  -1  25   14.25    1.08
  -2  -1 -24    0.26    0.53
  -2  -1 -24    0.81    0.53
   2  -1  24    0.82    0.56
  -2  -1 -23    3.30    0.65
   2  -1  23    4.00    0.68
  -2  -1 -22   47.66    1.95
   2  -1  22   50.36    1.93
  -2  -1 -21    2.24    0.56
   2  -1  21    3.10    0.58
  -2  -1 -20   43.33    1.73
   2  -1  20   43.11    1.66
  -2  -1 -19   12.57    0.87
   2  -1  19   13.58    0.86
  -2  -1 -19   13.24    0.98
  -2   1  19   14.24    1.02
  -2  -1 -18   44.97    1.71
   2  -1  18   46.04    1.65
  -2   1  18   47.61    1.92
  -2  -1 -18   48.55    1.92
  -2  -1 -17   30.58    1.30
   2  -1  17   30.29    1.24
  -2   1  17   29.63    1.42
  -2  -1 -17   30.97    1.45
  -2  -1 -16  261.55    6.61
   2  -1  16  275.23    6.52
  -2  -1 -16  283.92    6.93
  -2   1  16  269.27    6.88
  -2  -1 -15  109.50    3.07
   2  -1  15  108.65    2.97
  -2  -1 -14   25.70    1.07
   2  -1  14   24.82    0.99
  -2   1  14   27.00    1.23
  -2  -1 -13   20.60    0.91
   2  -1  13   22.51    0.88
  -2   1  13   21.62    1.07
  -2  -1 -12    3.07    0.37
   2   1 -12    3.34    0.32
   2  -1  12    3.49    0.36
  -2   1  12    3.06    0.43
   2   1 -11  184.85    4.43
   2  -1  11  190.14    4.48
   2   1 -10  820.44   18.12
   2  -1  10  820.87   18.16
   2   1  -9  881.29   19.45
   2  -1   9  884.42   19.48
  -2  -1  -8    2.02    0.23
   2   1  -8    2.10    0.25
  -2  -1  -7 1243.08   27.18
  -2  -1  -6   53.50    1.42
   2   1  -6   55.32    1.45
  -2  -1  -5 1500.23   32.87
   2  -1   5 1516.14   32.95
   2   1  -5 1511.20   32.92
  -2  -1  -4  115.14    2.66
   2   1  -4  112.09    2.63
   2   1  -4  109.67    2.72
   2  -1   4  116.87    2.76
   2   1  -3  234.69    5.23
   2   1  -3  237.19    5.37
   2   1  -2  819.90   18.16
   2   1  -2  833.65   18.17
  -2   1   1  125.33    3.11
   2   1  -1  124.16    2.96
  -2   1   0 1238.36   27.23
  -2   1  -1  124.11    3.11
   2  -1  -1  123.30    3.07
  -2  -1   1  124.64    2.87
   2  -1  -1  123.61    2.82
   2  -1  -2  816.91   18.43
   2   1   2  842.69   18.27
   2  -1  -3  235.51    5.52
   2  -1  -3  233.54    5.24
   2   1   3  239.28    5.34
   2  -1  -4  110.99    2.58
   2   1   4  116.70    2.70
  -2   1  -5 1501.15   33.46
   2   1   5 1551.92   33.37
  -2   1  -6   53.40    1.50
  -2   1  -7 1238.56   27.20
  -2   1  -8    3.74    0.33
   2  -1  -8    1.97    0.20
   2  -1  -9  869.99   19.07
  -2   1  -9  873.35   19.32
   2  -1 -10  815.64   17.84
  -2   1 -10  809.01   18.11
  -2   1 -11  180.56    4.51
  -2   1 -11  182.52    4.57
   2  -1 -11  185.13    4.24
  -2  -1  11  194.03    4.78
  -2   1 -12    3.77    0.40
  -2   1 -12    3.91    0.44
  -2  -1  12    3.43    0.45
  -2   1 -13   20.10    0.95
  -2   1 -13   22.25    0.96
  -2  -1  13   21.69    1.08
  -2   1 -14   25.57    1.07
  -2   1 -14   23.12    1.07
  -2  -1  14   25.05    1.18
  -2   1 -14   26.01    1.17
  -2   1 -15  111.08    3.13
  -2   1 -15  112.04    3.18
  -2  -1  15  111.41    3.32
  -2   1 -15  120.73    3.33
  -2   1 -16  272.33    6.85
  -2   1 -16  274.83    6.90
  -2   1 -16  297.48    7.07
  -2  -1  16  284.27    7.09
  -2   1 -17   32.95    1.39
  -2   1 -17   34.79    1.42
  -2   1 -17   32.02    1.47
  -2  -1  17   31.88    1.47
  -2   1 -18   46.22    1.76
  -2   1 -18   45.84    1.78
  -2   1 -18   50.40    1.90
  -2  -1  18   46.27    1.88
  -2   1 -19   13.14    0.93
  -2   1 -19   12.17    0.90
  -2   1 -19   13.21    0.95
  -2  -1  19   14.82    1.02
  -2   1 -20   46.20    1.84
  -2   1 -20   42.41    1.80
  -2   1 -20   45.87    1.89
  -2   1 -21    3.22    0.63
  -2   1 -21    3.74    0.61
  -2   1 -22   50.80    2.07
  -2   1 -22   49.10    2.07
  -2   1 -23    3.11    0.70
  -2   1 -23    4.15    0.71
  -2   1 -24    0.59    0.55
  -2   1 -24    0.80    0.55
  -2   1 -25   12.58    1.12
  -2   1 -25   12.98    1.13
  -2   1 -26    1.31    0.71
  -2   1 -26    1.98    0.75
  -2   1 -27    2.54    0.76
  -2   1 -28   25.57    1.70
  -2   1 -29   12.39    1.28
   2  -1 -29   13.30    1.19
   2  -1 -30    9.03    1.08
  -2   1 -30    7.88    1.13
   2  -1 -31    5.24    0.98
  -2   1 -31    3.10    0.93
  -2   1 -32   10.98    1.31
   2  -1 -32   11.86    1.21
  -2   1 -33   11.26    1.32
   2  -1 -33   11.91    1.24
  -2   1 -34    8.60    1.26
   2  -1 -34    7.91    1.09
   2  -1 -35   13.68    1.28
  -2   1 -35   11.40    1.39
   2  -1 -36    0.17    0.75
  -2   1 -36    0.57    0.82
  -2   1 -37    9.80    1.28
   2  -1 -37    7.42    1.08
  -2   1 -38   -0.33    0.83
   2  -1 -38    0.64    0.76
  -2   1 -39    0.10    0.77
  -2  -2 -39    1.03    0.80
   2   2 -39    2.38    0.90
   2   2 -39    1.77    0.83
  -2  -2 -38    0.59    0.78
   2   2 -38    1.01    0.86
   2   2 -38    1.11    0.85
  -2  -2 -37    7.71    1.18
   2   2 -37    6.64    1.12
   2   2 -37    7.56    1.12
  -2  -2 -36    4.61    0.96
   2   2 -36    7.16    1.09
   2   2 -36    8.53    1.23
  -2  -2 -35    0.93    0.85
   2   2 -35    3.13    0.97
   2   2 -35    2.52    0.90
  -2  -2 -34    2.14    0.83
   2   2 -34    0.68    0.84
   2   2 -34    0.62    0.86
  -2  -2 -33    5.89    1.05
   2   2 -33    5.46    1.08
   2   2 -32    1.68    0.78
  -2  -2 -32    0.97    0.79
   2   2 -31    2.71    0.87
  -2  -2 -31    3.29    0.88
  -2  -2 -30   12.59    1.22
   2   2 -30    9.93    1.20
   2   2 -29    4.93    0.92
  -2  -2 -29    5.42    0.91
  -2  -2 -28    4.18    0.86
   2  -2  28    4.70    0.87
  -2  -2 -27    5.36    0.85
   2  -2  27    5.99    0.89
   2  -2  26   39.87    1.88
   2  -2  25   13.98    1.12
   2  -2  24   20.94    1.31
  -2  -2 -23   12.33    0.97
   2  -2  23   12.43    1.00
  -2  -2 -22   17.46    1.10
   2  -2  22   19.21    1.12
  -2  -2 -21   56.27    2.03
   2  -2  21   53.18    1.96
  -2  -2 -20   17.09    0.99
   2  -2  20   15.26    0.95
  -2  -2 -19    0.45    0.39
   2  -2  19    0.79    0.40
  -2  -2 -18    1.50    0.42
   2  -2  18    1.23    0.42
  -2  -2 -17   25.92    1.14
   2  -2  17   26.28    1.12
  -2  -2 -16   85.99    2.60
   2  -2  16   97.96    2.62
  -2  -2 -15   48.47    1.63
   2  -2  15   51.53    1.62
  -2  -2 -14   49.34    1.60
   2  -2  14   50.37    1.57
   2  -2  13    3.01    0.37
   2   2 -13    2.93    0.34
   2   2 -12   13.29    0.64
   2  -2  12   13.97    0.65
   2   2 -11  241.51    5.72
   2  -2  11  247.11    5.71
   2   2 -10   14.12    0.64
   2  -2  10   15.91    0.65
   2   2  -9   57.36    1.63
   2  -2   9   58.10    1.60
   2   2  -8   19.24    0.74
   2  -2   8   19.71    0.72
   2  -2   7  186.89    4.37
   2  -2   6  437.34    9.76
   2   2  -6  434.64    9.80
  -2  -2  -5  330.35    7.35
   2  -2   5  341.96    7.49
   2   2  -5  321.77    7.51
  -2  -2  -4   85.36    1.98
   2   2  -4   82.28    2.15
   2  -2   4   84.05    2.12
   2   2  -3   10.24    0.47
  -2  -2  -3    8.95    0.31
   2   2  -3    8.66    0.45
   2   2  -2   56.10    1.53
   2   2  -2   56.11    1.54
  -2   2   2   56.79    1.37
   2   2  -1    8.51    0.41
   2   2  -1    7.83    0.41
   2   2  -1    8.33    0.31
  -2   2   1    7.38    0.28
  -2   2   0 1270.53   27.54
   2   2   0 1217.19   27.11
  -2   2   0 1273.23   27.13
  -2   2  -1    7.67    0.50
  -2   2  -1    8.36    0.31
   2   2   1    7.52    0.28
   2  -2  -2   53.60    1.67
  -2   2  -2   53.21    1.69
   2   2   2   56.85    1.34
   2   2   2   54.51    1.48
   2  -2  -3    8.69    0.53
  -2   2  -3    8.40    0.53
   2   2   3    8.43    0.41
   2   2   3    8.35    0.41
   2   2   4   80.26    2.07
   2   2   4   85.08    2.10
   2   2   5  320.18    7.42
   2   2   5  338.56    7.45
  -2   2  -6  453.53   10.39
   2   2   6  464.06   10.28
  -2   2  -7  178.31    4.32
   2  -2  -8   19.22    0.56
  -2   2  -8   18.88    0.80
  -2   2  -9   56.77    1.84
   2  -2  -9   68.68    1.58
  -2   2 -10   13.99    0.72
   2  -2 -10   15.32    0.47
  -2   2 -11  241.93    5.87
  -2   2 -11  243.55    5.86
  -2   2 -12   13.34    0.74
  -2   2 -12   12.16    0.73
  -2  -2  12   15.26    0.84
  -2   2 -13    3.19    0.44
  -2   2 -13    2.84    0.42
  -2  -2  13    2.95    0.46
  -2   2 -13    2.81    0.40
  -2   2 -14   50.25    1.74
  -2   2 -14   54.39    1.80
  -2   2 -14   50.61    1.78
  -2  -2  14   52.13    1.88
  -2   2 -15   52.74    1.82
  -2   2 -15   50.76    1.82
  -2   2 -15   53.01    1.85
  -2  -2  15   53.36    1.93
  -2   2 -16   92.73    2.85
  -2   2 -16   93.82    2.87
  -2   2 -16   96.96    2.90
  -2  -2  16  102.58    3.03
  -2   2 -17   25.53    1.23
  -2   2 -17   25.01    1.24
  -2   2 -17   27.65    1.29
  -2  -2  17   25.75    1.30
  -2   2 -18    1.99    0.50
  -2   2 -18    2.25    0.49
  -2  -2  18    0.73    0.42
  -2   2 -18    1.22    0.43
  -2   2 -19    0.66    0.43
  -2   2 -19    1.18    0.48
  -2  -2  19    0.89    0.44
  -2   2 -19    1.51    0.47
  -2   2 -20   15.62    1.06
  -2   2 -20   15.22    1.05
  -2   2 -20   16.63    1.08
  -2   2 -21   50.98    2.07
  -2   2 -21   53.06    2.14
  -2   2 -22   18.60    1.24
  -2   2 -22   18.39    1.26
  -2   2 -23   12.82    1.07
  -2   2 -23   12.14    1.10
  -2   2 -24   20.29    1.39
  -2   2 -24   21.34    1.41
  -2   2 -25   15.17    1.25
  -2   2 -25   16.27    1.28
  -2   2 -26   38.42    2.01
  -2   2 -26   39.21    2.03
  -2   2 -27    5.81    0.95
  -2   2 -28    4.20    0.94
   2  -2 -29    5.15    0.87
  -2   2 -29    5.01    0.94
   2  -2 -30    9.88    1.05
  -2   2 -30   10.65    1.26
  -2   2 -31    3.72    0.97
   2  -2 -31    3.60    0.83
  -2   2 -32    1.69    0.90
   2  -2 -32    1.57    0.77
   2  -2 -33    5.17    0.94
  -2   2 -33    7.15    1.17
  -2   2 -34    0.47    0.79
   2  -2 -34    2.59    0.78
  -2   2 -35    0.82    0.89
   2  -2 -35    0.80    0.72
  -2   2 -36    7.91    1.27
   2  -2 -36    7.31    1.02
  -2   2 -37    5.97    1.19
   2  -2 -37    6.82    1.03
  -2   2 -38    1.67    0.92
   2  -2 -38    1.93    0.81
  -2   2 -39    1.51    0.91
   2  -2 -39    0.37    0.75
   2   3 -39    0.79    0.81
  -2  -3 -38    0.74    0.76
   2   3 -38    1.02    0.81
   2   3 -38    0.19    0.82
  -2  -3 -37    1.15    0.83
   2   3 -37    0.73    0.84
   2   3 -37    0.96    0.83
  -2  -3 -36    0.98    0.80
   2   3 -36    1.27    0.80
   2   3 -36   -0.11    0.87
  -2  -3 -35    0.29    0.81
   2   3 -35    0.32    0.80
   2   3 -35    0.50    0.80
  -2  -3 -34   -0.49    0.80
   2   3 -34    0.73    0.81
   2   3 -34    0.20    0.79
   2   3 -33    2.37    0.87
   2   3 -33    2.66    0.90
  -2  -3 -33    1.15    0.81
   2   3 -32   10.51    1.23
  -2  -3 -32    8.78    1.15
   2   3 -32   10.22    1.23
  -2  -3 -31   23.74    1.64
   2   3 -31   23.30    1.67
   2   3 -30    0.27    0.73
  -2  -3 -30   -0.69    0.71
   2   3 -29    4.11    0.90
  -2  -3 -29    4.67    0.87
   2   3 -28    4.38    0.86
  -2  -3 -28    5.49    0.86
   2  -3  28    5.49    0.92
   2  -3  27   55.75    2.35
   2  -3  26    1.85    0.67
   2  -3  25   48.01    2.07
   2  -3  24   15.50    1.13
   2  -3  23    7.91    0.84
   2  -3  22    1.19    0.58
   2  -3  21   88.13    2.77
   2  -3  20   30.15    1.33
   2  -3  19   49.31    1.75
   2  -3  18   71.94    2.27
  -2  -3 -18   77.24    2.64
   2  -3  17   50.73    1.73
  -2  -3 -17   52.61    2.04
   2  -3  16  127.82    3.41
  -2   3  16  131.28    3.76
  -2  -3 -16  131.23    3.82
   2  -3  15  164.31    4.08
  -2   3  15  156.63    4.40
   2  -3  14   63.25    1.86
  -2   3  14   62.53    2.13
   2   3 -13  251.78    6.06
   2  -3  13  254.19    6.00
  -2   3  13  258.61    6.37
   2   3 -12   71.69    2.03
   2  -3  12   68.30    1.95
  -2   3  12   74.92    2.27
   2   3 -11   90.93    2.44
   2  -3  11   89.50    2.37
  -2   3  11   90.99    2.66
   2   3 -10  212.63    5.18
   2  -3  10  220.58    5.10
  -2   3  10  218.45    5.41
   2  -3   9    0.83    0.22
   2   3  -9    0.63    0.25
  -2   3   9    0.85    0.25
   2   3  -8  185.84    4.43
   2  -3   8  181.76    4.31
  -2   3   8  183.17    4.58
   2  -3   7  229.11    5.28
  -2   3   7  227.54    5.52
   2   3  -7  230.54    5.41
   2  -3   6  261.57    5.93
   2   3  -6  256.26    5.75
   2   3  -6  266.42    6.05
   2  -3   5  803.86   17.92
   2   3  -5  829.20   18.05
  -2  -3  -4  306.62    6.75
   2   3  -4  314.13    7.06
   2  -3   4  301.89    6.93
   2   3  -3  214.56    5.00
   2   3  -3  206.91    4.96
   2  -3   3  203.51    4.85
  -2   3   3  216.47    4.79
   2   3  -2  428.20    9.47
   2   3  -2  422.42    9.47
  -2   3   2  411.01    9.27
   2   3  -1    5.72    0.38
   2   3  -1    6.45    0.40
   2   3  -1    5.85    0.30
  -2   3   1    6.52    0.31
   2   3   0  823.42   17.73
  -2   3   0  791.74   18.00
  -2   3   0  809.70   17.55
   2   3   0  780.34   17.53
  -2   3  -1    6.50    0.50
  -2   3  -1    6.53    0.33
   2   3   1    5.92    0.29
  -2   3  -2  407.49    9.31
   2   3   2  422.54    9.01
  -2   3  -3  208.14    5.22
   2   3   3  207.17    4.85
   2   3   3  210.52    4.79
   2   3   3  217.63    4.95
  -2   3  -4  307.38    7.31
   2   3   4  298.28    6.89
   2   3   4  312.94    6.99
  -2   3  -5  776.25   18.17
   2   3   5  800.45   17.73
   2   3   5  828.44   17.84
   2   3   6  266.78    6.17
  -2   3  -7  226.97    5.45
  -2   3  -8  180.17    4.46
   2   3   8  180.86    4.25
  -2   3  -9    0.59    0.26
   2   3   9    0.73    0.21
  -2   3 -10  215.92    5.38
   2   3  10  223.09    5.16
  -2   3 -11   86.54    2.53
  -2   3 -11   89.35    2.56
   2   3  11   91.25    2.34
  -2   3 -12   67.20    2.14
  -2   3 -12   68.72    2.14
   2   3  12   70.06    1.94
  -2  -3  12   71.01    2.24
  -2   3 -12   73.59    2.13
  -2   3 -13  253.80    6.39
  -2   3 -13  255.66    6.37
   2   3  13  260.39    6.12
  -2   3 -13  263.89    6.35
  -2  -3  13  267.08    6.50
  -2   3 -14   63.73    2.09
  -2   3 -14   61.28    2.07
   2   3  14   63.36    1.87
  -2  -3  14   63.17    2.14
  -2   3 -14   64.36    2.05
  -2   3 -15  151.95    4.23
  -2   3 -15  152.69    4.23
   2   3  15  160.00    4.00
  -2  -3  15  161.43    4.32
  -2   3 -15  162.28    4.21
  -2   3 -16  127.33    3.68
  -2   3 -16  130.80    3.71
   2   3  16  128.59    3.44
  -2   3 -16  132.64    3.66
  -2  -3  16  134.67    3.77
  -2   3 -17   50.03    1.92
  -2   3 -17   49.27    1.92
   2   3  17   50.62    1.71
  -2  -3  17   54.11    1.98
  -2   3 -17   52.41    1.89
  -2   3 -18   72.21    2.48
  -2   3 -18   66.90    2.42
   2   3  18   70.84    2.22
  -2  -3  18   74.39    2.50
  -2   3 -18   73.97    2.43
  -2   3 -19   47.64    1.95
  -2   3 -19   50.08    1.98
   2   3  19   46.72    1.73
  -2  -3  19   52.90    2.02
  -2   3 -19   49.42    1.92
  -2   3 -20   31.15    1.54
  -2   3 -20   31.67    1.56
   2   3  20   31.13    1.36
  -2   3 -20   29.98    1.48
  -2   3 -21   84.33    2.96
  -2   3 -21   88.85    3.00
   2   3  21   83.71    2.70
  -2   3 -22    0.50    0.57
  -2   3 -22    1.38    0.56
   2   3  22    1.20    0.57
  -2   3 -23    8.01    0.92
  -2   3 -23    5.88    0.86
   2   3  23    7.71    0.84
  -2   3 -24   15.40    1.24
  -2   3 -24   15.90    1.29
   2   3  24   14.34    1.09
  -2   3 -25   47.20    2.27
  -2   3 -25   49.90    2.31
   2   3  25   48.83    2.07
  -2   3 -26    1.43    0.74
  -2   3 -26    2.03    0.76
   2   3  26    2.49    0.74
  -2   3 -27   58.34    2.65
   2   3  27   56.95    2.39
  -2   3 -28    4.96    0.99
   2   3  28    7.03    0.98
   2  -3 -29    6.81    0.92
  -2   3 -29    5.71    1.04
   2  -3 -30    0.50    0.66
  -2   3 -30   -0.11    0.77
   2  -3 -31   23.59    1.48
  -2   3 -31   24.59    1.87
  -2   3 -32   10.01    1.33
   2  -3 -32   10.13    1.10
  -2   3 -33    1.18    0.83
   2  -3 -33    1.59    0.74
   2  -3 -34    0.45    0.64
  -2   3 -34   -0.84    0.91
  -2   3 -35    0.48    0.84
   2  -3 -35    0.37    0.66
   2  -3 -36    0.87    0.65
  -2   3 -36    0.60    0.88
  -2   3 -37    0.47    0.81
  -2   3 -38    1.48    0.95
  -2   3 -39    0.33    0.84
   2  -3 -39    2.26    0.85
  -2  -4 -38    7.88    1.08
   2   4 -38    5.33    1.08
   2   4 -38    9.05    1.26
  -2  -4 -37    3.47    0.88
   2   4 -37    2.72    1.00
   2   4 -37    2.96    0.95
  -2  -4 -36    1.76    0.83
   2   4 -36    0.42    0.81
   2   4 -36    0.30    0.81
  -2  -4 -35    1.77    0.86
   2   4 -35    1.80    0.91
   2   4 -35    2.43    0.92
  -2  -4 -34    0.37    0.74
   2   4 -34   -0.41    0.85
   2   4 -34    1.59    0.83
  -2  -4 -33    4.02    0.92
   2   4 -33    6.15    1.06
   2   4 -33    4.75    1.03
   2   4 -32    4.97    1.03
  -2  -4 -32    4.91    0.95
   2   4 -32    5.49    1.01
  -2  -4 -31    5.64    0.93
   2   4 -31    7.33    1.13
   2   4 -31    6.91    1.10
   2   4 -30    8.55    1.12
   2   4 -30    7.56    1.11
  -2  -4 -30    7.48    0.99
   2   4 -29   16.53    1.42
   2   4 -29   16.65    1.45
  -2  -4 -29   15.52    1.29
   2   4 -28   21.41    1.56
   2   4 -27   15.52    1.31
   2  -4  27   13.87    1.16
   2  -4  26    1.56    0.66
   2  -4  25   22.35    1.36
   2  -4  24    4.79    0.76
   2  -4  23   78.18    2.70
   2  -4  22   17.11    1.11
   2  -4  21   15.32    0.99
   2  -4  20    8.65    0.75
   2  -4  19   15.15    0.90
   2  -4  18    9.20    0.72
  -2  -4 -18   12.55    0.97
   2  -4  17   67.65    2.14
  -2  -4 -17   75.08    2.55
   2  -4  16  110.13    3.01
  -2  -4 -16  113.75    3.43
   2  -4  15  208.60    5.11
  -2   4  15  211.00    5.48
   2  -4  14   78.79    2.20
  -2   4  14   75.90    2.47
   2   4 -13  166.64    4.21
   2  -4  13  165.64    4.08
  -2   4  13  165.22    4.41
   2   4 -12   88.76    2.50
   2  -4  12   89.33    2.37
  -2   4  12   91.76    2.69
   2   4 -11   63.91    1.92
   2  -4  11   63.40    1.79
  -2   4  11   67.50    2.08
   2   4 -10   19.62    0.86
   2  -4  10   19.09    0.74
  -2   4  10   19.01    0.91
   2   4  -9   46.41    1.44
   2  -4   9   42.27    1.27
  -2   4   9   45.09    1.51
   2   4  -8   16.52    0.75
   2  -4   8   17.63    0.65
  -2   4   8   17.09    0.80
   2   4  -8   15.32    0.58
   2   4  -7  133.62    3.42
   2   4  -7  138.45    3.44
   2   4  -7  134.52    3.16
  -2   4   7  138.10    3.47
   2  -4   7  132.42    3.23
   2   4  -6  147.25    3.59
  -2   4   6  140.92    3.58
   2  -4   6  141.76    3.39
   2   4  -5   68.04    1.88
  -2   4   5   61.17    1.82
   2  -4   5   62.97    1.69
  -2   4   5   69.98    1.75
   2   4  -4  158.84    3.83
   2  -4   4  152.65    3.63
  -2   4   4  153.78    3.66
   2   4  -3   39.39    0.96
   2   4  -3   41.94    1.29
   2  -4   3   39.90    1.12
  -2   4   3   37.14    1.11
   2   4  -2  464.11   10.34
   2   4  -2  456.08   10.20
  -2   4   2  448.43   10.15
   2   4  -1  140.88    3.48
   2   4  -1  139.77    3.34
  -2   4   1  137.82    3.33
   2   4   0 2081.80   44.93
  -2   4   0 2060.28   44.76
   2   4   0 2028.19   44.75
  -2   4  -1  138.00    3.71
   2   4   1  140.45    3.43
  -2   4  -1  139.01    3.29
   2   4   1  130.04    3.23
  -2  -4   2  459.59   10.19
  -2   4  -2  448.67   10.79
  -2   4  -2  456.02   10.37
   2   4   2  475.97   10.30
  -2   4  -3   42.52    1.53
   2   4   3   38.46    1.11
   2   4   3   40.10    1.13
  -2   4  -4  157.08    4.14
   2   4   4  156.98    3.65
   2   4   4  153.19    3.67
  -2   4  -5   61.78    2.09
   2   4   5   64.89    1.67
   2   4   5   64.52    1.70
  -2   4  -6  139.70    3.88
   2   4   6  143.99    3.54
  -2   4  -7  131.34    3.72
   2   4   7  135.34    3.37
  -2   4  -8   16.20    0.83
   2   4   8   17.75    0.66
  -2   4  -9   40.82    1.49
   2   4   9   44.49    1.27
  -2   4 -10   18.65    0.94
   2   4  10   19.34    0.74
  -2   4 -11   63.91    2.05
  -2   4 -11   67.91    2.11
   2   4  11   65.62    1.81
  -2   4 -12   85.45    2.64
  -2   4 -12   89.12    2.67
   2   4  12   91.82    2.40
  -2   4 -12   93.20    2.55
  -2   4 -13  158.75    4.31
  -2   4 -13  154.70    4.32
   2   4  13  160.88    4.02
  -2   4 -13  170.17    4.21
  -2  -4  13  173.66    4.40
  -2   4 -14   74.94    2.43
  -2   4 -14   74.54    2.45
   2   4  14   76.62    2.17
  -2   4 -14   80.14    2.34
  -2  -4  14   78.80    2.48
  -2   4 -15  208.79    5.40
  -2   4 -15  205.01    5.38
   2   4  15  200.70    5.04
  -2   4 -15  210.06    5.24
  -2  -4  15  213.03    5.40
  -2   4 -16  107.86    3.31
  -2   4 -16  108.61    3.33
   2   4  16  113.11    3.04
  -2   4 -16  114.55    3.21
  -2  -4  16  114.32    3.33
  -2   4 -17   69.25    2.38
  -2   4 -17   67.92    2.39
   2   4  17   69.28    2.12
  -2  -4  17   68.15    2.34
  -2   4 -17   65.82    2.24
  -2   4 -18   13.14    0.99
  -2   4 -18   12.40    0.96
   2   4  18   12.50    0.79
  -2  -4  18   14.15    0.96
  -2   4 -18   13.76    0.90
  -2   4 -19   16.82    1.14
  -2   4 -19   16.23    1.10
   2   4  19   18.07    0.97
  -2   4 -19   18.97    1.08
  -2  -4  19   14.49    1.03
  -2   4 -20    9.08    0.90
  -2   4 -20    9.63    0.91
   2   4  20    9.39    0.77
  -2   4 -20   10.31    0.84
  -2   4 -21   14.56    1.14
  -2   4 -21   14.75    1.14
   2   4  21   15.46    1.01
  -2   4 -22   17.12    1.27
  -2   4 -22   15.27    1.23
   2   4  22   16.95    1.09
  -2   4 -23   79.78    3.00
  -2   4 -23   79.68    3.02
   2   4  23   79.17    2.72
  -2   4 -24    7.08    0.96
  -2   4 -24    4.42    0.84
   2   4  24    5.67    0.78
  -2   4 -25   21.37    1.51
  -2   4 -25   25.01    1.63
   2   4  25   22.61    1.37
  -2   4 -26    1.54    0.70
   2   4  26    1.85    0.69
  -2   4 -27   14.69    1.34
   2   4  27   12.72    1.15
  -2   4 -28   23.30    1.76
   2  -4 -29   14.22    1.14
  -2   4 -29   18.71    1.57
   2  -4 -30    7.68    0.94
  -2   4 -30    9.35    1.32
  -2   4 -31    6.35    1.08
   2  -4 -31    7.41    0.91
  -2   4 -32    5.77    1.16
   2  -4 -32    7.72    0.92
  -2   4 -33    5.25    1.11
   2  -4 -33    4.91    0.85
  -2   4 -34    0.99    0.94
  -2   4 -35    3.83    1.06
  -2   4 -36    0.98    0.85
  -2   4 -37    2.75    0.98
  -2   4 -38    8.41    1.26
   2   5 -38    0.40    0.75
  -2  -5 -38    0.57    0.70
   2   5 -38    1.83    0.89
   2   5 -37    3.70    0.96
  -2  -5 -37    3.52    0.88
   2   5 -37    4.61    1.06
   2   5 -36    5.99    1.15
  -2  -5 -36    5.51    1.02
   2   5 -36    5.54    1.11
   2   5 -35    0.11    0.81
  -2  -5 -35   -0.44    0.78
   2   5 -35   -0.10    0.79
   2   5 -34    1.18    0.84
  -2  -5 -34    1.24    0.70
   2   5 -34    1.86    0.95
   2   5 -33   18.11    1.59
  -2  -5 -33   18.19    1.44
   2   5 -33   18.54    1.61
  -2  -5 -32   16.41    1.36
   2   5 -32   16.76    1.49
   2   5 -32   17.25    1.56
   2   5 -31    8.72    1.18
  -2  -5 -31    8.10    1.04
   2   5 -31    8.65    1.14
  -2  -5 -30    4.54    0.84
   2   5 -30    4.64    0.95
   2   5 -30    4.02    0.93
   2   5 -29   14.65    1.36
   2   5 -29   14.35    1.35
   2   5 -28    4.26    0.91
   2   5 -28    6.31    0.99
   2   5 -27   31.98    1.87
   2   5 -27   37.54    1.95
   2   5 -26    3.10    0.84
   2   5 -26    2.33    0.73
   2  -5  26    3.03    0.69
   2  -5  25    3.75    0.70
   2  -5  24    2.09    0.59
   2  -5  23    6.71    0.77
   2  -5  22    5.14    0.70
   2  -5  21    5.86    0.68
   2  -5  20    5.11    0.62
   2  -5  19    1.78    0.47
   2  -5  18   78.18    2.37
   2  -5  17  101.84    2.92
  -2  -5 -17  112.81    3.39
   2  -5  16   28.82    1.16
  -2  -5 -16   30.86    1.47
   2  -5  15   24.51    1.01
   2  -5  14   18.36    0.82
   2   5 -13   27.17    1.14
   2  -5  13   26.06    0.98
   2   5 -12   45.22    1.55
   2  -5  12   44.00    1.37
  -2   5  12   44.57    1.63
   2   5 -12   43.59    1.41
   2   5 -11  176.92    4.45
   2  -5  11  177.97    4.23
  -2   5  11  179.75    4.56
   2   5 -11  172.58    4.29
   2   5 -10   97.35    2.66
   2  -5  10   95.02    2.44
  -2   5  10   97.88    2.73
   2   5 -10   94.37    2.48
   2   5  -9  282.26    6.63
  -2   5   9  282.42    6.67
   2   5  -9  275.50    6.41
   2  -5   9  275.75    6.37
   2   5  -8  211.25    5.10
  -2   5   8  210.84    5.10
   2   5  -8  205.09    4.85
   2  -5   8  204.25    4.83
   2   5  -8  218.47    5.28
   2   5  -7  150.93    3.85
  -2   5   7  156.56    3.82
   2   5  -7  153.72    3.88
   2  -5   7  152.59    3.59
   2   5  -7  143.03    3.93
   2   5  -6  497.76   11.12
  -2   5   6  502.44   11.39
   2   5  -6  511.33   11.49
   2   5  -6  506.30   11.47
   2  -5   6  493.38   11.17
   2   5  -6  510.74   11.58
  -2   5   6  515.92   11.33
   2   5  -5  246.99    5.49
   2   5  -5  249.89    5.92
   2  -5   5  239.35    5.55
   2   5  -5  244.20    5.84
  -2   5   5  240.05    5.71
   2   5  -4   75.49    2.18
   2   5  -4   76.22    1.79
  -2   5   4   71.35    1.99
   2   5  -4   77.01    2.14
   2  -5   4   73.47    1.88
  -2   5   3   75.20    2.02
   2   5  -3   82.73    2.23
   2   5  -3   79.97    2.15
   2  -5   3   77.62    1.96
   2   5  -2  203.58    4.85
   2  -5   2  194.46    4.57
   2   5  -2  201.31    4.74
   2   5  -1  204.90    4.99
   2   5  -1  206.14    4.87
   2   5   0  452.66   10.27
   2   5   0  467.60   10.15
  -2   5  -1  209.81    5.36
   2   5   1  204.74    4.85
  -2   5  -2  198.07    5.16
  -2  -5   2  202.32    4.57
   2   5   2  195.30    4.52
   2   5   2  190.58    4.62
  -2  -5   3   79.30    1.94
  -2   5  -3   79.34    2.49
   2   5   3   76.39    1.94
   2   5   3   77.52    2.05
  -2   5  -4   73.15    1.74
  -2   5  -4   75.00    2.42
   2   5   4   73.60    1.85
   2   5   4   77.98    2.10
   2   5   4   72.25    1.96
  -2   5  -5  238.54    6.04
   2   5   5  233.05    5.39
  -2   5  -5  234.78    5.30
   2   5   5  236.42    5.52
   2   5   5  244.38    5.66
  -2   5  -6  471.21   11.56
   2   5   6  494.47   11.17
   2   5   6  496.02   11.05
   2   5   7  152.07    3.83
  -2   5  -8  212.50    4.86
   2   5   8  205.08    4.79
   2   5   8  200.74    5.02
   2   5   9  278.82    6.44
  -2   5  -9  285.27    6.52
  -2   5 -10   96.35    2.83
   2   5  10   95.18    2.44
  -2   5 -11  176.05    4.64
   2   5  11  176.39    4.23
  -2   5 -12   43.59    1.68
   2   5  12   44.54    1.38
  -2   5 -12   44.29    1.45
  -2   5 -13   27.19    1.27
   2   5  13   27.66    1.01
  -2  -5  13   27.28    1.22
  -2   5 -13   25.28    1.05
  -2   5 -14   18.83    1.08
   2   5  14   17.43    0.82
  -2   5 -14   18.09    0.88
  -2  -5  14   19.72    1.04
  -2   5 -15   24.27    1.26
  -2   5 -15   26.24    1.30
   2   5  15   25.24    1.04
  -2   5 -15   26.42    1.13
  -2  -5  15   25.89    1.23
  -2   5 -16   27.90    1.39
  -2   5 -16   30.26    1.45
   2   5  16   28.32    1.15
  -2  -5  16   28.86    1.33
  -2   5 -16   29.82    1.26
  -2   5 -17  102.57    3.28
  -2   5 -17  102.35    3.24
   2   5  17  102.57    2.88
  -2   5 -17  103.17    3.01
  -2  -5  17  102.81    3.12
  -2   5 -18   81.02    2.79
  -2   5 -18   81.17    2.82
   2   5  18   79.39    2.42
  -2  -5  18   81.66    2.67
  -2   5 -19    2.05    0.56
  -2   5 -19    1.52    0.54
   2   5  19    1.43    0.47
  -2  -5  19    0.91    0.46
  -2   5 -20    5.97    0.79
  -2   5 -20    3.81    0.65
   2   5  20    5.28    0.64
  -2   5 -21    5.98    0.82
   2   5  21    7.04    0.77
  -2   5 -22    5.05    0.81
  -2   5 -22    5.59    0.86
   2   5  22    6.21    0.72
  -2   5 -23    5.92    0.84
  -2   5 -23    6.52    0.93
   2   5  23    4.66    0.72
  -2   5 -24    1.67    0.66
  -2   5 -24    2.20    0.73
   2   5  24    1.39    0.59
  -2   5 -25    5.79    0.95
   2   5  25    5.57    0.79
  -2   5 -26    3.74    0.87
   2   5  26    3.04    0.73
  -2   5 -27   40.45    2.25
  -2   5 -28    4.53    0.99
   2  -5 -28    4.66    0.72
   2  -5 -29   18.53    1.20
  -2   5 -29   16.73    1.58
  -2   5 -30    3.31    0.98
   2  -5 -30    3.32    0.69
  -2   5 -31    7.44    1.22
   2  -5 -31    8.69    0.94
  -2   5 -32   16.78    1.64
  -2   5 -33   16.15    1.64
  -2   5 -34    0.51    0.90
  -2   5 -35   -0.38    0.96
  -2   5 -36    5.44    1.19
   2   6 -38    5.11    1.06
   2   6 -37    0.90    0.82
   2   6 -37    1.21    0.87
  -2  -6 -37    0.16    0.70
   2   6 -37    0.12    0.81
   2   6 -36    5.16    1.07
  -2  -6 -36    4.08    0.87
   2   6 -36    4.40    1.05
   2   6 -35    0.32    0.79
  -2  -6 -35    0.58    0.67
   2   6 -35    1.64    0.87
   2   6 -34    2.23    0.88
  -2  -6 -34    3.40    0.83
   2   6 -34    1.77    0.87
  -2  -6 -33    4.38    0.86
   2   6 -33    4.14    1.00
   2   6 -33    5.30    1.02
   2   6 -32    3.68    0.96
  -2  -6 -32    2.61    0.81
   2   6 -32    4.33    0.98
  -2  -6 -31    4.25    0.89
   2   6 -31    5.77    1.06
   2   6 -30    6.62    1.08
   2   6 -30    8.37    1.15
   2   6 -29    4.57    0.96
   2   6 -29    3.69    0.98
   2   6 -28    0.36    0.76
   2   6 -28    2.74    0.84
   2   6 -27    4.63    0.97
   2   6 -27    5.63    0.91
   2   6 -26   40.70    2.03
   2   6 -25   23.95    1.55
   2  -6  25   29.11    1.49
   2   6 -24    1.53    0.60
   2  -6  24    1.18    0.57
   2   6 -23   10.09    0.96
   2  -6  23    8.76    0.85
   2   6 -22   29.40    1.53
   2  -6  22   27.39    1.36
   2   6 -21   10.78    0.89
   2  -6  21   12.34    0.90
   2   6 -20   21.10    1.17
   2  -6  20   18.99    1.09
   2   6 -20   17.05    1.02
   2   6 -19   -0.05    0.39
   2  -6  19    0.29    0.40
   2   6 -19   -0.14    0.36
   2   6 -18   27.66    1.30
   2  -6  18   27.19    1.20
   2   6 -18   29.43    1.26
  -2  -6 -17   42.15    1.79
   2   6 -17   39.62    1.49
   2  -6  16    6.71    0.59
  -2  -6 -16    8.79    0.83
   2   6 -16    8.62    0.62
   2  -6  15   62.98    1.91
   2   6 -15   64.24    2.01
   2   6 -14   33.57    1.27
   2  -6  14   33.39    1.18
   2   6 -14   32.74    1.25
   2   6 -13  229.30    5.50
   2   6 -13  227.49    5.70
   2  -6  13  225.37    5.39
   2   6 -13  224.22    5.50
   2   6 -12  201.09    4.90
   2   6 -12  207.04    5.12
   2  -6  12  201.87    4.81
   2   6 -12  197.58    4.91
   2   6 -11   44.44    1.38
   2   6 -11   45.11    1.56
   2  -6  11   40.89    1.30
   2   6 -11   42.73    1.39
   2   6 -10  670.05   15.21
   2   6 -10  690.85   14.97
   2  -6  10  659.56   14.88
   2   6 -10  663.68   15.00
   2   6  -9   95.81    2.43
   2   6  -9   95.30    2.68
   2  -6   9   91.92    2.36
  -2   6   9   95.26    2.64
   2   6  -9   94.45    2.48
   2   6  -8  104.86    2.61
   2   6  -8  106.58    2.89
   2  -6   8  102.77    2.57
  -2   6   8  105.89    2.82
   2   6  -7   82.15    2.34
   2   6  -7   81.14    2.05
  -2   6   7   79.56    2.23
   2  -6   7   78.40    2.01
   2   6  -6  212.31    5.19
   2   6  -6  209.65    4.86
   2   6  -6  213.26    5.24
  -2   6   6  210.78    5.05
   2  -6   6  211.55    4.85
  -2   6   6  214.50    5.11
   2   6  -5   34.96    1.01
   2   6  -5   37.26    1.33
   2   6  -5   37.32    1.30
  -2   6   5   36.78    1.15
   2  -6   5   34.53    1.01
  -2   6   5   37.91    1.23
   2   6  -4  171.76    4.38
  -2   6   4  176.36    4.13
   2  -6   4  173.14    4.01
   2   6  -4  179.71    4.37
  -2   6   4  169.22    4.23
   2   6  -3  188.00    4.86
   2   6  -3  194.88    4.85
  -2   6   3  199.30    4.55
   2  -6   3  195.64    4.47
   2   6  -3  199.34    4.80
  -2   6   3  190.11    4.69
   2   6  -2  216.94    5.42
   2  -6   2  223.51    5.75
  -2   6   2  222.51    5.08
   2  -6   2  224.64    5.06
   2   6  -2  216.03    5.34
  -2   6   2  225.86    5.31
   2  -6   1  185.05    4.91
  -2   6   1  185.70    4.21
   2   6  -1  179.81    4.50
  -2   6   1  185.19    4.50
   2  -6   0   98.30    2.97
  -2   6   0   95.67    2.27
   2   6   0   95.39    2.57
  -2   6   0  100.06    2.60
   2  -6  -1  178.08    4.80
  -2  -6   1  185.88    4.36
  -2   6  -1  169.60    3.98
   2   6   1  178.46    4.11
  -2   6  -1  180.88    4.39
   2   6   1  182.60    4.35
  -2   6  -1  181.95    3.96
   2  -6  -2  227.93    5.84
  -2  -6   2  224.85    5.28
  -2   6  -2  228.46    5.87
   2   6   2  222.67    5.09
  -2   6  -2  226.24    5.41
   2   6   2  224.66    5.45
  -2   6  -2  227.53    4.97
   2   6   2  206.60    5.29
  -2   6  -3  195.73    5.20
   2  -6  -3  184.28    5.14
  -2  -6   3  190.58    4.57
  -2   6  -3  197.88    4.77
   2   6   3  194.97    4.43
   2   6   3  201.48    4.80
   2   6   3  187.37    4.64
  -2   6  -4  167.12    4.73
  -2   6  -4  177.60    4.36
   2   6   4  173.81    4.01
   2   6   4  180.70    4.37
   2   6   4  168.80    4.21
  -2   6  -5   33.14    0.95
  -2   6  -5   35.57    0.90
   2   6   5   33.69    0.99
   2   6   5   35.23    1.26
   2   6   5   33.35    1.15
  -2   6  -6  218.07    4.79
   2   6   6  217.24    5.20
  -2   6  -6  208.63    4.84
  -2   6  -7   80.02    1.97
   2   6   7   79.11    2.30
  -2   6  -7   79.61    2.03
  -2   6  -8  105.76    2.55
   2   6   8  102.87    2.56
   2   6   8  102.96    2.86
   2   6   9   94.67    2.38
  -2   6  -9   94.88    2.40
   2   6  10  684.49   15.11
  -2   6 -10  698.93   15.15
   2   6  11   43.01    1.31
  -2   6 -11   42.49    1.83
   2   6  12  203.34    4.89
  -2   6 -12  202.08    5.62
  -2  -6  12  212.53    5.25
   2   6  13  225.96    5.39
  -2  -6  13  228.50    5.74
  -2   6 -13  226.79    5.47
  -2   6 -13  223.79    6.14
  -2   6 -14   27.84    1.44
   2   6  14   30.71    1.14
  -2   6 -14   33.13    1.65
  -2  -6  14   34.37    1.39
  -2   6 -15   65.63    2.39
   2   6  15   63.77    1.95
  -2  -6  15   67.69    2.21
  -2   6 -15   67.10    2.58
  -2   6 -16    6.07    0.76
   2   6  16    7.35    0.58
  -2  -6  16    7.86    0.71
  -2   6 -17   34.43    1.70
   2   6  17   36.49    1.36
  -2  -6  17   36.72    1.55
  -2   6 -18   28.48    1.55
   2   6  18   26.40    1.18
  -2  -6  18   27.36    1.33
  -2   6 -19    0.22    0.50
   2   6  19   -0.17    0.42
  -2  -6  19    0.28    0.42
  -2   6 -20   17.03    1.28
  -2   6 -20   17.89    1.26
   2   6  20   18.11    1.05
  -2   6 -21   11.41    1.08
  -2   6 -21   12.32    1.10
   2   6  21   12.84    0.92
  -2   6 -22   28.97    1.65
  -2   6 -22   29.50    1.73
   2   6  22   25.68    1.34
  -2   6 -23    8.31    1.03
   2   6  23    8.34    0.83
  -2   6 -24    0.68    0.70
   2   6  24    0.59    0.55
  -2   6 -25   28.04    1.82
   2   6  25   24.60    1.42
  -2   6 -26   43.41    2.35
  -2   6 -27    5.56    1.07
   2  -6 -27    6.16    0.75
   2  -6 -28    1.17    0.54
  -2   6 -28    0.58    0.80
  -2   6 -29    4.33    1.02
  -2   6 -30    6.31    1.16
  -2   6 -31    3.66    1.04
  -2   6 -32    3.72    1.09
  -2   6 -33    5.67    1.28
   2   7 -37   -1.17    0.90
   2   7 -37    0.99    0.85
   2   7 -37    0.45    0.74
   2   7 -36    6.22    1.11
   2   7 -36    6.04    1.11
   2   7 -36    5.09    1.13
   2   7 -35   -0.51    0.77
  -2  -7 -35    0.77    0.68
   2   7 -35    0.12    0.92
   2   7 -35   -0.10    0.83
   2   7 -34    3.65    0.97
   2   7 -34    4.28    1.11
  -2  -7 -34    3.73    0.86
   2   7 -34    5.37    1.06
   2   7 -33    2.40    0.90
  -2  -7 -33    2.42    0.80
   2   7 -33    3.13    0.96
   2   7 -32   -0.62    0.80
  -2  -7 -32    0.77    0.68
   2   7 -32    0.62    0.89
  -2  -7 -31   11.04    1.13
   2   7 -31   12.80    1.33
   2   7 -30    1.40    0.82
   2   7 -29    7.13    1.05
   2   7 -28    3.00    0.86
   2   7 -27    2.77    0.82
   2   7 -26    7.25    0.98
   2   7 -25    3.07    0.76
   2   7 -24   11.32    1.06
   2  -7  24   10.38    0.93
   2   7 -23   15.68    1.16
   2  -7  23   12.42    0.97
   2   7 -22    0.87    0.53
   2  -7  22    0.05    0.50
   2   7 -21    4.26    0.67
   2  -7  21    2.59    0.55
   2   7 -20    1.82    0.54
   2  -7  20    2.44    0.53
   2   7 -19    1.90    0.53
   2  -7  19    1.46    0.52
   2   7 -19    1.46    0.40
   2   7 -18   40.89    1.64
   2  -7  18   37.42    1.48
   2   7 -18   38.90    1.52
   2   7 -17   55.24    1.98
   2  -7  17   58.48    1.85
   2   7 -17   54.30    1.89
   2   7 -16    5.19    0.57
   2  -7  16    3.96    0.49
   2   7 -16    5.02    0.51
  -2  -7 -16    5.27    0.69
   2   7 -15   43.58    1.62
   2  -7  15   44.70    1.48
  -2  -7 -15   49.14    1.90
   2   7 -15   42.91    1.56
   2   7 -14   11.67    0.73
   2  -7  14   11.74    0.64
   2   7 -14   11.09    0.69
   2   7 -13    1.08    0.34
   2  -7  13    0.44    0.28
   2   7 -13    0.61    0.28
   2   7 -12   13.77    0.73
   2   7 -12   12.83    0.82
   2  -7  12   13.56    0.64
   2   7 -12   12.65    0.70
   2   7 -11   77.58    2.37
   2   7 -11   78.79    2.17
   2  -7  11   73.08    2.02
   2   7 -11   76.40    2.19
   2   7 -10   15.22    0.70
   2   7 -10   13.32    0.82
   2  -7  10   13.45    0.60
   2   7  -9   10.41    0.70
   2   7  -9    9.63    0.53
   2  -7   9    9.98    0.48
   2   7  -8   18.64    0.93
   2   7  -8   19.09    0.75
   2  -7   8   18.35    0.66
   2   7  -7    9.56    0.48
   2   7  -7    9.34    0.65
   2  -7   7    9.80    0.43
  -2   7   7   10.03    0.63
   2   7  -6    7.69    0.60
   2  -7   6    7.88    0.37
  -2   7   6    7.61    0.54
   2   7  -5   63.82    2.01
   2  -7   5   62.09    1.57
   2   7  -5   62.01    1.99
  -2   7   5   61.14    1.88
   2   7  -4   16.27    0.86
   2   7  -4   18.22    0.89
   2  -7   4   17.09    0.57
  -2   7   4   16.77    0.79
   2  -7   3   11.97    0.45
   2   7  -3   12.01    0.71
  -2   7   3   12.29    0.67
   2  -7   2    3.45    0.47
   2   7  -2    4.10    0.44
   2  -7   2    2.98    0.23
  -2   7   2    3.38    0.38
   2  -7   1   53.42    2.04
   2  -7   1   54.74    1.41
   2   7  -1   53.53    1.73
  -2   7   1   55.97    1.74
   2  -7   0  143.81    4.03
   2   7   0  134.03    3.21
   2   7   0  144.19    3.61
  -2   7   0  139.33    3.60
   2  -7  -1   56.03    2.09
  -2  -7   1   56.47    1.74
   2   7   1   54.94    1.42
  -2   7  -1   55.99    1.36
  -2   7  -1   56.04    1.78
   2   7   1   54.12    1.72
   2   7   2    3.92    0.44
  -2  -7   2    3.32    0.36
   2  -7  -2    3.55    0.51
   2   7   2    3.77    0.24
  -2   7  -2    4.00    0.43
  -2   7  -2    3.67    0.21
   2   7   2    3.56    0.38
   2   7   3   11.51    0.71
   2  -7  -3   10.58    0.84
  -2  -7   3   10.91    0.58
  -2   7  -3   11.83    0.69
   2   7   3   11.09    0.43
  -2   7  -3   11.59    0.41
   2   7   3   10.19    0.62
   2   7   4   17.68    0.90
   2  -7  -4   17.61    1.09
   2   7   4   17.33    0.58
  -2   7  -4   17.05    0.87
   2   7   4   18.74    0.82
   2   7   5   62.83    2.01
   2  -7  -5   57.18    2.26
   2   7   5   62.72    1.56
  -2   7  -5   60.83    1.98
   2   7   5   61.08    1.85
  -2   7  -6    7.67    0.39
   2   7   6    6.85    0.52
  -2   7  -7    9.66    0.46
   2   7   7    9.23    0.61
  -2   7  -8   22.31    1.24
   2   7   8   17.27    0.64
   2   7   8   19.03    0.93
  -2   7  -8   18.88    0.72
   2   7   9    9.93    0.48
  -2   7  -9    8.99    0.84
   2   7  10   13.90    0.60
  -2   7 -10   14.11    1.02
   2   7  11   74.20    1.99
  -2   7 -11   76.06    2.71
   2   7  12   13.98    0.66
  -2  -7  12   13.99    0.82
  -2   7 -12   14.75    1.10
   2   7  13    0.76    0.31
  -2  -7  13    0.98    0.38
  -2   7 -13    0.66    0.41
   2   7  14   12.84    0.68
  -2  -7  14   11.37    0.78
  -2   7 -14   11.89    1.00
   2   7  15   43.82    1.49
  -2  -7  15   47.02    1.72
  -2   7 -15   47.20    2.10
   2   7  16    4.18    0.48
  -2  -7  16    4.45    0.58
  -2   7 -16    4.07    0.72
   2   7  17   57.08    1.85
  -2  -7  17   53.52    1.98
   2   7  18   37.86    1.49
  -2  -7  18   41.35    1.66
   2   7  19    2.93    0.52
  -2  -7  19    1.83    0.48
   2   7  20    0.96    0.48
   2   7  21    3.05    0.59
   2   7  22   -0.05    0.47
   2   7  23   12.41    0.96
   2   7  24   10.45    0.93
   2   8 -36    0.29    0.79
   2   8 -36    0.79    0.81
   2   8 -35    9.72    1.21
   2   8 -35    7.06    1.27
   2   8 -34    2.75    0.90
   2   8 -34    3.28    1.01
   2   8 -33    2.26    0.88
   2   8 -33    2.11    1.03
  -2  -8 -33    3.26    0.74
   2   8 -32    1.64    0.83
  -2  -8 -32    0.80    0.67
   2   8 -32    1.76    0.92
   2   8 -31    4.57    1.00
   2   8 -31    2.90    1.00
  -2  -8 -31    3.67    0.78
   2   8 -30   11.19    1.28
   2   8 -30    9.93    1.35
   2   8 -29    6.63    1.06
   2   8 -29    4.97    1.11
   2   8 -29    3.96    1.02
   2   8 -28    1.04    0.75
   2   8 -28    1.06    0.82
   2   8 -27   10.73    1.18
   2   8 -27    9.20    1.17
   2   8 -26    1.92    0.72
   2   8 -26    1.67    0.77
   2   8 -25   11.96    1.16
   2   8 -25    8.47    1.04
   2   8 -24    5.18    0.87
   2   8 -24    4.98    0.83
   2   8 -23    1.06    0.64
   2   8 -23    1.13    0.65
   2  -8  23    1.27    0.51
   2   8 -22   29.81    1.62
   2   8 -22   26.44    1.53
   2  -8  22   29.32    1.38
   2   8 -21    3.39    0.68
   2  -8  21    1.41    0.53
   2   8 -20    3.36    0.64
   2  -8  20    4.64    0.60
   2   8 -19    1.86    0.54
   2  -8  19    2.45    0.49
   2   8 -18    4.01    0.62
   2   8 -18    4.74    0.81
   2  -8  18    5.08    0.57
   2   8 -17   20.17    1.12
   2   8 -17   19.01    0.99
   2  -8  17   21.22    1.02
   2   8 -17   19.03    1.33
   2   8 -16   59.80    2.03
   2   8 -16   54.54    1.90
   2  -8  16   57.55    1.82
   2   8 -16   57.18    2.38
   2   8 -15   24.95    1.17
  -2  -8 -15   26.98    1.38
   2   8 -15   23.77    1.09
   2  -8  15   23.66    1.01
   2   8 -15   25.80    1.48
   2   8 -14   14.27    0.83
   2   8 -14   13.81    0.79
   2  -8  14   13.71    0.70
   2   8 -14   14.60    1.09
   2   8 -13   68.92    2.10
   2   8 -13   67.76    2.08
   2  -8  13   63.72    1.88
   2   8 -13   69.09    2.51
   2   8 -12  184.18    4.76
   2   8 -12  179.59    4.50
   2  -8  12  175.48    4.28
   2   8 -12  175.10    4.98
   2   8 -11   91.64    2.57
   2  -8  11   93.26    2.39
   2   8 -11   86.45    2.97
   2   8 -10   55.49    2.08
   2   8 -10   53.28    1.88
   2   8 -10   53.84    1.67
   2  -8  10   54.00    1.50
   2   8  -9  102.15    2.71
   2   8  -9  106.21    3.00
   2  -8   9  101.51    2.53
   2   8  -8    1.59    0.42
   2  -8   8    1.44    0.23
  -2   8   8    1.33    0.39
   2  -8   7  141.54    3.32
  -2   8   7  141.94    3.77
   2   8  -6   60.41    2.04
   2  -8   6   60.51    1.53
   2   8  -6   61.60    2.08
  -2   8   6   59.29    1.92
   2  -8   5   86.42    2.05
   2   8  -5   81.22    2.57
  -2   8   5   82.64    2.46
   2   8  -4  246.43    5.89
   2   8  -4  239.83    5.98
   2  -8   4  236.82    5.36
  -2   8   4  238.32    5.85
   2   8  -3  269.66    6.31
   2   8  -3  252.40    6.36
   2  -8   3  258.85    5.76
  -2   8   3  247.59    6.25
   2  -8   2   86.31    2.88
   2   8  -2   93.93    2.56
   2   8  -2   82.36    2.56
   2  -8   2   86.17    2.05
  -2   8   2   85.42    2.52
   2   8  -1  107.53    2.96
   2  -8   1  110.07    3.40
   2   8  -1  102.60    2.52
   2  -8   1  110.79    2.51
   2   8  -1  106.75    3.03
  -2   8   1  110.23    3.02
  -2  -8   0  598.95   13.26
   2   8   0  593.07   13.29
   2  -8   0  577.61   13.69
   2   8   0  583.34   12.64
   2  -8   0  574.07   12.66
  -2   8   0  562.21   12.66
  -2   8   0  589.18   13.22
   2   8   0  550.05   13.18
   2   8   1  113.43    3.15
  -2  -8   1  106.25    3.01
   2  -8  -1  115.60    3.51
   2   8   1  109.46    2.55
  -2   8  -1  110.78    2.59
  -2   8  -1  112.53    3.11
   2   8   1  107.00    3.04
   2   8   2   86.03    2.60
   2  -8  -2   84.89    2.92
  -2  -8   2   88.16    2.47
   2   8   2   85.72    2.04
  -2   8  -2   85.94    2.57
  -2   8  -2   86.73    2.09
   2   8   2   87.02    2.51
   2  -8  -3  268.91    6.88
  -2  -8   3  268.14    6.24
   2   8   3  262.79    6.43
  -2   8  -3  255.58    6.41
   2   8   3  262.22    5.80
  -2   8  -3  262.89    5.87
   2  -8  -4  248.02    6.53
   2   8   4  237.02    6.06
   2   8   4  242.76    5.46
  -2   8  -4  248.00    6.10
  -2   8  -4  244.43    5.53
   2   8   4  242.60    5.93
   2  -8  -5   83.76    2.94
   2   8   5   88.54    2.61
  -2   8  -5   81.46    2.57
   2   8   5   85.13    2.03
   2   8   5   79.69    2.41
   2   8   6   60.16    2.04
  -2   8  -6   58.88    2.32
   2  -8  -6   58.88    2.35
   2   8   6   61.99    1.53
  -2   8  -6   57.14    2.02
   2   8   6   58.15    1.90
   2   8   7  139.94    3.84
  -2   8  -7  147.49    4.27
  -2   8  -7  140.92    3.39
   2   8   7  132.55    3.68
  -2   8  -8    1.33    0.49
   2   8   8    1.17    0.22
   2   8   8    1.56    0.38
  -2   8  -9  101.59    2.66
  -2   8  -9   97.98    3.34
   2   8   9  103.86    2.53
  -2   8 -10   55.79    2.25
   2   8  10   53.49    1.49
  -2   8 -10   51.69    1.61
  -2   8 -11   90.26    3.18
   2   8  11   93.92    2.39
  -2   8 -11   90.94    2.53
  -2  -8  12  189.96    4.73
  -2   8 -12  186.43    5.34
   2   8  12  181.69    4.39
  -2   8 -12  178.10    4.56
   2   8  13   66.42    1.91
  -2  -8  13   69.97    2.19
  -2   8 -13   66.27    2.63
   2   8  14   13.52    0.71
  -2  -8  14   15.63    0.89
  -2   8 -14   12.52    1.08
   2   8  15   24.11    1.01
  -2  -8  15   24.51    1.17
  -2   8 -15   24.07    1.50
   2   8  16   59.37    1.88
  -2  -8  16   60.71    2.08
   2   8  17   20.87    1.01
  -2  -8  17   17.77    1.03
   2   8  18    4.13    0.56
  -2  -8  18    4.47    0.61
   2   8  19    1.85    0.46
   2   8  20    3.80    0.56
   2   8  21    2.74    0.55
   2   8  22   29.81    1.40
   2   9 -36    0.64    0.80
   2   9 -35    2.33    0.91
   2   9 -35    2.59    0.92
   2   9 -34   -0.29    0.82
   2   9 -34    0.73    0.89
   2   9 -34    0.94    0.83
   2   9 -33    1.70    0.85
   2   9 -33    0.94    0.87
   2   9 -33    0.96    0.87
   2   9 -32    3.63    0.98
   2   9 -32    3.42    1.05
   2   9 -32    5.14    1.05
   2   9 -31   -0.10    0.77
   2   9 -31    0.61    0.80
   2   9 -31    0.86    0.86
   2   9 -30    4.46    0.98
   2   9 -30    6.04    1.19
   2   9 -30    3.85    0.98
   2   9 -29    5.25    0.99
   2   9 -29    3.56    1.04
   2   9 -29    5.28    1.01
   2   9 -28   25.62    1.76
   2   9 -28   23.52    1.66
   2   9 -28   21.46    1.80
   2   9 -27    7.05    1.03
   2   9 -27    6.31    1.11
   2   9 -27    6.02    1.08
   2   9 -26   13.92    1.27
   2   9 -26   14.27    1.33
   2   9 -26   13.61    1.43
   2   9 -25   13.59    1.21
   2   9 -25   10.86    1.22
   2   9 -25   13.24    1.41
   2   9 -24   22.77    1.48
   2   9 -24   20.51    1.47
   2   9 -24   19.75    1.64
   2   9 -23    9.15    1.04
   2   9 -23    9.86    1.21
   2   9 -23   12.34    1.10
   2   9 -22   15.59    1.25
   2   9 -22   18.09    1.28
   2   9 -22   17.90    1.48
   2   9 -21    4.38    0.76
   2   9 -21    4.11    0.73
   2   9 -21    3.44    0.87
   2   9 -20   70.42    2.56
   2   9 -20   67.46    2.50
   2  -9  20   66.37    2.20
   2   9 -20   64.41    2.85
   2   9 -19   38.76    1.76
   2   9 -19   36.78    1.68
   2  -9  19   36.16    1.43
   2   9 -19   35.10    1.97
   2   9 -18   19.31    1.15
   2  -9  18   18.07    0.95
   2   9 -18   16.66    1.34
   2   9 -17    8.63    0.81
   2  -9  17    9.55    0.69
   2   9 -17   11.14    1.08
   2   9 -16   62.12    2.17
   2  -9  16   62.83    1.93
   2   9 -16   62.20    2.57
   2   9 -15  128.24    3.66
   2  -9  15  133.86    3.43
   2   9 -15  130.06    4.16
   2   9 -14   55.28    1.96
   2  -9  14   57.48    1.75
   2   9 -14   59.53    2.39
   2   9 -13    7.81    0.87
   2   9 -13    8.90    0.68
   2  -9  13   10.04    0.57
   2   9 -12  119.63    3.26
   2   9 -12  122.84    3.77
   2  -9  12  117.74    2.99
   2   9 -11   21.28    1.14
   2   9 -11   20.92    1.27
   2  -9  11   22.29    0.80
   2   9 -10   15.12    1.04
   2   9 -10   13.40    0.90
   2  -9  10   13.09    0.57
   2   9  -9  117.37    3.63
   2  -9   9  122.08    2.92
   2   9  -8  114.30    3.50
   2  -9   8  119.09    2.79
   2   9  -8  107.99    3.45
  -2   9   8  116.30    3.32
   2   9  -7  102.56    3.13
   2   9  -7   98.75    3.08
   2  -9   7   99.26    2.38
  -2   9   7   96.10    2.90
   2   9  -6  121.81    3.62
   2   9  -6  120.41    3.56
   2  -9   6  122.62    2.86
  -2   9   6  126.41    3.45
   2   9  -5  380.26    8.91
   2  -9   5  370.12    8.27
   2   9  -5  389.56    9.10
  -2   9   5  374.25    8.90
   2   9  -4   40.25    1.52
   2  -9   4   40.08    1.02
   2   9  -4   39.82    1.62
  -2   9   4   40.93    1.54
   2   9  -3  171.09    4.44
   2   9  -3  172.69    4.60
  -2   9   3  170.07    4.48
   2   9  -2    9.02    0.67
   2   9  -2    7.45    0.69
   2  -9   2    6.66    0.74
   2   9  -2    7.72    0.31
   2   9  -2    8.51    0.72
  -2   9   2    6.28    0.60
   2   9  -1   83.74    2.48
  -2  -9  -1   89.13    2.67
   2   9  -1   88.69    2.64
   2  -9   1   82.61    2.90
   2   9  -1   83.35    1.94
   2   9  -1   82.76    2.58
  -2   9   1   79.87    2.53
   2   9   0    2.88    0.18
  -2  -9   0    2.22    0.42
   2   9   0    2.55    0.43
   2   9   0    3.01    0.47
   2  -9   0    3.05    0.56
   2   9   0    3.07    0.17
   2   9   0    2.03    0.46
  -2   9   0    2.13    0.24
  -2   9   0    2.30    0.46
   2   9   0    3.13    0.50
  -2  -9   1   83.55    2.51
   2   9   1   81.53    2.41
   2   9   1   83.31    2.58
   2  -9  -1   78.03    2.86
   2   9   1   84.85    1.90
  -2   9  -1   80.45    2.03
   2   9   1   81.66    2.55
   2   9   1   74.13    2.46
  -2   9  -1   82.58    2.57
   2  -9  -2    6.44    0.76
  -2  -9   2    7.85    0.60
   2   9   2    6.91    0.65
   2   9   2    7.65    0.28
   2   9   2    6.25    0.62
  -2   9  -2    6.66    0.64
   2   9   2    7.25    0.61
  -2   9  -2    7.18    0.37
  -2  -9   3  180.40    4.50
   2  -9  -3  177.55    5.10
   2   9   3  176.73    4.67
  -2   9  -3  175.84    4.70
   2   9   3  177.46    3.94
   2   9   3  173.49    4.56
  -2   9  -3  171.39    4.09
   2  -9  -4   44.57    1.96
   2   9   4   37.67    1.57
   2   9   4   40.39    1.03
  -2   9  -4   42.21    1.66
  -2   9  -4   41.47    1.17
   2   9   4   38.48    1.51
   2  -9  -5  377.71    9.62
   2   9   5  370.15    9.08
   2   9   5  379.53    8.37
  -2   9  -5  357.94    9.13
   2   9   5  399.08    9.01
   2  -9  -6  119.57    3.92
   2   9   6  117.94    3.48
  -2   9  -6  120.58    3.56
   2   9   6  125.36    2.85
   2   9   6  114.11    3.34
  -2   9  -7  101.96    3.40
   2  -9  -7   95.71    3.39
   2   9   7   98.88    2.98
  -2   9  -7   99.30    3.06
   2   9   7   94.69    2.85
  -2   9  -8  112.93    2.92
   2  -9  -8  117.17    3.84
  -2   9  -8  111.65    3.74
   2   9   8  116.03    3.38
  -2   9  -8  116.25    3.49
   2   9   8  117.71    3.28
  -2   9  -9  117.25    3.08
   2   9   9  123.49    2.91
  -2   9  -9  119.43    3.91
   2   9   9  117.95    3.49
  -2   9 -10   13.91    0.70
   2   9  10   13.06    0.58
   2   9  10   15.51    0.97
  -2   9 -10   14.82    1.13
  -2   9 -11   21.78    0.94
  -2   9 -11   23.24    1.43
  -2  -9  11   23.40    1.04
   2   9  11   22.18    0.81
  -2  -9  12  124.76    3.32
  -2   9 -12  119.45    3.94
   2   9  12  117.95    3.00
  -2   9 -12  118.70    3.20
  -2   9 -13    8.16    0.92
  -2  -9  13    9.47    0.67
   2   9  13    8.89    0.55
  -2   9 -13    7.97    0.63
  -2  -9  14   59.29    1.98
   2   9  14   60.99    1.79
  -2   9 -14   55.01    1.90
  -2  -9  15  129.22    3.61
   2   9  15  135.96    3.44
  -2   9 -15  127.87    3.61
   2   9  16   59.65    1.88
  -2   9 -16   62.84    2.12
   2   9  17    8.96    0.66
   2   9  18   18.45    0.95
   2   9  19   34.58    1.40
   2   9  20   62.56    2.11
  -2   9 -31    0.17    0.67
  -2   9 -32    3.62    0.83
  -2   9 -33    3.19    0.78
   2  10 -35    0.98    0.89
   2  10 -35    0.74    0.81
   2  10 -34    1.71    0.92
   2  10 -34    1.88    0.85
   2  10 -33    1.33    0.94
   2  10 -33    1.38    0.85
   2  10 -32    1.55    0.93
   2  10 -32    2.60    1.00
   2  10 -31    0.10    0.80
   2  10 -31   -0.12    0.87
   2  10 -30   13.19    1.36
   2  10 -30   12.75    1.48
   2  10 -30   14.76    1.44
   2  10 -29    5.49    0.94
   2  10 -29    4.75    1.01
   2  10 -29    2.91    0.99
   2  10 -28   15.23    1.41
   2  10 -28   11.46    1.26
   2  10 -28   12.07    1.43
   2  10 -27   28.91    1.80
   2  10 -27   30.85    1.89
   2  10 -27   29.37    2.07
   2  10 -26    9.85    1.17
   2  10 -26   10.98    1.19
   2  10 -26   12.79    1.39
   2  10 -25    9.76    1.27
   2  10 -25   10.04    1.16
   2  10 -25   10.62    1.15
   2  10 -24    9.96    1.11
   2  10 -24    9.40    1.27
   2  10 -24   11.55    1.20
   2  10 -23    5.84    0.88
   2  10 -23    4.25    0.84
   2  10 -23    3.37    0.94
   2  10 -22   44.56    2.05
   2  10 -22   44.64    2.08
   2  10 -22   40.04    2.28
   2  10 -21    0.36    0.58
   2  10 -21    1.02    0.76
   2  10 -21    0.36    0.59
   2  10 -20   20.90    1.33
   2  10 -20   22.40    1.62
   2  10 -19    5.83    0.75
   2  10 -19    4.27    0.68
   2  10 -19    5.10    0.90
   2  10 -18    1.62    0.57
   2  10 -18    1.43    0.56
   2  10 -18    2.82    0.77
   2  10 -17   12.95    0.96
   2  10 -17   12.21    0.94
   2 -10  17   11.88    0.73
   2  10 -17   15.08    1.27
   2  10 -16   26.89    1.34
   2  10 -16   29.97    1.72
   2  10 -16   23.44    1.26
   2 -10  16   28.20    1.09
   2  10 -15   77.96    2.60
   2  10 -15   82.18    3.05
   2 -10  15   82.74    2.28
   2  10 -14   40.02    1.58
   2  10 -14   39.17    1.92
   2 -10  14   37.88    1.28
   2  10 -13   64.29    2.54
   2 -10  13   62.22    1.79
  -2 -10 -13   67.46    2.32
   2  10 -12    8.28    0.89
   2 -10  12    8.19    0.50
   2  10 -11   88.52    3.14
   2 -10  11   96.58    2.42
   2  10 -10  103.05    3.38
   2  10 -10  107.31    3.44
   2  10  -9    0.90    0.50
   2  10  -9    2.40    0.59
   2  10  -8   20.89    1.22
   2  10  -8   17.70    1.17
  -2  10   8   19.88    1.11
   2  10  -7   15.42    0.96
   2  10  -7   15.09    1.06
  -2  10   7   15.62    0.96
   2  10  -6   88.79    2.72
   2  10  -6   86.96    2.88
  -2  10   6   89.11    2.76
   2  10  -5   26.96    0.90
   2  10  -5   25.95    1.21
   2  10  -5   22.75    1.27
  -2  10   5   24.91    1.22
   2  10  -4   15.24    0.61
   2  10  -4   17.26    0.94
   2  10  -4   16.07    0.99
   2  10  -4   16.71    1.05
  -2  10   4   16.70    0.98
   2  10  -3   61.22    2.13
   2  10  -3   60.50    1.56
   2  10  -3   57.88    2.00
   2  10  -3   57.42    2.15
  -2  10   3   59.08    2.07
  -2 -10  -2   55.41    2.09
   2 -10   2   56.95    2.31
   2  10  -2   57.50    2.05
   2  10  -2   57.67    1.94
   2  10  -2   57.99    1.46
   2  10  -2   54.34    2.05
  -2  10   2   55.61    2.00
  -2 -10  -1   49.41    1.87
   2 -10   1   49.04    2.12
   2  10  -1   46.98    1.84
   2  10  -1   49.73    1.73
   2  10  -1   49.31    1.23
   2  10  -1   48.65    1.86
   2  10  -1   47.05    1.83
  -2  10   1   48.73    1.83
  -2 -10   0   68.52    2.28
   2 -10   0   69.29    2.62
   2  10   0   68.00    2.29
   2  10   0   69.64    2.14
   2  10   0   65.03    2.26
   2  10   0   62.56    2.25
  -2  10   0   68.88    2.31
   2 -10  -1   50.95    2.18
  -2 -10   1   51.99    1.81
   2  10   1   47.33    1.82
   2  10   1   48.66    1.68
  -2  10  -1   46.92    1.86
   2  10   1   50.48    1.87
   2  10   1   45.71    1.78
   2 -10  -2   54.80    2.33
  -2 -10   2   58.38    1.96
   2  10   2   59.64    2.08
   2  10   2   54.92    1.85
   2  10   2   57.66    2.05
  -2  10  -2   57.83    2.09
   2  10   2   55.05    1.98
   2  10   3   61.39    2.15
   2  10   3   62.09    1.95
  -2 -10   3   63.81    2.02
   2 -10  -3   60.29    2.49
  -2  10  -3   62.51    2.21
   2  10   3   56.46    2.08
   2  10   3   57.53    2.07
   2  10   4   17.33    1.01
   2 -10  -4   16.33    1.22
   2  10   4   17.46    0.87
  -2  10  -4   17.91    1.09
   2  10   4   16.82    1.02
   2  10   4   14.75    0.93
   2 -10  -5   24.57    1.51
   2  10   5   24.81    1.24
  -2  10  -5   26.01    1.34
   2  10   5   24.37    1.22
   2  10   5   25.83    1.22
   2  10   6   84.38    2.77
   2 -10  -6   86.79    3.23
   2  10   6   92.22    2.11
  -2  10  -6   85.31    2.90
   2  10   6   86.56    2.77
   2  10   6   85.95    2.73
   2 -10  -7   15.59    1.22
   2  10   7   15.96    0.99
   2  10   7   15.87    0.53
  -2  10  -7   13.70    1.01
   2  10   7   14.27    0.92
   2  10   7   14.91    0.96
   2  10   8   17.79    1.06
   2 -10  -8   19.03    1.36
  -2  10  -8   19.21    1.20
   2  10   8   18.38    1.06
   2  10   8   17.14    1.02
   2  10   9    1.55    0.46
   2 -10  -9    1.26    0.51
  -2  10  -9    1.77    0.59
   2  10   9    1.07    0.24
  -2  10  -9    1.24    0.54
  -2  10 -10  104.97    2.91
  -2  10 -10  103.40    3.49
   2  10  10  115.89    2.74
  -2 -10  10  115.79    3.04
   2  10  10  104.61    3.31
  -2  10 -10  110.54    3.79
  -2  10 -11   90.39    2.51
   2  10  11   89.48    2.29
  -2 -10  11   89.27    2.57
   2  10  11   86.45    2.86
  -2  10 -12    8.39    0.62
   2  10  12    8.70    0.51
   2  10  12    9.22    0.80
  -2  10 -13   62.98    2.00
   2  10  13   62.28    1.79
   2  10  13   63.66    2.30
  -2  10 -14   38.33    1.47
   2  10  14   35.86    1.66
   2  10  14   39.59    1.29
   2  10  15   80.04    2.25
  -2  10 -15   80.73    2.49
   2  10  16   25.49    1.05
  -2  10 -16   25.55    1.24
   2  10  17   13.09    0.77
  -2  10 -17   13.48    0.91
  -2  10 -18    3.10    0.56
  -2  10 -19    6.60    0.74
  -2  10 -20   20.94    1.24
  -2  10 -21    0.81    0.52
  -2  10 -22   40.48    1.85
  -2  10 -23    4.14    0.74
  -2  10 -24   10.03    1.00
  -2  10 -25   10.10    1.03
  -2  10 -26    8.82    1.02
  -2  10 -27   28.58    1.68
  -2  10 -28   11.64    1.13
  -2  10 -29    4.58    0.87
  -2  10 -30   12.24    1.15
   2  11 -34    1.54    0.84
   2  11 -34    1.96    0.85
   2  11 -33    5.13    1.07
   2  11 -33    4.33    1.00
   2  11 -32    5.01    1.09
   2  11 -32    5.71    1.12
   2  11 -31    8.87    1.23
   2  11 -31    6.67    1.17
   2  11 -30    2.81    0.92
   2  11 -30    4.80    1.09
   2  11 -29   -0.20    0.85
   2  11 -29    0.47    0.81
   2  11 -28    4.61    0.98
   2  11 -28    1.42    0.89
   2  11 -27    6.47    1.10
   2  11 -27    4.97    1.00
   2  11 -26   17.11    1.59
   2  11 -26   17.81    1.47
   2  11 -25    2.57    0.81
   2  11 -25    2.64    0.83
   2  11 -24    5.46    0.95
   2  11 -24    3.37    0.96
   2  11 -23    1.87    0.86
   2  11 -23    2.04    0.75
   2  11 -22    2.14    0.84
   2  11 -22    4.20    0.84
   2  11 -21   36.66    2.17
   2  11 -21   37.19    1.88
   2  11 -20   52.40    2.64
   2  11 -20   57.93    2.34
   2  11 -19    4.30    0.89
   2  11 -19    4.71    0.76
   2  11 -18   56.55    2.60
   2  11 -18   56.35    2.21
   2  11 -17    8.11    0.81
   2  11 -17    6.66    0.97
   2  11 -16    4.31    0.81
   2  11 -16    4.89    0.68
   2  11 -15    8.84    0.77
   2  11 -15    8.72    0.97
   2  11 -14    3.48    0.57
   2  11 -14    4.65    0.80
   2  11 -13    1.07    0.43
   2  11 -13    1.03    0.62
   2  11 -12   33.51    1.33
   2  11 -12   31.86    1.71
   2  11 -12   28.15    1.68
  -2 -11 -12   31.64    1.44
   2  11 -11   13.69    1.13
   2  11 -11   11.96    0.78
   2  11 -11   12.31    1.09
  -2 -11 -11   14.22    0.92
   2  11 -10   23.21    1.39
   2  11 -10   19.76    0.94
   2  11 -10   20.57    1.34
   2  11  -9    6.91    0.54
   2  11  -9    6.62    0.72
   2  11  -9    5.44    0.77
   2  11  -8    9.02    0.57
   2  11  -8    9.57    0.81
   2  11  -8    7.78    0.86
  -2  11   8   10.56    0.86
   2  11  -7    8.24    0.76
   2  11  -7    6.86    0.48
   2  11  -7    8.20    0.85
  -2  11   7    6.11    0.73
   2  11  -6   98.47    3.03
   2  11  -6  100.35    2.59
   2  11  -6  103.07    3.30
  -2  11   6  100.68    3.12
   2  11  -5    7.46    0.72
   2  11  -5    8.36    0.48
   2  11  -5    9.38    0.86
  -2  11   5    6.57    0.70
  -2 -11  -4    7.11    0.74
   2  11  -4    7.13    0.67
   2  11  -4    7.15    0.40
  -2  11   4    6.74    0.73
   2  11  -4    6.38    0.75
   2  11  -3    6.25    0.69
  -2 -11  -3    8.01    0.80
   2  11  -3    6.17    0.62
   2  11  -3    6.31    0.35
   2  11  -3    5.69    0.71
  -2  11   3    5.77    0.68
   2  11  -2   35.01    1.53
  -2 -11  -2   32.42    1.53
   2 -11   2   31.80    1.70
   2  11  -2   31.84    1.36
   2  11  -2   31.23    1.49
   2  11  -2   31.00    1.51
  -2  11   2   30.82    1.45
  -2 -11  -1   27.64    1.34
   2  11  -1   21.28    1.22
   2 -11   1   24.71    1.47
   2  11  -1   22.61    1.11
  -2  11   1   22.91    1.25
   2  11  -1   24.44    1.31
   2  11  -1   22.71    1.25
  -2 -11   0  220.89    5.63
   2  11   0  219.67    5.64
   2 -11   0  213.24    6.04
   2  11   0  214.37    5.39
   2  11   0  208.50    5.62
  -2  11   0  206.04    5.63
   2  11   0  201.57    5.59
  -2 -11   1   22.78    1.19
   2  11   1   25.92    1.29
   2 -11  -1   24.92    1.50
   2  11   1   24.22    1.12
  -2  11  -1   22.20    0.80
   2  11   1   23.17    1.25
  -2  11  -1   23.10    1.27
   2  11   1   24.42    1.28
   2 -11  -2   34.79    1.80
  -2 -11   2   33.85    1.42
   2  11   2   32.29    1.48
   2  11   2   34.50    1.34
  -2  11  -2   31.80    1.02
   2  11   2   31.51    1.48
   2  11   2   31.74    1.47
  -2  11  -2   35.73    1.61
   2 -11  -3    5.26    0.76
   2  11   3    5.87    0.66
  -2 -11   3    6.73    0.60
   2  11   3    6.27    0.57
  -2  11  -3    5.85    0.40
  -2  11  -3    6.56    0.74
   2  11   3    6.37    0.69
   2  11   3    5.91    0.69
   2  11   4    7.03    0.73
   2 -11  -4    7.00    0.84
   2  11   4    7.18    0.58
  -2  11  -4    6.40    0.75
  -2  11  -4    7.58    0.44
   2  11   4    6.87    0.73
   2  11   4    6.82    0.68
   2  11   5    7.23    0.59
   2  11   5    8.02    0.76
  -2  11  -5    8.59    0.85
   2  11   5    8.61    0.78
   2  11   5    6.91    0.73
  -2  11  -5    8.14    0.48
   2  11   6   99.66    2.76
   2  11   6   99.58    3.08
  -2  11  -6  101.21    3.26
   2  11   6   99.21    3.05
   2  11   6   95.42    3.04
  -2  11  -6   94.45    2.52
   2  11   7    7.36    0.58
   2  11   7    6.87    0.73
   2  11   7    6.53    0.73
   2  11   7    8.10    0.78
  -2  11  -7    7.22    0.48
  -2  11  -7    7.25    0.84
   2  11   8    9.32    0.84
   2  11   8    9.09    0.62
  -2  11  -8   10.79    0.97
   2  11   8    9.35    0.82
   2  11   8   10.41    0.86
   2  11   9    6.64    0.72
   2  11   9    6.26    0.53
  -2  11  -9    7.08    0.83
  -2  11 -10   22.54    1.42
   2  11  10   20.65    1.19
   2  11  10   20.54    0.91
  -2  11 -11   13.42    1.13
   2  11  11   12.52    0.95
   2  11  11   10.51    0.64
  -2  11 -12   33.07    1.26
  -2  11 -12   33.25    1.79
   2  11  12   31.53    1.54
   2  11  12   31.25    1.13
  -2  11 -13    0.90    0.36
  -2  11 -13    1.33    0.68
   2  11  13    0.75    0.28
   2  11  13    0.95    0.48
   2  11  14    3.38    0.63
  -2  11 -14    3.13    0.47
   2  11  15    7.22    0.79
  -2  11 -15    8.77    0.69
   2  11  16    4.20    0.68
  -2  11 -16    4.58    0.58
   2  11  17    6.18    0.78
  -2  11 -17    6.29    0.69
   2  11  18   49.77    2.08
  -2  11 -18   52.77    1.97
   2  11  19    5.79    0.75
  -2  11 -19    3.01    0.62
   2  11  20   51.32    2.09
  -2  11 -20   47.49    1.95
   2  11  21   31.92    1.61
  -2  11 -21   33.61    1.61
   2  11  22    3.13    0.70
  -2  11 -22    3.04    0.67
   2  11  23    2.35    0.62
  -2  11 -23    2.05    0.61
   2  11  24    4.58    0.72
  -2  11 -24    3.56    0.72
   2  11  25    3.26    0.68
  -2  11 -25    2.81    0.71
  -2  11 -26   17.25    1.25
  -2  11 -27    5.54    0.86
   2  12 -33    5.29    1.06
   2  12 -33    8.07    1.18
   2  12 -32    0.96    0.81
   2  12 -32    2.08    0.85
   2  12 -31    4.28    1.02
   2  12 -31    2.27    0.92
   2  12 -30    1.17    0.85
   2  12 -30    1.89    0.84
   2  12 -29    0.68    0.80
   2  12 -29    1.13    0.83
   2  12 -28    2.98    0.94
   2  12 -28    5.84    1.11
   2  12 -27    9.87    1.20
   2  12 -27    7.70    1.22
   2  12 -26   11.00    1.32
   2  12 -26   12.26    1.30
   2  12 -25    7.41    1.05
   2  12 -25    6.14    1.10
   2  12 -24   11.12    1.37
   2  12 -24   11.35    1.16
   2  12 -23    4.00    0.90
   2  12 -23    3.98    0.99
   2  12 -22   16.32    1.51
   2  12 -22   15.85    1.32
   2  12 -21   44.45    2.38
   2  12 -21   47.82    2.16
   2  12 -20   18.43    1.29
   2  12 -20   18.30    1.55
   2  12 -19   52.78    2.54
   2  12 -19   49.30    2.13
   2  12 -18    8.07    1.11
   2  12 -18    9.23    0.93
   2  12 -17   19.99    1.51
   2  12 -17   20.56    1.25
   2  12 -16    2.78    0.63
   2  12 -16    3.20    0.81
   2  12 -16    3.95    0.86
   2  12 -15   12.25    1.18
   2  12 -15   12.62    0.93
   2  12 -15   12.82    1.26
   2  12 -14    1.59    0.50
   2  12 -14    1.47    0.70
   2  12 -14    1.85    0.71
   2  12 -13    0.40    0.43
   2  12 -13    0.50    0.61
   2  12 -13    0.72    0.62
   2  12 -12    5.76    0.62
   2  12 -12    6.81    0.86
   2  12 -12    7.01    0.94
   2  12 -11   21.54    1.04
   2  12 -11   22.53    1.48
   2  12 -10   18.18    0.91
   2  12 -10   16.73    1.32
   2  12  -9   14.19    0.77
   2  12  -9   12.82    1.14
   2  12  -8   47.02    1.51
   2  12  -8   46.36    2.13
  -2  12   8   48.17    2.01
   2  12  -7    9.01    0.86
   2  12  -7    8.87    0.55
   2  12  -7    8.64    0.97
  -2  12   7    9.20    0.87
   2  12  -6   20.35    1.18
   2  12  -6   21.21    0.83
   2  12  -6   22.36    1.41
  -2  12   6   23.36    1.29
  -2 -12  -5   32.54    1.69
   2  12  -5   29.46    0.99
   2  12  -5   32.38    1.44
  -2  12   5   27.53    1.47
   2  12  -5   35.21    1.70
  -2 -12  -4    5.48    0.74
   2  12  -4    6.65    0.69
  -2  12   4    5.78    0.72
   2  12  -4    6.56    0.81
  -2 -12  -3   49.46    2.02
   2  12  -3   45.49    1.75
   2  12  -3   48.80    2.03
   2  12  -3   44.29    1.90
  -2 -12  -2   11.06    0.91
   2  12  -2   11.20    0.92
   2  12  -2   10.25    0.79
   2  12  -2   10.16    0.92
   2  12  -2    9.34    0.88
  -2  12   2    9.23    0.88
  -2 -12  -1   43.30    1.81
   2  12  -1   41.70    1.78
   2  12  -1   39.88    1.58
   2  12  -1   40.31    1.78
   2  12  -1   41.86    1.84
  -2  12   1   43.18    1.84
  -2 -12   0   26.55    1.34
   2  12   0   27.34    1.38
   2  12   0   26.50    1.20
   2  12   0   24.94    1.34
   2  12   0   22.90    1.32
  -2  12   0   21.95    1.30
  -2 -12   1   43.31    1.73
   2  12   1   40.61    1.76
   2  12   1   41.88    1.57
  -2  12  -1   40.10    1.22
   2  12   1   39.70    1.77
   2  12   1   39.22    1.75
  -2  12  -1   41.46    1.85
   2  12   2   11.37    0.90
  -2 -12   2   10.15    0.79
   2  12   2    9.28    0.72
  -2  12  -2   10.58    0.95
   2  12   2    9.81    0.88
  -2  12  -2   10.28    0.52
   2  12   2   10.06    0.89
   2  12   3   46.79    1.86
   2  12   3   41.29    1.55
  -2  12  -3   41.21    1.91
  -2  12  -3   43.27    1.29
   2  12   3   43.36    1.84
   2  12   3   40.74    1.78
   2  12   4    6.21    0.70
   2  12   4    7.40    0.62
  -2  12  -4    5.75    0.42
   2  12   4    5.97    0.72
  -2  12  -4    6.09    0.80
   2  12   4    6.50    0.72
   2  12   5   31.35    1.48
   2  12   5   30.02    1.22
   2  12   5   29.24    1.46
   2  12   5   30.25    1.48
  -2  12  -5   30.26    1.63
  -2  12  -5   28.85    1.01
   2  12   6   18.27    0.92
   2  12   6   19.53    1.18
  -2  12  -6   19.26    1.31
   2  12   6   18.41    1.17
   2  12   6   19.49    1.18
  -2  12  -6   19.99    0.80
   2  12   7    9.21    0.83
   2  12   7    8.24    0.62
   2  12   7    6.56    0.77
  -2  12  -7    8.67    0.53
  -2  12  -7    7.89    0.91
   2  12   7    7.71    0.81
   2  12   8   43.22    1.50
   2  12   8   45.58    1.87
  -2  12  -8   45.29    2.07
  -2  12  -8   42.74    1.41
   2  12   8   42.65    1.86
   2  12   8   46.69    1.89
   2  12   9   12.48    0.72
  -2  12  -9   14.75    1.19
   2  12   9   14.51    1.02
   2  12  10   17.73    0.82
  -2  12 -10   17.93    1.33
   2  12  10   19.80    1.18
   2  12  11   20.94    0.88
   2  12  11   21.34    1.23
  -2  12 -11   22.03    1.49
   2  12  12    6.70    0.76
   2  12  12    6.75    0.49
  -2  12 -12    6.97    0.96
   2  12  13    0.24    0.44
  -2  12 -13    0.09    0.68
   2  12  14    0.24    0.47
  -2  12 -14    0.75    0.64
  -2  12 -15   11.34    0.78
  -2  12 -15   12.27    1.24
   2  12  15   11.89    0.96
  -2  12 -16    3.48    0.53
  -2  12 -16    3.30    0.87
   2  12  16    3.39    0.64
   2  12  17   19.63    1.22
  -2  12 -17   19.95    1.08
   2  12  18    6.62    0.80
  -2  12 -18    6.42    0.68
   2  12  19   48.94    1.97
  -2  12 -19   40.72    1.75
   2  12  20   15.72    1.13
  -2  12 -20   17.66    1.11
   2  12  21   38.25    1.77
  -2  12 -21   42.25    1.77
   2  12  22   13.82    1.04
   2  12  23    4.78    0.71
   2  13 -32    0.66    0.85
   2  13 -31    2.53    0.85
   2  13 -31    0.60    0.75
   2  13 -31    1.60    0.93
   2  13 -30   -0.37    0.83
   2  13 -30    0.10    0.77
   2  13 -30    0.12    0.93
   2  13 -29    5.59    1.03
   2  13 -29    3.85    1.02
   2  13 -29    3.27    1.08
   2  13 -28    1.02    0.83
   2  13 -28    0.33    0.77
   2  13 -28    1.11    0.97
   2  13 -27    3.21    0.94
   2  13 -27    3.21    1.01
   2  13 -27    0.99    0.95
   2  13 -26    1.98    0.83
   2  13 -26    1.67    0.85
   2  13 -26    0.50    0.89
   2  13 -25   10.65    1.16
   2  13 -25   10.02    1.30
   2  13 -25    9.09    1.32
   2  13 -24   15.38    1.32
   2  13 -24   12.84    1.35
   2  13 -24   11.88    1.45
   2  13 -23   13.93    1.43
   2  13 -23   14.51    1.30
   2  13 -23   15.29    1.54
   2  13 -22   33.89    2.12
   2  13 -22   35.61    1.86
   2  13 -22   30.75    2.15
   2  13 -21   25.32    1.80
   2  13 -21   24.41    1.55
   2  13 -21   23.81    1.85
   2  13 -20   50.35    2.15
   2  13 -20   48.04    2.46
   2  13 -19    5.40    0.86
   2  13 -19    6.65    1.08
   2  13 -19    6.13    1.15
   2  13 -18   20.31    1.60
   2  13 -18   23.76    1.37
   2  13 -18   23.09    1.78
   2  13 -17   14.06    1.30
   2  13 -17   14.71    1.07
   2  13 -17   14.66    1.44
   2  13 -16   17.96    1.45
   2  13 -16   18.70    1.16
   2  13 -16   16.88    1.51
   2  13 -15    6.26    0.74
   2  13 -15    4.44    0.86
   2  13 -15    6.51    1.04
   2  13 -14    0.44    0.46
   2  13 -14   -0.10    0.65
   2  13 -13   21.71    1.12
   2  13 -13   23.42    1.63
   2  13 -12    5.87    0.62
   2  13 -12    7.08    0.99
   2  13 -11    7.03    0.61
   2  13 -11    7.59    1.01
   2  13 -10    4.74    0.52
   2  13 -10    5.63    0.91
   2  13  -9   14.63    0.78
   2  13  -9   12.89    1.20
   2  13  -8   24.28    0.99
   2  13  -8   25.92    1.60
  -2  13   8   22.51    1.38
  -2  13   7    7.96    0.87
   2  13  -7    7.41    0.96
   2  13  -6   77.65    2.96
  -2  13   6   79.75    2.82
  -2 -13  -5   18.40    1.31
   2  13  -5   19.75    1.17
  -2  13   5   18.63    1.24
   2  13  -5   17.76    1.21
   2  13  -5   17.85    1.32
  -2 -13  -4   40.04    1.89
   2  13  -4   41.59    1.70
   2  13  -4   38.89    1.95
   2  13  -4   38.04    1.81
  -2  13   4   37.82    1.81
   2  13  -3   41.76    1.73
   2  13  -3   44.17    1.95
   2  13  -3   45.22    2.04
  -2  13   3   43.20    1.94
   2  13  -2   12.90    0.91
   2  13  -2   14.49    1.14
   2  13  -2   12.50    1.01
  -2  13   2   11.96    1.06
   2  13  -1   26.30    1.43
   2  13  -1   25.56    1.25
   2  13  -1   26.45    1.48
  -2  13   1   24.94    1.46
   2  13  -1   25.91    1.43
   2  13   0    4.03    0.57
   2  13   0    5.33    0.72
   2  13   0    3.68    0.67
  -2  13   0    3.75    0.71
   2  13   0    4.56    0.69
   2  13   1   24.47    1.35
   2  13   1   26.77    1.21
  -2  13  -1   26.84    1.51
   2  13   1   23.90    1.41
   2  13   1   24.62    1.40
   2  13   2   13.06    1.02
   2  13   2   12.13    0.81
  -2  13  -2   13.03    0.61
   2  13   2   14.56    1.06
  -2  13  -2   12.29    1.09
   2  13   2   12.53    1.03
   2  13   3   43.71    1.85
   2  13   3   42.24    1.58
   2  13   3   39.86    1.86
  -2  13  -3   43.57    2.00
   2  13   3   42.02    1.86
  -2  13  -3   42.21    1.30
   2  13   4   40.40    1.78
   2  13   4   40.82    1.50
   2  13   4   35.68    1.74
   2  13   4   37.81    1.76
  -2  13  -4   40.15    1.95
   2  13   5   19.79    1.20
   2  13   5   17.18    0.91
   2  13   5   18.40    1.20
  -2  13  -5   15.55    1.25
   2  13   5   18.01    1.17
   2  13   6   78.08    2.69
   2  13   6   75.69    2.29
  -2  13  -6   79.68    2.96
   2  13   6   76.71    2.71
   2  13   6   74.68    2.72
   2  13   7    8.10    0.80
   2  13   7    6.37    0.59
   2  13   7    7.02    0.82
   2  13   7    7.87    0.89
  -2  13  -7    7.23    0.94
   2  13   8   23.04    0.99
   2  13   8   21.38    1.29
  -2  13  -8   24.96    1.56
   2  13   8   22.52    1.36
   2  13   9   13.74    0.74
   2  13   9   14.36    1.03
  -2  13  -9   13.39    1.22
   2  13  10    4.25    0.68
   2  13  10    4.99    0.46
  -2  13 -10    5.32    0.86
   2  13  11    7.52    0.79
  -2  13 -11    7.20    0.97
   2  13  12    4.88    0.71
  -2  13 -12    6.48    0.99
   2  13  13   21.21    1.26
  -2  13 -13   20.46    1.54
   2  13  14    0.80    0.49
  -2  13 -14    0.70    0.71
   2  13  15    5.06    0.71
  -2  13 -15    5.54    1.02
   2  13  16   16.65    1.13
  -2  13 -16   18.32    1.57
   2  13  17   15.22    1.07
  -2  13 -17   14.85    1.45
   2  13  18   21.21    1.27
  -2  13 -18   24.66    1.83
   2  13  19    6.17    0.77
  -2  13 -19    6.33    1.12
   2  13  20   43.87    1.88
  -2  13 -20   46.40    2.57
   2  13  21   23.65    1.31
  -2  13 -21   25.72    1.93
  -2  13 -22   34.95    2.29
  -2  13 -23   11.76    1.47
  -2  13 -24   11.52    1.47
  -2  13 -25    9.32    1.38
  -2  13 -26    0.90    0.90
  -2  13 -27    1.40    0.98
  -2  13 -28    1.01    1.01
  -2  13 -29    4.11    1.15
  -2  13 -30   -0.49    0.80
  -2  13 -31    0.59    0.90
  -2  13 -32   -0.90    0.84
   2  14 -30    1.62    0.80
   2  14 -30    3.23    1.01
   2  14 -29    1.39    0.82
   2  14 -29    0.12    0.85
   2  14 -28    6.56    1.07
   2  14 -28    4.63    1.12
   2  14 -27    9.01    1.16
   2  14 -27    7.65    1.14
   2  14 -27    9.21    1.32
   2  14 -26    3.70    0.87
   2  14 -26    1.17    0.83
   2  14 -26    2.82    1.05
   2  14 -25    5.09    0.93
   2  14 -25    5.70    1.07
   2  14 -25    6.68    1.20
   2  14 -24   -0.08    0.75
   2  14 -24    0.32    0.77
   2  14 -24    1.11    0.90
   2  14 -23    4.57    0.85
   2  14 -23    3.34    0.96
   2  14 -23    3.33    1.00
   2  14 -22    2.94    0.78
   2  14 -22    2.03    0.85
   2  14 -22    1.10    0.81
   2  14 -21   13.48    1.16
   2  14 -21   12.29    1.32
   2  14 -21   10.75    1.40
   2  14 -20   11.80    1.10
   2  14 -20    8.37    1.17
   2  14 -20   12.60    1.46
   2  14 -19   13.36    1.11
   2  14 -19   14.94    1.50
   2  14 -18    4.93    0.73
   2  14 -18    3.20    0.93
   2  14 -17    2.36    0.63
   2  14 -17    2.47    0.91
   2  14 -16    1.08    0.51
   2  14 -16    1.43    0.82
   2  14 -15   17.84    1.09
   2  14 -15   16.57    1.51
   2  14 -14    8.36    0.79
   2  14 -14    5.84    1.07
   2  14 -13   26.37    1.25
   2  14 -13   24.96    1.76
   2  14 -12    4.70    0.59
   2  14 -12    4.37    0.94
   2  14 -11   64.51    2.06
   2  14 -11   64.85    2.84
   2  14 -10   40.81    2.19
   2  14  -9    9.88    1.13
  -2  14   8   13.59    1.16
   2  14  -8   13.28    1.26
  -2  14   7   22.77    1.44
   2  14  -7   20.05    1.48
  -2  14   6   40.04    1.93
   2  14  -6   43.36    2.11
   2  14  -6   38.53    1.90
  -2  14   5   58.81    2.42
   2  14  -5   63.25    2.60
   2  14  -5   56.14    2.38
  -2  14   4   13.61    1.15
   2  14  -4   17.53    1.32
   2  14  -4   15.91    1.21
   2  14  -3   94.69    3.31
   2  14  -3   91.53    3.18
  -2  14   3   88.98    3.15
   2  14  -2    0.94    0.52
   2  14  -2    1.78    0.70
  -2  14   2    0.89    0.64
   2  14  -2    1.33    0.65
   2  14  -1   66.10    2.21
   2  14  -1   62.29    2.42
   2  14  -1   58.24    2.45
  -2  14   1   55.62    2.40
   2  14   0    7.06    0.71
   2  14   0    6.10    0.80
  -2  14   0    6.26    0.86
   2  14   0    6.39    0.87
   2  14   1   65.78    2.45
   2  14   1   64.99    2.17
   2  14   1   63.20    2.45
  -2  14  -1   62.31    2.54
   2  14   1   59.99    2.49
   2  14   2    1.04    0.59
   2  14   2    1.49    0.50
   2  14   2    1.02    0.64
   2  14   2    1.33    0.60
  -2  14  -2    0.78    0.63
   2  14   3   94.20    3.14
   2  14   3   97.83    2.81
   2  14   3   92.37    3.16
  -2  14  -3   96.61    3.41
   2  14   3   88.31    3.16
   2  14   4   13.07    1.06
   2  14   4   13.77    0.85
   2  14   4   14.84    1.18
   2  14   4   12.12    1.06
  -2  14  -4   13.59    1.19
   2  14   5   61.59    2.31
   2  14   5   54.66    1.90
   2  14   5   59.74    2.34
   2  14   5   57.79    2.37
  -2  14  -5   61.07    2.58
   2  14   6   39.83    1.81
   2  14   6   39.32    1.46
  -2  14  -6   43.68    2.12
   2  14   6   41.82    1.94
   2  14   6   38.65    1.84
   2  14   7   23.31    1.33
   2  14   7   20.64    0.97
   2  14   7   20.74    1.38
  -2  14  -7   22.62    1.55
   2  14   7   19.77    1.32
   2  14   8   15.06    1.10
   2  14   8   11.74    0.71
   2  14   8   12.71    1.13
  -2  14  -8   12.72    1.23
   2  14   9    9.72    0.91
   2  14   9    9.18    0.62
  -2  14  -9    8.29    1.06
   2  14  10   34.40    1.67
  -2  14 -10   37.34    2.05
   2  14  11   58.31    2.26
  -2  14 -11   59.64    2.71
   2  14  12    3.92    0.68
  -2  14 -12    3.41    0.85
   2  14  13   23.96    1.36
  -2  14 -13   25.16    1.78
   2  14  14    6.69    0.77
  -2  14 -14    9.49    1.16
   2  14  15   15.27    1.09
  -2  14 -15   16.77    1.54
   2  14  16    0.78    0.52
  -2  14 -16    0.67    0.84
   2  14  17    1.76    0.55
  -2  14 -17    2.50    0.87
   2  14  18    4.26    0.67
  -2  14 -18    4.41    1.07
   2  14  19   13.01    0.98
  -2  14 -19   13.50    1.45
  -2  14 -20    7.61    1.24
  -2  14 -21   15.24    1.55
  -2  14 -22    2.49    0.97
  -2  14 -23    6.05    1.22
  -2  14 -24    0.76    0.86
  -2  14 -25    4.43    1.11
  -2  14 -26    1.01    0.93
  -2  14 -27    8.83    1.35
  -2  14 -28    4.64    1.21
  -2  14 -29    1.90    0.94
  -2  14 -30    2.07    1.01
   2  15 -29    1.83    0.89
   2  15 -28    0.78    0.84
   2  15 -27    1.96    0.95
   2  15 -26    3.42    1.02
   2  15 -25    1.56    0.99
   2  15 -24    2.30    1.06
   2  15 -23    1.82    0.87
   2  15 -22    7.68    0.94
   2  15 -22    8.28    1.28
   2  15 -21    3.47    0.79
   2  15 -21    1.94    0.97
   2  15 -20   18.35    1.29
   2  15 -20   19.77    1.70
   2  15 -19    7.66    0.88
   2  15 -19    7.00    1.15
   2  15 -18    3.51    0.71
   2  15 -18    2.34    0.88
   2  15 -17    1.40    0.57
   2  15 -17    1.15    0.86
   2  15 -16   28.29    1.42
   2  15 -16   29.25    2.00
   2  15 -15    9.97    0.85
   2  15 -15   11.12    1.32
   2  15 -14    1.75    0.87
   2  15 -13    2.56    0.83
   2  15 -12    6.08    1.03
   2  15 -11    0.92    0.75
   2  15 -10   14.15    1.35
   2  15  -9   20.98    1.61
   2  15  -8   51.63    2.33
  -2  15   8   56.79    2.47
   2  15  -8   56.55    2.62
  -2  15   7   41.76    2.08
   2  15  -7   39.50    2.00
  -2  15   6   29.37    1.70
   2  15  -6   31.15    1.86
   2  15  -6   28.74    1.66
  -2  15   5   30.59    1.75
   2  15  -5   29.63    1.82
   2  15  -5   28.41    1.66
  -2  15   4   77.49    2.98
   2  15  -4   74.42    2.90
  -2  15   3   25.00    1.55
   2  15  -3   25.66    1.54
   2  15  -3   23.62    1.60
   2  15  -2   36.53    1.93
   2  15  -2   37.28    1.85
  -2  15   2   35.51    1.87
   2  15  -1    5.06    0.84
  -2  15   1    2.69    0.76
   2  15  -1    5.17    0.82
  -2  15   0   37.51    1.96
   2  15   0   43.16    2.04
   2  15   0   39.85    1.90
  -2  15  -1    4.63    0.86
   2  15   1    5.45    0.87
   2  15   1    3.24    0.72
   2  15   2   35.96    1.78
  -2  15  -2   39.40    1.98
   2  15   2   33.68    1.80
   2  15   3   27.79    1.51
   2  15   3   24.79    1.55
   2  15   3   25.36    1.49
  -2  15  -3   24.92    1.67
   2  15   4   83.81    2.87
   2  15   4   77.85    2.85
  -2  15  -4   84.96    3.18
   2  15   4   75.65    2.95
   2  15   5   29.34    1.54
   2  15   5   31.41    1.70
   2  15   5   27.57    1.57
   2  15   6   30.81    1.58
   2  15   6   29.33    1.69
  -2  15  -6   30.31    1.84
   2  15   6   28.90    1.61
   2  15   7   39.77    1.81
   2  15   7   38.34    1.98
  -2  15  -7   36.49    2.09
   2  15   8   57.62    2.26
  -2  15  -8   52.19    2.56
   2  15   8   59.48    2.47
   2  15   9   21.62    1.31
  -2  15  -9   26.30    1.74
   2  15  10   13.47    1.05
  -2  15 -10   14.38    1.39
   2  15  11    4.28    0.67
  -2  15 -11    2.69    0.88
   2  15  12    6.35    0.75
  -2  15 -12    6.66    1.08
   2  15  13    3.66    0.63
  -2  15 -13    2.70    0.91
   2  15  14    1.12    0.51
  -2  15 -14    1.77    0.84
   2  15  15   12.53    0.96
  -2  15 -15    9.77    1.26
   2  15  16   29.36    1.44
  -2  15 -16   25.24    1.87
  -2  15 -17    0.70    0.81
  -2  15 -18    3.80    1.04
  -2  15 -19    5.55    1.13
  -2  15 -20   16.98    1.64
  -2  15 -21    4.57    1.06
  -2  15 -22   10.92    1.42
  -2  15 -23    2.61    0.99
  -2  15 -24    1.86    0.94
  -2  15 -25    0.12    0.85
  -2  15 -26    2.42    0.97
  -2  15 -27    0.47    0.87
  -2  15 -28    0.69    0.88
  -2  15 -29    3.22    0.96
   2  16 -27    0.96    0.84
   2  16 -26    1.10    0.91
   2  16 -25    1.59    0.89
   2  16 -24    0.12    0.82
   2  16 -23   -0.47    0.87
   2  16 -22    3.43    1.02
   2  16 -21    1.42    0.86
   2  16 -20    8.80    1.31
   2  16 -19    0.83    0.83
   2  16 -18    1.89    0.90
   2  16 -17    2.10    0.88
   2  16 -16   -0.35    0.75
   2  16 -15    4.44    1.01
   2  16 -14   -0.56    0.91
   2  16 -13    0.89    0.82
   2  16 -12    7.41    1.16
   2  16 -11    1.45    0.69
   2  16 -11    2.87    0.85
   2  16 -10    1.26    0.68
   2  16 -10    1.67    0.76
   2  16  -9    1.17    0.66
   2  16  -9    1.96    0.82
   2  16  -8    4.44    0.94
   2  16  -8    3.54    0.80
  -2  16   7    1.78    0.74
   2  16  -7    0.65    0.64
   2  16  -7    0.10    0.75
  -2  16   6    7.05    0.98
   2  16  -6    5.33    0.99
   2  16  -6    5.72    0.88
   2  16  -5    3.21    0.82
  -2  16   5    5.59    0.89
   2  16  -5    4.55    0.86
   2  16  -4    4.40    0.88
   2  16  -4    4.48    0.80
  -2  16   4    4.50    0.87
   2  16  -3   12.03    1.16
  -2  16   3   12.49    1.20
   2  16  -3   11.45    1.11
  -2  16   2   18.44    1.40
   2  16  -2   22.65    1.56
   2  16  -2   19.19    1.39
   2  16  -1   11.31    1.06
   2  16  -1   11.76    1.18
  -2  16   1   10.75    1.13
  -2  16   0   -0.09    0.66
   2  16   0    0.17    0.66
   2  16   0   -0.07    0.60
   2  16   1   10.90    1.05
   2  16   1   12.21    1.16
   2  16   2   17.82    1.30
  -2  16  -2   17.98    1.41
   2  16   2   21.18    1.47
   2  16   3   13.38    1.21
   2  16   3   10.40    1.03
  -2  16  -3   13.53    1.25
  -2  16  -4    5.19    0.95
   2  16   4    4.67    0.78
   2  16   4    3.92    0.83
  -2  16  -5    5.81    0.96
   2  16   5    4.33    0.84
   2  16   5    5.50    0.84
   2  16   6    6.77    0.84
  -2  16  -6    8.50    1.07
   2  16   6    7.94    0.99
   2  16   7    0.32    0.52
   2  16   7    0.42    0.65
  -2  16  -7    0.50    0.68
   2  16   8    4.44    0.72
  -2  16  -8    2.14    0.82
   2  16   9    1.99    0.59
  -2  16  -9    1.77    0.79
   2  16  10    1.04    0.57
  -2  16 -10    0.42    0.77
   2  16  11    0.60    0.49
  -2  16 -11    1.82    0.83
   2  16  12    5.87    0.72
  -2  16 -12    6.05    1.06
   2  16  13    1.09    0.53
  -2  16 -13    3.69    0.94
   2  16  14    0.78    0.47
  -2  16 -14    0.57    0.80
  -2  16 -15    3.69    0.99
  -2  16 -16   -0.35    0.73
  -2  16 -17    0.47    0.85
  -2  16 -18    1.68    0.87
  -2  16 -19    0.97    0.91
  -2  16 -20    5.68    1.14
  -2  16 -21    0.73    0.89
  -2  16 -22    4.96    1.17
  -2  16 -23   -0.84    0.90
  -2  16 -24    2.49    0.99
  -2  16 -25    1.51    1.00
  -2  16 -26    0.79    0.92
  -2  16 -27    0.88    0.82
   2  17 -25    5.15    1.09
   2  17 -24    1.62    0.83
   2  17 -23    0.44    0.88
   2  17 -22    4.29    1.10
   2  17 -21    1.14    0.89
   2  17 -20    0.35    0.82
   2  17 -19   12.19    1.46
   2  17 -18    1.63    0.96
   2  17 -17    0.58    0.82
   2  17 -16    8.31    1.28
   2  17 -15    8.30    1.08
   2  17 -15    8.91    1.27
   2  17 -14    3.38    0.94
   2  17 -14    4.88    0.92
   2  17 -13    4.15    0.85
   2  17 -13    4.24    0.99
   2  17 -12   11.22    1.35
   2  17 -12   13.55    1.20
   2  17 -11   -0.11    0.83
   2  17 -11    0.09    0.61
   2  17 -10   11.65    1.15
   2  17 -10   13.28    1.36
   2  17  -9    7.06    0.98
   2  17  -9    7.34    1.11
   2  17  -8   -0.62    0.78
   2  17  -8    0.08    0.62
   2  17  -7   18.54    1.51
  -2  17   7   15.55    1.42
   2  17  -7   17.48    1.35
  -2  17   6   51.20    2.40
   2  17  -6   46.91    2.20
   2  17  -6   45.09    2.37
   2  17  -5    8.47    1.16
  -2  17   5    9.90    1.18
   2  17  -5   10.81    1.11
  -2  17   4   23.87    1.64
   2  17  -4   26.36    1.74
   2  17  -4   24.50    1.56
   2  17  -3   27.64    1.81
  -2  17   3   31.44    1.88
   2  17  -3   30.24    1.73
   2  17  -2   21.83    1.45
   2  17  -2   24.61    1.67
  -2  17   2   20.33    1.55
  -2  17   1   30.04    1.82
   2  17  -1   28.50    1.65
   2  17  -1   28.06    1.78
   2  17   0   35.16    1.79
  -2  17   0   31.02    1.88
   2  17   0   29.77    1.82
  -2  17  -1   29.50    1.81
   2  17   1   26.90    1.72
   2  17   1   28.74    1.61
   2  17   2   20.14    1.38
  -2  17  -2   20.71    1.60
   2  17   2   22.81    1.60
   2  17   3   30.02    1.81
   2  17   3   29.59    1.67
  -2  17  -3   31.07    1.92
   2  17   4   23.07    1.63
   2  17   4   23.78    1.49
  -2  17  -4   26.13    1.76
  -2  17  -5    8.94    1.16
   2  17   5   11.69    1.21
   2  17   6   42.18    2.24
  -2  17  -6   50.70    2.44
  -2  17  -7   15.83    1.41
   2  17   7   14.70    1.35
  -2  17  -8    1.26    0.80
  -2  17  -9    8.15    1.15
  -2  17 -10   11.79    1.31
   2  17  11   -0.34    0.51
  -2  17 -11    0.78    0.82
   2  17  12   11.58    0.89
  -2  17 -12   10.56    1.28
  -2  17 -13    5.31    1.08
  -2  17 -14    5.14    1.05
  -2  17 -15   10.90    1.36
  -2  17 -16    9.50    1.30
  -2  17 -17   -0.94    0.92
  -2  17 -18    2.25    0.97
  -2  17 -19   12.20    1.47
  -2  17 -20    0.12    0.84
  -2  17 -21    0.12    0.79
  -2  17 -22    2.77    1.02
  -2  17 -23    3.74    1.02
  -2  17 -24    2.00    0.94
  -2  17 -25    6.70    1.16
   2  18 -23    8.48    1.26
   2  18 -22    2.73    0.92
   2  18 -22    5.06    0.87
   2  18 -21    6.21    1.18
   2  18 -21    5.44    0.87
   2  18 -20    2.94    0.92
   2  18 -20    1.65    0.76
   2  18 -19    2.16    0.76
   2  18 -19    1.65    0.95
   2  18 -18    3.24    0.79
   2  18 -18    4.21    1.01
   2  18 -17   14.97    1.30
   2  18 -17   10.60    1.42
   2  18 -16   13.26    1.48
   2  18 -16   12.79    1.17
   2  18 -15    1.91    0.77
   2  18 -15    0.90    0.87
   2  18 -14    8.90    1.05
   2  18 -14    7.15    1.15
   2  18 -13    2.76    0.88
   2  18 -13    2.24    0.80
   2  18 -12    1.53    0.82
   2  18 -12    0.82    0.73
   2  18 -11   15.63    1.53
   2  18 -11   18.44    1.37
   2  18 -10    5.83    1.06
   2  18 -10    5.36    0.88
   2  18  -9    5.39    1.03
   2  18  -9    3.62    0.80
   2  18  -8    5.47    1.03
   2  18  -8    4.52    0.85
   2  18  -7   26.50    1.79
   2  18  -7   21.70    1.50
   2  18  -6    1.72    0.82
   2  18  -6    1.01    0.66
  -2  18   6    0.09    0.76
   2  18  -5    9.21    1.02
  -2  18   5    7.82    1.12
   2  18  -5    9.13    1.18
   2  18  -4    7.18    1.11
  -2  18   4    8.12    1.08
   2  18  -4    7.00    0.94
   2  18  -3    5.46    1.01
   2  18  -3    3.68    0.85
  -2  18   3    7.06    1.04
   2  18  -2   43.97    2.08
   2  18  -2   40.37    2.25
  -2  18   1   34.73    1.98
   2  18  -1   33.43    1.78
   2  18  -1   32.78    1.94
   2  18   0   54.84    2.35
  -2  18   0   56.98    2.63
   2  18   0   59.00    2.63
   2  18   1   33.58    1.97
   2  18   1   31.59    1.72
  -2  18  -1   32.51    1.92
   2  18   2   46.64    2.11
   2  18   2   48.07    2.35
  -2  18  -2   43.63    2.31
  -2  18  -3    4.82    0.99
   2  18   3    5.04    0.97
   2  18   3    5.45    0.91
  -2  18  -4    7.05    1.11
   2  18   4    9.01    1.11
   2  18   5   11.85    1.22
  -2  18  -5    8.62    1.15
  -2  18  -6    0.51    0.80
   2  18   6    1.63    0.81
  -2  18  -7   23.46    1.70
  -2  18  -8    5.84    0.98
  -2  18  -9    2.88    0.92
  -2  18 -10    4.99    1.08
  -2  18 -11   16.13    1.55
  -2  18 -12    2.55    0.94
  -2  18 -13    0.56    0.87
  -2  18 -14    8.74    1.28
  -2  18 -15    0.91    0.89
  -2  18 -16   14.30    1.47
  -2  18 -17   13.75    1.57
  -2  18 -18    4.40    1.06
  -2  18 -19    2.02    0.93
  -2  18 -20    0.67    0.83
  -2  18 -21    4.94    1.13
  -2  18 -22    3.13    0.96
  -2  18 -23    8.72    1.23
   2  19 -21    8.32    1.16
   2  19 -20    0.50    0.75
   2  19 -19    9.75    1.01
   2  19 -19   11.67    1.34
   2  19 -18    1.01    0.66
   2  19 -18    0.10    0.83
   2  19 -17    7.09    0.96
   2  19 -17   11.86    1.29
   2  19 -16    2.59    0.81
   2  19 -16    2.52    0.97
   2  19 -15    2.84    0.77
   2  19 -15    1.70    0.84
   2  19 -14    4.37    1.08
   2  19 -14    6.34    0.91
   2  19 -13    2.77    0.93
   2  19 -13    1.89    0.72
   2  19 -12    3.91    0.96
   2  19 -12    3.79    0.81
   2  19 -11    6.65    0.92
   2  19 -11    5.75    1.08
   2  19 -10    1.97    0.85
   2  19 -10    3.08    0.77
   2  19  -9    1.87    0.71
   2  19  -9    2.27    0.85
   2  19  -8    5.32    1.00
   2  19  -8    6.03    0.93
   2  19  -7    2.62    0.92
   2  19  -7    2.52    0.69
   2  19  -6    0.74    0.64
   2  19  -6    0.10    0.74
   2  19  -5   25.98    1.53
  -2  19   5   26.67    1.74
   2  19  -5   23.22    1.69
   2  19  -4    0.30    0.72
   2  19  -4    1.37    0.67
  -2  19   4    0.38    0.71
   2  19  -3    8.70    1.12
  -2  19   3   10.92    1.21
   2  19  -3    9.24    1.02
  -2  19   2    0.09    0.70
   2  19  -2    1.81    0.81
   2  19  -2    1.62    0.66
   2  19  -1    2.32    0.73
  -2  19   1    2.76    0.85
   2  19  -1    2.95    0.84
   2  19   0    9.16    0.98
   2  19   0   10.81    1.21
  -2  19   0    9.59    1.17
   2  19   1    1.98    0.79
  -2  19  -1    2.02    0.76
   2  19   1    1.04    0.70
  -2  19  -2    1.16    0.72
   2  19   2    0.28    0.74
  -2  19  -3    8.04    1.11
   2  19   3   10.80    1.21
   2  19   4    0.09    0.76
  -2  19  -4    0.80    0.79
   2  19   5   26.62    1.73
  -2  19  -5   22.96    1.70
  -2  19  -6    0.10    0.81
  -2  19  -7    2.04    0.87
  -2  19  -8    6.31    1.08
  -2  19  -9    3.14    0.95
  -2  19 -10    2.73    0.94
  -2  19 -11    5.94    1.06
  -2  19 -12    2.79    0.93
  -2  19 -13    1.73    0.88
  -2  19 -14    6.06    1.13
  -2  19 -15    3.99    1.02
  -2  19 -16    2.25    0.91
  -2  19 -17    7.25    1.15
  -2  19 -18    1.06    0.81
  -2  19 -19   10.69    1.30
  -2  19 -20    0.41    0.81
  -2  19 -21    9.44    1.20
   2  20 -18    3.17    0.90
   2  20 -17    1.52    0.77
   2  20 -16    0.48    0.76
   2  20 -15    8.23    1.13
   2  20 -14    4.10    0.94
   2  20 -14    5.59    0.82
   2  20 -13    4.62    0.96
   2  20 -13    5.33    0.83
   2  20 -12    6.82    1.10
   2  20 -12    7.04    0.86
   2  20 -11   10.67    1.24
   2  20 -11    8.77    0.94
   2  20 -10   -0.30    0.76
   2  20 -10    0.27    0.58
   2  20  -9    1.22    0.67
   2  20  -9    0.59    0.81
   2  20  -8    1.01    0.58
   2  20  -8    1.68    0.89
   2  20  -7    4.72    0.96
   2  20  -7    4.97    0.83
   2  20  -6    3.60    0.94
   2  20  -6    3.61    0.75
   2  20  -5   22.21    1.39
   2  20  -5   24.07    1.67
   2  20  -4    7.36    1.11
  -2  20   4    7.00    1.08
   2  20  -4    6.35    0.86
   2  20  -3    2.24    0.70
   2  20  -3    1.71    0.83
  -2  20   3    1.13    0.80
   2  20  -2    1.58    0.69
   2  20  -2    2.65    0.89
  -2  20   2    2.66    0.86
   2  20  -1    8.88    0.95
  -2  20   1    9.33    1.17
   2  20  -1    9.16    1.19
  -2  20   0   15.06    1.41
   2  20   0   15.91    1.39
   2  20   1    8.57    1.18
  -2  20  -1    8.59    1.15
   2  20   2    1.32    0.81
  -2  20  -2    2.20    0.84
  -2  20  -3    3.16    0.88
   2  20   3    2.13    0.83
  -2  20  -4    5.91    1.07
   2  20   4    6.56    1.05
  -2  20  -5   24.33    1.71
  -2  20  -6    2.87    0.92
  -2  20  -7    4.88    1.05
  -2  20  -8    1.10    0.86
  -2  20  -9    1.70    0.88
  -2  20 -10   -0.60    0.79
  -2  20 -11    8.52    1.18
  -2  20 -12    6.53    1.06
  -2  20 -13    3.60    0.93
  -2  20 -14    4.77    1.03
  -2  20 -15    7.71    1.14
  -2  20 -16    1.08    0.77
  -2  20 -17    1.16    0.80
  -2  20 -18    1.24    0.83
   2  21 -14    4.56    0.94
   2  21 -13    1.06    0.81
   2  21 -12    2.07    0.80
   2  21 -11    8.84    1.12
   2  21 -10    2.56    0.82
   2  21  -9    1.10    0.70
   2  21  -8    2.75    0.83
   2  21  -7    4.96    0.90
   2  21  -6    2.54    0.83
   2  21  -6    1.69    0.59
   2  21  -5    0.06    0.60
   2  21  -5    0.55    0.67
   2  21  -4    4.09    0.71
   2  21  -4    4.46    0.97
   2  21  -3    1.91    0.80
   2  21  -2    0.18    0.72
  -2  21   2    0.09    0.68
  -2  21   1    0.46    0.71
   2  21  -1    0.36    0.66
  -2  21   0    2.01    0.79
   2  21   0   -1.08    0.83
  -2  21  -1   -0.09    0.72
   2  21   1   -0.36    0.85
  -2  21  -2    0.37    0.72
   2  21   2    0.44    0.74
  -2  21  -3   -0.09    0.72
  -2  21  -4    3.96    0.93
  -2  21  -5    0.83    0.75
  -2  21  -6    2.11    0.83
  -2  21  -7    2.74    0.87
  -2  21  -8    4.46    0.95
  -2  21  -9    0.74    0.66
  -2  21 -10    1.58    0.78
  -2  21 -11   10.29    1.17
  -2  21 -12    1.19    0.74
  -2  21 -13    0.27    0.74
  -2  21 -14    4.57    0.90
   2  22  -9   -0.16    0.69
   2  22  -8    3.11    0.82
   2  22  -7    1.16    0.74
   2  22  -6    0.08    0.65
   2  22  -5    0.50    0.70
   2  22  -4    1.51    0.77
   2  22  -3    6.19    0.96
   2  22  -2    1.09    0.76
   2  22  -1   11.40    1.24
  -2  22   1   13.24    1.26
  -2  22   0    7.85    1.06
   2  22   0    8.94    1.11
   2  22   1   12.11    1.19
  -2  22  -1   12.90    1.27
  -2  22  -2    2.04    0.79
  -2  22  -3    7.80    1.05
  -2  22  -4    0.59    0.71
  -2  22  -5    1.44    0.74
  -2  22  -6    0.85    0.73
  -2  22  -7    1.85    0.77
  -2  22  -8    2.50    0.80
  -2  22  -9    2.39    0.79
  -3   0   0    0.02    0.15
  -3   0   1    0.94    0.20
  -3   0  -1    0.61    0.19
   3   0  -1    0.86    0.17
   3   0   1    1.02    0.17
   3   0  -2   15.64    0.59
   3   0   2   16.00    0.56
   3   0  -3    5.85    0.35
   3   0   3    5.36    0.30
   3   0  -3    5.62    0.35
   3   0  -4  293.33    6.76
   3   0  -4  294.25    6.69
   3   0   4  295.60    6.63
   3   0  -4  294.41    6.75
   3   0  -5   45.97    1.34
   3   0  -5   44.00    1.26
   3   0   6  403.95    9.03
   3   0  -6  392.37    8.97
   3   0  -6  389.70    8.84
  -3   0  -7  131.17    3.34
   3   0   7  133.98    3.36
   3   0  -7  134.76    3.20
  -3   0  -8   21.02    0.86
   3   0   8   22.78    0.89
  -3   0  -9   39.13    1.31
   3   0   9   41.30    1.33
  -3   0 -10   20.25    0.88
   3   0  10   22.95    0.90
   3   0 -10   20.50    0.80
   3   0 -11  107.21    2.80
  -3   0 -11  109.66    2.97
   3   0  11  116.91    2.95
   3   0 -12   23.13    0.85
  -3   0 -12   22.29    0.98
   3   0  12   22.63    0.95
   3   0 -13  205.95    4.90
  -3   0 -13  203.97    5.16
   3   0  13  208.79    5.09
  -3   0  13  214.24    5.47
   3   0 -14   40.95    1.29
  -3   0 -14   42.49    1.54
   3   0  14   43.04    1.47
  -3   0  14   40.72    1.70
  -3   0 -15   51.23    1.81
   3   0  15   53.84    1.76
  -3   0  15   54.72    2.04
  -3   0 -16   58.43    2.03
   3   0  16   62.18    1.97
  -3   0  16   62.00    2.25
  -3   0 -17    0.85    0.38
   3   0  17    0.08    0.39
  -3   0  17    0.18    0.44
  -3   0 -18   43.84    1.77
   3   0  18   46.31    1.72
  -3   0  18   47.53    1.95
  -3   0 -18   50.29    1.99
  -3   0 -19  109.59    3.31
   3   0  19  106.83    3.15
  -3   0 -20   44.93    1.86
   3   0  20   45.53    1.77
  -3   0 -21   57.37    2.19
   3   0  21   51.33    2.00
  -3   0 -22   22.16    1.34
   3   0  22   21.14    1.21
  -3   0 -23    7.23    0.89
   3   0  23    6.04    0.77
  -3   0 -24    0.98    0.60
   3   0  24    1.06    0.60
  -3   0 -25   27.52    1.65
   3   0  25   29.92    1.60
  -3   0 -26   51.21    2.34
   3   0  26   49.47    2.19
  -3   0 -27    6.43    0.95
   3   0  27    7.73    1.00
  -3   0 -28    2.23    0.77
   3   0  28    2.05    0.76
  -3   0 -29    9.61    1.14
   3   0  29    9.99    1.12
  -3   0 -30   11.86    1.31
   3   0  30   13.66    1.28
  -3   0 -31    1.76    0.87
   3   0  31    1.05    0.82
   3   0 -32    3.75    0.92
  -3   0 -32    2.33    0.87
   3   0 -33    0.61    0.74
  -3   0 -33   -0.54    0.87
  -3   0 -34    0.65    0.81
   3   0 -34   -0.44    0.81
  -3   0 -35    5.74    1.12
   3   0 -35    3.93    0.95
  -3   0 -36    1.40    0.84
   3   0 -36    0.95    0.72
  -3   0 -37    0.42    0.77
   3   0 -37    1.06    0.81
   3   0 -37    1.50    0.76
  -3   0 -38   -0.51    0.87
   3   0 -38   -0.24    0.79
   3   0 -38   -0.28    0.79
  -3  -1 -38   -0.39    0.74
   3   1 -38    0.75    0.76
   3   1 -38    0.37    0.75
  -3  -1 -37    0.30    0.76
   3   1 -37    1.92    0.85
   3   1 -37    0.52    0.73
  -3  -1 -36   -0.31    0.82
   3   1 -36    0.29    0.79
   3   1 -36    0.45    0.80
  -3  -1 -35    0.83    0.82
   3   1 -35    1.18    0.84
  -3  -1 -34    3.95    0.96
   3   1 -34    2.28    0.86
   3   1 -33    4.81    0.92
  -3  -1 -33    3.83    0.98
   3   1 -32    0.27    0.77
  -3  -1 -32    1.02    0.80
  -3  -1 -31    8.05    1.14
   3  -1  31    7.68    1.08
  -3  -1 -30   19.30    1.52
   3  -1  30   17.09    1.40
  -3  -1 -29    7.94    1.07
   3  -1  29    7.60    1.01
  -3  -1 -28    3.84    0.90
   3  -1  28    4.49    0.89
  -3  -1 -27    5.95    0.94
   3  -1  27    7.63    0.98
  -3  -1 -26   60.27    2.55
   3  -1  26   62.45    2.51
  -3  -1 -25   30.07    1.68
   3  -1  25   30.54    1.62
  -3  -1 -24    8.91    0.93
   3  -1  24    8.12    0.88
  -3  -1 -23   31.79    1.64
   3  -1  23   31.60    1.55
  -3  -1 -22   20.62    1.27
   3  -1  22   21.55    1.23
  -3  -1 -21   55.62    2.17
   3  -1  21   59.50    2.13
  -3  -1 -20   10.23    0.84
   3  -1  20   10.45    0.83
  -3  -1 -19   23.12    1.21
   3  -1  19   22.99    1.17
  -3  -1 -18    7.02    0.67
   3  -1  18    7.05    0.65
  -3  -1 -18    6.99    0.77
  -3   1  18    5.83    0.72
  -3  -1 -17   12.33    0.82
   3  -1  17   10.83    0.76
  -3  -1 -16  152.68    4.15
   3  -1  16  162.99    4.14
  -3  -1 -15  136.01    3.69
   3   1 -15  140.31    3.53
   3  -1  15  140.15    3.67
  -3  -1 -14  449.87   10.55
   3   1 -14  456.04   10.39
   3  -1  14  462.92   10.52
  -3  -1 -13  108.77    2.98
   3   1 -13  108.33    2.87
   3  -1  13  116.81    3.00
   3   1 -12   98.87    2.60
  -3  -1 -12   96.07    2.67
   3  -1  12  100.47    2.68
   3   1 -11   37.12    1.25
  -3  -1 -11   36.86    1.29
  -3  -1 -10   66.41    1.91
   3  -1  10   69.21    1.96
   3   1 -10   66.92    1.92
  -3  -1  -9   62.94    1.81
   3  -1   9   66.14    1.87
  -3  -1  -8  181.35    4.35
   3  -1   8  182.56    4.42
  -3  -1  -7   38.94    1.21
   3   1  -7   40.47    1.16
   3   1  -7   40.40    1.20
   3  -1   7   38.72    1.28
   3   1  -6   49.38    1.33
   3   1  -6   49.76    1.42
   3  -1   6   49.22    1.50
   3   1  -5  226.09    5.19
   3   1  -5  228.11    5.33
   3  -1   5  228.50    5.42
   3   1  -5  235.33    5.44
   3   1  -4   15.47    0.63
   3   1  -4   15.01    0.66
   3   1  -3  716.13   16.21
   3   1  -3  712.50   16.23
   3  -1   3  745.80   16.00
   3   1  -2  426.58    9.61
   3   1  -2  425.31    9.59
   3  -1   2  424.29    9.37
  -3   1   1  959.59   21.59
   3   1  -1  981.49   21.38
   3  -1   1  968.46   21.18
  -3   1   0   20.51    0.90
  -3  -1   0   22.21    0.78
  -3  -1   1  968.29   21.30
  -3   1  -1  976.75   21.58
   3  -1  -1  965.62   21.18
  -3   1  -2  424.27    9.73
   3  -1  -2  424.13    9.35
   3   1   2  413.45    9.43
   3  -1  -3  726.02   15.88
   3  -1  -3  716.10   16.12
  -3   1  -3  726.75   16.28
   3  -1  -3  718.03   15.89
   3   1   3  719.84   15.94
   3  -1  -4   15.49    0.54
   3  -1  -4   16.17    0.73
   3   1   4   15.00    0.60
   3  -1  -5  230.31    5.20
   3  -1  -5  225.41    5.51
   3   1   5  230.12    5.30
   3  -1  -6   51.84    1.61
   3  -1  -6   50.18    1.31
  -3   1  -8  177.69    4.41
  -3   1  -9   60.54    1.85
  -3   1 -10   66.08    2.01
  -3   1 -11   37.58    1.37
   3  -1 -11   37.72    1.13
   3  -1 -12   98.59    2.45
  -3   1 -12   95.54    2.77
   3  -1 -13  108.19    2.69
  -3   1 -13  110.78    3.08
   3  -1 -14  462.31   10.33
  -3   1 -14  448.51   10.79
  -3  -1  14  475.43   11.05
  -3   1 -15  142.07    3.94
  -3  -1  15  147.28    4.15
  -3   1 -16  152.73    4.28
  -3  -1  16  164.67    4.52
  -3   1 -17   11.23    0.85
  -3   1 -17   13.68    0.97
  -3  -1  17   13.49    0.96
  -3   1 -18    7.53    0.76
  -3   1 -18    5.65    0.70
  -3  -1  18    7.23    0.76
  -3   1 -19   23.62    1.29
  -3   1 -19   24.33    1.33
  -3   1 -20    9.51    0.86
  -3   1 -21   61.07    2.37
  -3   1 -22   19.23    1.31
  -3   1 -23   32.06    1.71
  -3   1 -24    7.57    0.94
  -3   1 -25   28.64    1.72
  -3   1 -26   59.55    2.60
  -3   1 -27    6.42    1.00
  -3   1 -28    5.74    0.97
  -3   1 -29    7.89    1.10
  -3   1 -30   17.62    1.54
  -3   1 -31    7.23    1.10
  -3   1 -32    1.43    0.80
   3  -1 -32    1.09    0.76
   3  -1 -33    3.77    0.89
  -3   1 -33    3.92    1.01
  -3   1 -34    1.58    0.90
   3  -1 -34    1.25    0.78
  -3   1 -35    1.58    0.93
   3  -1 -35    0.25    0.71
  -3   1 -36    1.46    0.84
   3  -1 -36   -0.08    0.72
  -3   1 -37    0.76    0.81
   3  -1 -37    2.22    0.76
  -3   1 -38    0.94    0.84
   3  -1 -38    0.68    0.66
   3   2 -38    2.32    0.89
  -3  -2 -38    1.01    0.75
   3   2 -38    0.43    0.76
  -3  -2 -37    1.72    0.83
   3   2 -37    0.27    0.78
   3   2 -37    0.76    0.78
  -3  -2 -36    1.66    0.86
   3   2 -36    3.41    0.93
   3   2 -36    1.95    0.84
  -3  -2 -35    6.53    1.05
   3   2 -35    4.84    1.01
   3   2 -35    5.56    1.07
  -3  -2 -34    1.79    0.86
   3   2 -34    0.09    0.85
   3   2 -33    4.58    0.98
  -3  -2 -33    2.87    0.93
   3   2 -32   34.56    1.99
  -3  -2 -32   30.83    1.93
   3   2 -31    4.95    1.02
  -3  -2 -31    5.74    1.00
   3  -2  31    7.36    1.05
  -3  -2 -30    6.41    1.00
   3  -2  30    5.99    1.00
  -3  -2 -29    9.79    1.13
   3  -2  29   10.90    1.10
  -3  -2 -28   10.18    1.14
   3  -2  28   12.50    1.17
  -3  -2 -27   17.85    1.35
   3  -2  27   17.40    1.34
  -3  -2 -26   15.12    1.22
   3  -2  26   17.55    1.30
  -3  -2 -25   14.20    1.13
   3  -2  25   13.44    1.11
  -3  -2 -24    3.79    0.67
   3  -2  24    2.79    0.68
  -3  -2 -23    2.34    0.62
   3  -2  23    2.19    0.59
  -3  -2 -22   30.97    1.55
   3  -2  22   36.17    1.59
  -3  -2 -21    3.68    0.61
   3  -2  21    5.18    0.68
  -3  -2 -20    5.17    0.64
   3  -2  20    5.69    0.64
  -3  -2 -19   27.27    1.28
   3  -2  19   26.17    1.25
  -3  -2 -18   30.20    1.33
   3  -2  18   32.11    1.33
  -3  -2 -17   37.97    1.48
   3  -2  17   40.27    1.50
  -3  -2 -16  356.15    8.49
   3  -2  16  361.04    8.49
  -3  -2 -15   17.14    0.87
   3   2 -15   18.62    0.86
   3  -2  15   17.74    0.90
  -3  -2 -14   44.42    1.49
   3   2 -14   43.04    1.45
   3  -2  14   44.71    1.51
  -3   2  14   44.65    1.77
  -3  -2 -13   19.67    0.88
   3   2 -13   21.27    0.91
   3  -2  13   20.92    0.92
  -3   2  13   21.93    1.15
  -3  -2 -12   14.35    0.71
   3   2 -12   16.47    0.79
   3  -2  12   15.62    0.77
  -3   2  12   15.22    0.94
  -3  -2 -11  162.71    4.01
   3   2 -11  161.97    4.09
   3  -2  11  167.12    4.09
  -3   2  11  164.31    4.39
  -3  -2 -10   81.70    2.17
   3  -2  10   81.07    2.25
   3   2 -10   80.31    2.27
  -3  -2  -9   98.19    2.52
   3  -2   9   99.45    2.62
  -3  -2  -8  107.03    2.65
   3  -2   8  107.40    2.78
   3   2  -8  104.09    2.75
  -3  -2  -7   44.99    1.23
   3   2  -7   40.40    1.04
   3   2  -7   40.82    1.32
   3  -2   7   45.04    1.36
  -3  -2  -6   11.28    0.49
   3   2  -6   10.98    0.57
   3  -2   6   11.40    0.59
   3   2  -6   11.07    0.63
   3   2  -5   23.26    0.89
   3  -2   5   25.30    0.92
   3   2  -5   22.60    0.93
   3   2  -4   40.10    1.28
   3  -2   4   41.95    1.29
   3   2  -4   38.00    1.29
   3   2  -3  106.35    2.75
   3   2  -3  105.02    2.73
   3   2  -2  283.17    6.47
   3   2  -2  287.07    6.50
   3   2  -2  272.64    6.15
  -3   2   1   50.45    1.68
  -3   2   0   85.60    2.46
  -3   2   0   83.49    1.92
  -3  -2   1   49.15    1.30
  -3   2  -1   48.93    1.67
  -3   2  -1   50.24    1.21
  -3   2  -2  286.40    6.89
   3  -2  -2  281.21    6.79
  -3   2  -2  283.04    6.32
   3  -2  -2  285.96    6.34
   3   2   2  286.22    6.57
  -3   2  -3  107.72    3.01
   3  -2  -3  106.39    2.91
   3   2   3  106.21    2.70
   3  -2  -4   40.27    1.39
   3  -2  -4   38.43    1.00
  -3   2  -4   39.85    1.47
   3   2   4   37.92    1.19
   3  -2  -5   21.87    0.98
   3  -2  -5   22.04    0.62
   3   2   5   22.19    0.82
   3   2   6   11.31    0.55
  -3   2  -9   95.35    2.70
  -3   2 -10   85.20    2.47
   3  -2 -10   82.57    2.07
   3  -2 -11  155.00    3.63
  -3   2 -11  156.33    4.10
   3  -2 -12   15.57    0.56
  -3   2 -12   14.96    0.87
   3  -2 -13   20.59    0.68
  -3   2 -13   21.20    1.06
  -3   2 -14   46.51    1.72
  -3  -2  14   44.11    1.80
  -3   2 -15   15.91    0.97
  -3  -2  15   17.85    1.08
  -3   2 -16  393.95    9.13
  -3  -2  16  375.59    9.20
  -3   2 -17   41.07    1.74
  -3   2 -17   44.43    1.78
  -3  -2  17   42.99    1.82
  -3   2 -18   29.05    1.48
  -3  -2  18   31.81    1.53
  -3   2 -18   32.55    1.50
  -3   2 -19   28.29    1.48
  -3   2 -19   31.07    1.51
  -3   2 -20    5.05    0.74
  -3   2 -21    4.45    0.78
  -3   2 -22   34.80    1.79
  -3   2 -23    2.14    0.69
  -3   2 -24    3.02    0.74
  -3   2 -25   13.54    1.27
  -3   2 -26   19.17    1.46
  -3   2 -27   15.79    1.40
  -3   2 -28   10.67    1.24
  -3   2 -29   12.68    1.34
  -3   2 -30    5.57    1.09
  -3   2 -31    7.08    1.14
   3  -2 -32   32.00    1.82
  -3   2 -32   34.84    2.18
   3  -2 -33    4.46    0.92
  -3   2 -33    2.91    1.04
  -3   2 -34    2.34    0.91
   3  -2 -34    1.90    0.76
  -3   2 -35    4.92    1.08
   3  -2 -35    6.01    0.95
  -3   2 -36    3.11    1.04
   3  -2 -36    2.85    0.81
  -3   2 -37    2.01    0.90
   3  -2 -37    1.04    0.73
   3   3 -38    0.09    0.79
   3   3 -38    0.79    0.79
  -3  -3 -37    1.97    0.83
   3   3 -37    4.48    0.96
   3   3 -37    3.49    0.99
  -3  -3 -36    0.92    0.81
   3   3 -36    2.65    0.96
   3   3 -36    2.72    0.88
  -3  -3 -35    4.98    0.95
   3   3 -35    3.74    0.92
   3   3 -35    6.37    1.10
   3   3 -34    2.70    0.93
  -3  -3 -34    2.27    0.84
   3   3 -34    2.55    0.91
   3   3 -33   -0.96    0.79
  -3  -3 -33    0.09    0.74
   3   3 -33    0.29    0.76
   3   3 -32    2.09    0.91
  -3  -3 -32    1.12    0.83
   3   3 -31   15.13    1.42
  -3  -3 -31   16.86    1.45
  -3  -3 -30    4.60    0.93
   3  -3  30    5.58    1.00
  -3  -3 -29   14.10    1.26
   3  -3  29   12.96    1.21
  -3  -3 -28   38.26    1.96
   3  -3  28   34.64    1.87
  -3  -3 -27    7.48    0.94
   3  -3  27    9.16    1.07
  -3  -3 -26    2.84    0.71
   3  -3  26    2.21    0.74
  -3  -3 -25    3.82    0.73
   3  -3  25    4.01    0.79
  -3  -3 -24    6.55    0.80
   3  -3  24    5.86    0.82
  -3  -3 -23   18.83    1.19
   3  -3  23   18.14    1.17
  -3  -3 -22   40.22    1.74
   3  -3  22   40.86    1.72
  -3  -3 -21   51.24    1.96
   3  -3  21   51.19    1.94
  -3  -3 -20    4.04    0.58
   3  -3  20    4.25    0.64
  -3  -3 -19   24.72    1.18
   3  -3  19   23.49    1.17
  -3  -3 -18    7.32    0.64
   3  -3  18    6.68    0.66
  -3  -3 -17   21.75    1.03
   3  -3  17   20.85    1.05
  -3   3  17   21.75    1.25
  -3  -3 -16   43.17    1.55
   3   3 -16   46.93    1.60
   3  -3  16   46.72    1.61
  -3   3  16   45.36    1.85
  -3  -3 -15    1.13    0.33
   3  -3  15    1.60    0.40
   3   3 -15    1.60    0.37
  -3   3  15    1.69    0.44
  -3  -3 -14  129.86    3.37
   3   3 -14  124.17    3.44
   3  -3  14  132.43    3.43
  -3  -3 -13  101.58    2.70
   3   3 -13   96.77    2.80
   3  -3  13  106.60    2.79
  -3   3  13  103.44    3.09
  -3  -3 -12  121.23    3.15
   3   3 -12  127.03    3.33
   3  -3  12  124.25    3.24
  -3   3  12  130.31    3.60
  -3  -3 -11 1005.58   22.68
   3   3 -11 1046.17   22.91
   3  -3  11 1039.81   22.82
  -3   3  11 1035.76   23.17
  -3  -3 -10  105.91    2.72
   3   3 -10  109.31    2.96
   3  -3  10  113.35    2.88
  -3   3  10  108.67    3.12
  -3  -3  -9  339.81    7.61
   3  -3   9  328.75    7.75
  -3  -3  -8  100.60    2.43
   3   3  -8   96.10    2.64
   3  -3   8   94.56    2.57
  -3  -3  -7   32.21    0.94
   3   3  -7   30.65    1.12
   3  -3   7   31.47    1.09
   3   3  -7   30.43    1.21
  -3  -3  -6  231.98    5.23
   3   3  -6  229.40    5.52
   3  -3   6  231.91    5.46
   3   3  -6  224.42    5.61
   3   3  -5  529.69   12.16
   3  -3   5  542.16   12.10
   3   3  -5  537.79   12.25
   3   3  -4   65.71    1.97
   3  -3   4   68.75    1.90
   3   3  -4   66.15    1.94
   3   3  -3  165.02    4.07
   3   3  -3  163.25    4.05
   3   3  -3  161.16    3.78
   3   3  -2   38.47    1.32
   3   3  -2   40.50    1.35
   3   3  -2   40.00    1.10
  -3   3   2   41.71    1.07
   3   3  -1  270.25    6.35
   3   3  -1  274.77    6.01
  -3   3   1  260.33    5.98
  -3   3   0    2.51    0.39
  -3   3   0    2.53    0.19
   3   3   0    2.04    0.17
  -3   3  -1  264.69    6.45
   3   3   1  251.04    5.79
  -3   3  -1  270.06    5.86
  -3   3  -2   39.60    1.54
  -3   3  -2   40.23    1.13
   3   3   2   43.03    1.08
   3   3   2   40.95    1.31
  -3   3  -3  159.58    4.33
  -3   3  -3  160.91    3.80
   3   3   3  168.03    4.01
  -3   3  -4   69.88    2.22
   3   3   4   64.81    1.87
   3   3   4   67.72    1.90
  -3   3  -5  526.81   12.37
   3   3   5  529.17   11.92
   3   3   5  530.42   11.95
   3  -3  -6  228.02    5.78
  -3   3  -6  232.15    5.88
   3   3   6  226.66    5.43
   3   3   6  232.50    5.47
   3   3   7   32.39    1.11
   3   3   7   32.65    1.14
   3   3   8   99.33    2.61
   3   3   9  338.99    7.83
   3  -3 -10  109.35    2.56
   3   3  10  107.41    2.84
   3  -3 -11 1013.30   22.15
  -3   3 -11  999.19   22.82
   3   3  11 1029.83   22.51
   3  -3 -12  126.52    2.90
  -3   3 -12  123.45    3.55
   3   3  12  125.27    3.26
  -3   3 -13   98.37    3.04
   3   3  13  103.78    2.77
  -3   3 -14  128.32    3.72
   3   3  14  131.21    3.43
  -3   3 -15    0.85    0.40
   3   3  15    1.33    0.39
  -3  -3  15    2.20    0.48
  -3   3 -15    1.86    0.41
  -3   3 -16   44.85    1.83
   3   3  16   42.49    1.56
  -3  -3  16   46.38    1.87
  -3   3 -16   49.10    1.81
  -3   3 -17   19.49    1.19
   3   3  17   20.75    1.02
  -3  -3  17   20.87    1.21
  -3   3 -17   23.27    1.20
  -3   3 -18    8.17    0.83
   3   3  18    7.23    0.66
  -3  -3  18    6.98    0.77
  -3   3 -18    7.00    0.71
  -3   3 -19   22.01    1.34
   3   3  19   25.67    1.22
  -3   3 -19   26.66    1.34
  -3   3 -20    5.48    0.78
   3   3  20    3.97    0.61
  -3   3 -21   53.98    2.28
   3   3  21   51.94    1.98
  -3   3 -22   40.53    1.95
   3   3  22   37.76    1.68
  -3   3 -23   19.00    1.37
   3   3  23   17.93    1.16
  -3   3 -24    6.11    0.90
   3   3  24    4.25    0.77
  -3   3 -25    3.45    0.80
   3   3  25    3.60    0.74
  -3   3 -26    2.35    0.77
   3   3  26    3.31    0.79
  -3   3 -27   10.54    1.22
   3   3  27    7.68    0.97
  -3   3 -28   37.18    2.19
   3   3  28   36.57    1.90
  -3   3 -29   12.49    1.36
   3   3  29   12.49    1.22
  -3   3 -30    5.01    1.06
   3   3  30    4.67    0.94
  -3   3 -31   15.49    1.57
  -3   3 -32    2.64    0.91
   3  -3 -32    3.60    0.78
   3  -3 -33    0.37    0.71
  -3   3 -33    0.48    0.93
  -3   3 -34    2.79    0.97
   3  -3 -34    1.42    0.74
  -3   3 -35    3.49    1.06
   3  -3 -35    4.42    0.85
   3  -3 -36    1.57    0.73
   3   4 -38    2.20    0.89
  -3  -4 -37    1.01    0.72
   3   4 -37    1.14    0.74
   3   4 -37   -0.19    0.79
  -3  -4 -36    2.60    0.84
   3   4 -36    0.97    0.83
   3   4 -36    1.63    0.91
  -3  -4 -35    2.93    0.87
   3   4 -35    5.49    1.00
   3   4 -35    5.11    1.11
   3   4 -34    9.97    1.29
  -3  -4 -34    7.88    1.11
   3   4 -34   11.66    1.29
  -3  -4 -33    7.42    1.06
   3   4 -33    6.71    1.09
   3   4 -33    9.79    1.19
   3   4 -32    4.85    1.00
  -3  -4 -32    3.92    0.87
   3   4 -32    4.50    0.99
   3   4 -31    8.43    1.13
  -3  -4 -31    8.75    1.10
   3   4 -31    8.08    1.12
   3   4 -30    8.93    1.17
  -3  -4 -30    9.82    1.12
   3  -4  30    8.26    1.05
  -3  -4 -29    1.69    0.69
   3  -4  29    1.42    0.69
  -3  -4 -28   24.20    1.52
   3  -4  28   22.58    1.50
  -3  -4 -27   11.06    1.09
   3  -4  27   15.55    1.23
  -3  -4 -26   10.07    0.99
   3  -4  26    9.18    1.00
  -3  -4 -25    4.24    0.75
   3  -4  25    4.13    0.81
  -3  -4 -24   10.96    0.96
   3  -4  24   11.60    1.00
  -3  -4 -23    7.26    0.77
   3  -4  23    7.34    0.83
  -3  -4 -22    0.75    0.48
   3  -4  22    1.39    0.53
  -3  -4 -21    9.12    0.79
   3  -4  21    8.79    0.81
  -3  -4 -20    3.26    0.53
   3  -4  20    4.37    0.61
   3  -4  19   14.43    0.92
   3  -4  18   13.29    0.84
   3  -4  17   20.12    1.01
  -3   4  17   19.41    1.18
   3   4 -16   41.47    1.55
   3  -4  16   40.89    1.51
  -3   4  16   43.46    1.77
   3   4 -15   27.75    1.20
   3  -4  15   28.02    1.14
  -3   4  15   27.36    1.34
   3   4 -14   39.34    1.46
   3  -4  14   37.65    1.36
  -3   4  14   37.99    1.59
   3   4 -13   15.47    0.85
   3  -4  13   16.09    0.80
  -3   4  13   16.80    0.98
  -3  -4 -12  186.44    4.41
   3   4 -12  179.81    4.67
   3  -4  12  183.59    4.52
  -3   4  12  182.78    4.84
  -3  -4 -11   63.58    1.72
   3   4 -11   65.49    2.00
   3  -4  11   63.14    1.84
   3   4 -11   60.41    1.55
  -3   4  11   63.84    2.11
  -3  -4 -10  169.63    3.98
   3   4 -10  167.04    4.30
  -3   4  10  169.12    4.44
   3  -4  10  165.24    4.13
  -3  -4  -9   13.87    0.55
  -3   4   9   14.41    0.81
   3   4  -9   12.04    0.75
   3  -4   9   13.63    0.67
   3   4  -9   14.62    0.86
  -3  -4  -8  114.83    2.74
   3   4  -8  115.21    3.08
   3  -4   8  113.78    2.93
   3   4  -8  110.70    3.19
  -3  -4  -7   95.20    2.29
   3   4  -7   98.26    2.67
   3  -4   7   95.34    2.51
   3   4  -7   92.54    2.75
  -3  -4  -6  261.94    5.81
   3   4  -6  252.81    6.23
   3  -4   6  260.66    6.08
   3   4  -6  256.00    6.33
   3   4  -5  106.69    3.00
   3  -4   5  109.92    2.82
   3   4  -5  110.35    2.96
   3   4  -4  370.54    8.65
   3   4  -4  371.76    8.62
   3  -4   4  366.38    8.45
   3   4  -3   57.36    1.81
   3   4  -3   58.24    1.80
   3   4  -3   56.34    1.57
  -3   4   3   57.98    1.52
   3   4  -2   41.25    1.38
   3   4  -2   37.55    1.33
   3   4  -2   37.17    1.11
  -3   4   2   37.04    1.07
   3   4  -1  246.33    5.88
  -3   4   1  241.27    5.53
   3   4  -1  241.61    5.54
   3  -4   0    6.82    0.59
   3   4   0    6.68    0.53
  -3   4   0    7.40    0.38
   3   4   0    7.16    0.36
   3  -4  -1  256.03    6.36
  -3   4  -1  258.54    6.45
  -3   4  -1  257.90    5.83
   3   4   1  250.10    5.76
  -3   4  -2   38.20    1.55
   3  -4  -2   35.45    1.46
  -3   4  -2   38.59    1.14
   3   4   2   36.54    1.05
   3   4   2   39.33    1.30
  -3   4  -3   56.28    2.02
   3  -4  -3   57.96    1.99
  -3   4  -3   54.37    1.58
   3   4   3   59.47    1.51
   3   4   3   58.90    1.76
   3  -4  -4  367.15    8.78
  -3   4  -4  370.13    8.87
   3   4   4  355.84    8.32
   3   4   4  368.40    8.44
   3  -4  -5  109.55    3.23
  -3   4  -5  110.30    3.29
   3   4   5  108.09    2.82
   3   4   5  113.73    2.94
  -3   4  -6  255.08    6.52
   3  -4  -6  255.00    6.45
   3   4   6  253.34    5.97
   3   4   6  256.55    6.09
   3  -4  -7   94.89    2.92
  -3   4  -7   92.97    2.96
   3   4   7   95.87    2.48
   3   4   7   92.34    2.58
  -3   4  -8  110.73    3.38
   3   4   8  111.96    2.86
   3   4   8  110.23    2.97
   3   4   9   12.83    0.65
  -3   4  -9   13.87    0.96
   3  -4 -10  167.55    3.74
   3   4  10  167.99    4.13
   3   4  11   63.28    1.86
   3   4  12  189.75    4.65
  -3   4 -13   15.91    0.99
   3   4  13   15.62    0.79
  -3   4 -14   36.96    1.64
   3   4  14   38.40    1.37
  -3   4 -14   40.53    1.51
  -3   4 -15   26.23    1.37
   3   4  15   26.83    1.13
  -3  -4  15   26.40    1.35
  -3   4 -15   30.24    1.29
  -3   4 -16   42.31    1.84
   3   4  16   41.23    1.53
  -3  -4  16   44.84    1.83
  -3   4 -16   45.22    1.69
  -3   4 -17   19.28    1.24
   3   4  17   20.21    1.02
  -3   4 -17   23.87    1.18
  -3  -4  17   22.92    1.26
  -3   4 -18   12.67    1.03
   3   4  18   12.79    0.84
  -3   4 -18   11.86    0.89
  -3   4 -19   16.60    1.17
   3   4  19   15.38    0.93
  -3   4 -19   16.01    1.02
  -3   4 -20    3.66    0.69
   3   4  20    3.24    0.57
  -3   4 -20    4.01    0.62
  -3   4 -21    8.14    0.94
   3   4  21   10.28    0.86
  -3   4 -22    1.27    0.69
   3   4  22    1.34    0.53
  -3   4 -23    8.14    1.01
   3   4  23    9.38    0.88
  -3   4 -24   11.21    1.19
   3   4  24    9.79    0.95
  -3   4 -25    5.13    0.92
   3   4  25    4.00    0.78
  -3   4 -26   12.51    1.29
   3   4  26   12.18    1.10
  -3   4 -27   10.58    1.25
   3   4  27   10.85    1.11
  -3   4 -28   20.78    1.70
   3   4  28   19.52    1.41
  -3   4 -29    1.97    0.91
   3   4  29    1.90    0.77
  -3   4 -30    9.57    1.26
   3   4  30    8.26    1.05
  -3   4 -31    5.61    1.14
   3  -4 -31    7.19    0.92
   3  -4 -32    3.90    0.80
  -3   4 -32    5.33    1.13
  -3   4 -33    8.73    1.32
   3  -4 -33    6.59    0.96
   3  -4 -34   10.44    1.07
   3   5 -37    8.71    1.12
   3   5 -37    6.33    1.13
   3   5 -37    6.90    1.21
   3   5 -36    1.05    0.76
   3   5 -36    0.97    0.88
  -3  -5 -35    0.91    0.69
   3   5 -35   -0.39    0.82
   3   5 -35    0.10    0.82
  -3  -5 -34    2.18    0.78
   3   5 -34    2.34    0.92
   3   5 -34    0.70    0.88
  -3  -5 -33   10.73    1.18
   3   5 -33   11.89    1.34
   3   5 -33   11.25    1.29
   3   5 -32   12.02    1.33
   3   5 -32   10.18    1.22
  -3  -5 -32   11.63    1.15
   3   5 -31    1.55    0.84
  -3  -5 -31    2.95    0.75
   3   5 -31    1.86    0.80
   3   5 -30    2.01    0.78
  -3  -5 -30    1.59    0.73
   3   5 -30    1.36    0.77
   3   5 -29    3.17    0.90
  -3  -5 -29    3.53    0.79
   3   5 -29    3.43    0.85
   3  -5  29    3.35    0.81
  -3  -5 -28    1.68    0.68
   3   5 -28    1.35    0.73
   3  -5  28    2.47    0.75
  -3  -5 -27    3.75    0.71
   3  -5  27    3.02    0.77
  -3  -5 -26    4.23    0.71
   3  -5  26    4.36    0.79
  -3  -5 -25    0.06    0.52
   3  -5  25    0.34    0.64
  -3  -5 -24    2.65    0.61
   3  -5  24    2.29    0.64
  -3  -5 -23   29.81    1.45
   3  -5  23   29.86    1.51
  -3  -5 -22    7.87    0.76
   3  -5  22    7.84    0.82
   3  -5  21   39.31    1.64
   3  -5  20    5.06    0.64
   3  -5  19   17.56    1.01
   3  -5  18   21.19    1.08
   3  -5  17    4.02    0.53
  -3   5  17    3.78    0.61
   3   5 -17    4.02    0.40
   3   5 -16    9.46    0.76
   3  -5  16   11.41    0.72
  -3   5  16   10.33    0.85
   3   5 -16    9.62    0.55
   3   5 -15   48.78    1.79
   3  -5  15   51.14    1.67
   3   5 -15   48.31    1.47
  -3   5  15   51.72    1.94
   3   5 -14    9.90    0.72
   3  -5  14    9.67    0.64
   3   5 -14    9.39    0.48
  -3   5  14    9.06    0.76
   3   5 -13   20.40    1.02
   3  -5  13   20.12    0.89
   3   5 -13   19.73    0.70
  -3   5  13   20.33    1.08
   3   5 -12   90.38    2.60
   3   5 -12   82.37    2.06
  -3   5  12   85.46    2.64
   3  -5  12   88.28    2.38
   3   5 -11   72.85    2.26
  -3   5  11   73.92    2.34
   3  -5  11   72.31    2.05
   3   5 -11   70.20    2.44
   3   5 -10   56.86    1.88
  -3   5  10   58.23    1.92
   3  -5  10   54.62    1.68
   3   5 -10   59.48    2.07
  -3  -5  -9   32.76    0.96
   3   5  -9   35.75    1.36
  -3   5   9   30.75    1.29
   3  -5   9   33.27    1.14
   3   5  -9   31.81    1.41
  -3  -5  -8    2.67    0.22
   3   5  -8    2.64    0.46
  -3   5   8    2.85    0.40
   3   5  -8    2.83    0.42
   3   5  -8    2.90    0.43
   3  -5   8    2.56    0.34
  -3  -5  -7   87.12    2.06
  -3   5   7   88.28    2.50
   3   5  -7   84.78    2.52
   3  -5   7   84.17    2.29
   3   5  -7   88.75    2.65
   3   5  -6  118.44    3.29
  -3  -5  -6  117.02    2.67
   3  -5   6  115.88    2.96
   3   5  -6  114.24    3.18
   3   5  -5  206.29    5.27
   3  -5   5  208.69    4.96
   3   5  -5  210.98    5.21
   3   5  -4  238.78    5.34
   3   5  -4  247.02    5.97
   3  -5   4  242.76    5.67
   3   5  -4  247.19    5.71
   3   5  -4  239.80    5.91
   3   5  -3   59.76    1.90
   3   5  -3   59.99    1.89
   3  -5   3   58.25    1.68
   3   5  -3   56.00    1.66
   3   5  -2  144.22    3.86
   3   5  -2  150.90    3.64
   3   5  -1  341.23    7.89
   3   5  -1  326.15    7.57
   3   5   0   96.80    2.71
   3  -5   0   92.79    2.89
   3   5   0   92.78    2.39
  -3   5  -1  335.74    8.26
   3   5   1  341.86    7.93
   3  -5  -1  340.93    8.19
   3   5   1  323.78    7.54
  -3   5  -2  142.17    4.10
   3  -5  -2  142.81    4.03
   3   5   2  144.58    3.74
   3   5   2  144.06    3.45
  -3   5  -3   62.02    2.20
   3  -5  -3   58.93    2.13
   3   5   3   58.73    1.71
   3   5   3   61.45    1.64
   3   5   3   59.63    1.88
   3  -5  -4  239.31    6.00
  -3   5  -4  231.59    6.02
   3   5   4  233.20    5.39
   3   5   4  217.34    5.30
   3   5   4  235.94    5.61
   3  -5  -5  201.77    5.40
  -3   5  -5  211.61    5.50
   3   5   5  198.97    4.82
   3   5   5  206.11    5.05
   3  -5  -6  116.24    3.50
  -3   5  -6  118.53    3.56
   3   5   6  116.97    2.96
   3   5   6  116.82    3.15
  -3   5  -7   82.30    2.80
   3  -5  -7   83.43    2.77
   3   5   7   85.65    2.25
   3   5   7   83.49    2.43
  -3   5  -8    2.78    0.53
   3   5   8    2.65    0.33
   3   5   8    2.00    0.40
   3   5   9   31.88    1.10
  -3   5  -9   31.66    1.54
   3   5  10   55.66    1.65
  -3   5 -10   54.64    2.18
   3   5  11   73.62    2.08
  -3   5 -11   74.63    2.68
   3   5  12   88.06    2.45
  -3   5 -12   94.02    2.57
  -3   5 -12   85.66    3.05
   3   5  13   20.67    0.91
  -3   5 -13   22.93    0.99
   3   5  14    8.73    0.61
  -3   5 -14    9.91    0.67
   3   5  15   50.71    1.70
  -3   5 -15   53.42    1.82
  -3  -5  15   53.77    2.03
  -3   5 -16   10.64    0.94
   3   5  16   10.10    0.71
  -3  -5  16   11.03    0.88
  -3   5 -16   10.59    0.75
  -3   5 -17    4.99    0.73
   3   5  17    5.06    0.57
  -3   5 -17    4.27    0.55
  -3  -5  17    3.83    0.62
  -3   5 -18   22.99    1.42
   3   5  18   22.48    1.12
  -3   5 -18   24.55    1.21
  -3   5 -19   14.80    1.20
   3   5  19   16.65    0.98
  -3   5 -19   18.51    1.06
  -3   5 -20    3.14    0.72
   3   5  20    4.83    0.64
  -3   5 -20    4.56    0.61
  -3   5 -21   36.49    1.93
   3   5  21   34.05    1.53
  -3   5 -22    8.69    1.02
   3   5  22    9.09    0.85
  -3   5 -23   29.28    1.81
   3   5  23   27.32    1.44
  -3   5 -24    3.22    0.83
   3   5  24    2.16    0.64
  -3   5 -25   -0.21    0.70
   3   5  25   -0.14    0.63
  -3   5 -26    3.83    0.93
   3   5  26    4.29    0.77
  -3   5 -27    4.09    0.98
   3   5  27    3.96    0.81
  -3   5 -28    3.53    0.94
   3   5  28    2.62    0.72
  -3   5 -29    4.00    1.07
   3   5  29    2.88    0.80
  -3   5 -30    1.36    0.88
  -3   5 -31    0.75    0.84
   3  -5 -31    2.06    0.70
   3  -5 -32    9.83    0.99
   3   6 -37    6.70    1.04
   3   6 -36    2.58    0.90
   3   6 -36    4.51    0.99
   3   6 -35    1.32    0.87
   3   6 -35    1.39    0.92
   3   6 -34   12.43    1.33
   3   6 -34   12.99    1.43
  -3  -6 -33    5.35    0.89
   3   6 -33    3.50    0.91
   3   6 -33    3.34    0.97
  -3  -6 -32    1.41    0.70
   3   6 -32    1.72    0.84
   3   6 -32    1.10    0.83
  -3  -6 -31    7.00    0.93
   3   6 -31    5.99    1.01
   3   6 -31    5.81    1.09
  -3  -6 -30   14.44    1.23
   3   6 -30   17.02    1.41
   3   6 -30   16.13    1.47
   3   6 -29    1.23    0.82
   3   6 -29    2.13    0.77
  -3  -6 -29    2.26    0.67
   3   6 -28    0.08    0.65
  -3  -6 -28    0.21    0.55
   3  -6  28    0.51    0.70
  -3  -6 -27    3.39    0.70
   3   6 -27    3.01    0.80
   3  -6  27    3.87    0.84
  -3  -6 -26   26.04    1.43
   3   6 -26   25.71    1.58
   3  -6  26   23.01    1.43
   3   6 -25    0.37    0.60
  -3  -6 -25    1.26    0.57
   3  -6  25    0.84    0.63
  -3  -6 -24   -0.34    0.55
   3   6 -24    0.76    0.58
   3  -6  24    0.25    0.62
   3   6 -23   46.40    1.98
   3  -6  23   44.36    1.89
   3  -6  22   58.33    2.15
   3  -6  21   21.58    1.19
   3  -6  20    3.31    0.57
   3  -6  19   10.69    0.81
   3  -6  18    4.45    0.58
   3  -6  17   53.26    1.80
   3   6 -17   52.14    1.59
   3  -6  16   20.23    0.97
   3   6 -16   19.24    0.78
   3   6 -15   21.75    1.15
  -3   6  15   22.54    1.20
   3   6 -15   21.02    0.79
   3  -6  15   22.22    1.00
   3   6 -14   24.34    1.19
   3   6 -14   23.35    0.81
  -3   6  14   26.98    1.28
   3  -6  14   24.52    1.04
   3   6 -14   26.42    1.44
   3   6 -13   12.83    0.85
  -3   6  13   12.60    0.85
   3  -6  13   11.62    0.67
   3   6 -13   10.47    0.91
   3   6 -12    2.32    0.55
   3   6 -12    2.76    0.49
  -3   6  12    2.30    0.46
   3  -6  12    2.47    0.38
   3   6 -11   45.56    1.66
  -3   6  11   43.74    1.61
   3  -6  11   41.31    1.36
   3   6 -11   38.85    1.73
   3   6 -10   61.02    2.01
  -3   6  10   58.17    1.95
   3  -6  10   58.52    1.72
   3   6 -10   59.06    2.14
   3   6  -9  118.85    2.95
   3   6  -9  127.20    3.43
  -3   6   9  123.93    3.33
   3  -6   9  118.10    3.06
   3   6  -9  122.92    3.57
  -3  -6  -8  428.32    9.47
   3   6  -8  422.12    9.57
   3   6  -8  447.20   10.12
   3   6  -8  423.68   10.24
   3  -6   8  426.24    9.72
  -3   6   8  429.48    9.96
   3   6  -8  434.47   10.11
   3   6  -7   48.43    1.31
   3   6  -7   52.13    1.86
  -3  -6  -7   50.24    1.22
   3  -6   7   48.26    1.46
   3   6  -7   48.57    1.75
   3   6  -7   49.70    1.75
  -3   6   7   48.14    1.62
   3   6  -6  812.72   18.33
   3   6  -6  799.64   17.61
  -3   6   6  813.38   18.01
   3   6  -6  811.71   18.22
   3  -6   6  796.37   17.82
   3   6  -5  474.27   11.01
   3   6  -5  468.39   10.30
  -3   6   5  464.34   10.69
   3   6  -5  475.92   10.94
   3  -6   5  458.01   10.54
   3   6  -5  474.66   10.75
  -3   6   5  468.49   10.63
   3   6  -4  163.39    4.23
   3   6  -4  158.11    4.16
   3   6  -4  158.59    3.97
   3  -6   4  153.94    3.82
  -3   6   4  156.08    3.87
   3   6  -3   66.27    2.11
   3  -6   3   64.91    1.82
   3   6  -3   68.14    1.94
  -3   6   3   64.10    1.85
   3   6  -2    6.26    0.57
   3  -6   2    7.28    0.46
   3   6  -2    5.70    0.46
  -3   6   2    6.54    0.45
   3   6  -1   89.88    2.59
   3   6  -1   82.39    2.31
  -3   6   1   84.72    2.30
   3   6   0  106.32    2.98
   3   6   0   98.73    2.67
  -3   6   0  104.51    2.72
   3   6   1   83.17    2.56
  -3  -6   1   88.04    2.19
  -3   6  -1   83.67    2.33
   3   6   1   82.60    2.49
   3   6   1   85.30    2.28
  -3   6  -2    5.69    0.67
   3   6   2    6.61    0.59
   3  -6  -2    6.42    0.64
  -3  -6   2    6.83    0.32
   3   6   2    6.31    0.43
  -3   6  -2    6.82    0.48
   3   6   2    7.13    0.58
   3   6   2    5.55    0.42
  -3   6  -3   68.40    2.44
   3  -6  -3   66.34    2.35
   3   6   3   64.37    1.81
  -3   6  -3   65.93    1.95
   3   6   3   65.56    1.84
   3   6   3   68.11    2.09
  -3   6  -4  156.69    4.57
   3  -6  -4  160.59    4.53
   3   6   4  155.72    3.84
  -3   6  -4  153.61    4.02
   3   6   4  154.84    4.14
  -3   6  -5  472.06   11.31
   3  -6  -5  476.02   11.26
   3   6   5  463.45   10.47
  -3   6  -5  457.14   10.69
   3   6   5  467.26   10.54
   3   6   5  462.70   10.81
  -3   6  -6  778.28   18.63
   3  -6  -6  795.81   18.63
   3   6   6  809.12   17.82
   3   6   6  815.55   18.16
   3  -6  -7   47.97    1.99
  -3   6  -7   51.96    2.07
   3   6   7   49.84    1.45
  -3   6  -7   47.40    1.21
   3   6   7   48.52    1.69
   3  -6  -8  413.82   10.29
  -3   6  -8  417.51   10.34
   3   6   8  416.36    9.49
   3   6   8  424.74    9.83
  -3   6  -9  118.71    3.79
   3   6   9  124.18    3.09
   3   6   9  119.72    3.37
   3   6  10   59.31    1.72
  -3   6 -10   57.69    2.32
   3   6  11   39.02    1.31
  -3   6 -11   42.71    1.37
   3   6  12    2.27    0.36
  -3   6 -12    1.97    0.32
   3   6  13   10.59    0.64
  -3   6 -13   11.73    0.67
   3   6  14   25.15    1.05
  -3   6 -14   27.46    1.11
   3   6  15   21.08    0.99
  -3   6 -15   23.66    1.04
  -3  -6  15   23.82    1.24
   3   6  16   19.59    0.97
  -3  -6  16   20.23    1.17
  -3   6 -16   21.35    1.03
   3   6  17   52.99    1.81
  -3   6 -17   54.78    1.88
  -3  -6  17   53.13    2.08
   3   6  18    4.58    0.57
  -3   6 -18    5.20    0.57
   3   6  19   10.27    0.79
  -3   6 -19   10.67    0.80
   3   6  20    3.82    0.59
  -3   6 -21   20.12    1.49
   3   6  21   20.29    1.17
  -3   6 -22   55.55    2.59
   3   6  22   56.83    2.13
  -3   6 -23   41.74    2.23
   3   6  23   43.28    1.85
  -3   6 -24    0.11    0.71
   3   6  24    0.83    0.61
  -3   6 -25    1.10    0.75
   3   6  25    0.78    0.61
   3   6  26   23.13    1.42
   3   6  27    4.37    0.81
   3   6  28    0.29    0.66
   3   7 -36    0.44    0.72
   3   7 -36    0.28    0.80
   3   7 -35    2.09    0.82
   3   7 -35    1.08    0.87
   3   7 -34    4.74    0.99
   3   7 -33    1.22    0.79
   3   7 -32    4.79    0.97
   3   7 -31    4.39    0.94
   3   7 -30    8.10    1.10
  -3  -7 -30    6.38    0.85
  -3  -7 -29   10.90    1.02
   3   7 -29   12.04    1.24
   3   7 -28    2.58    0.80
  -3  -7 -28    1.11    0.60
   3   7 -27    9.79    1.06
  -3  -7 -27    7.98    0.88
   3  -7  27    8.96    0.99
   3   7 -26    1.97    0.75
  -3  -7 -26    1.74    0.58
   3  -7  26    2.89    0.71
   3   7 -25    5.24    0.85
  -3  -7 -25    6.15    0.75
   3  -7  25    6.52    0.83
   3   7 -24    3.26    0.71
  -3  -7 -24    4.48    0.67
   3  -7  24    4.81    0.76
   3   7 -23    2.44    0.65
   3  -7  23    2.42    0.64
   3   7 -22    6.43    0.80
   3  -7  22    5.81    0.75
   3   7 -21   77.98    2.63
   3  -7  21   73.69    2.50
   3   7 -20    9.45    0.84
   3  -7  20    9.62    0.81
   3   7 -19   19.99    1.11
   3  -7  19   18.52    1.03
   3   7 -18    3.99    0.58
   3   7 -18    4.50    0.83
   3  -7  18    5.49    0.61
   3   7 -17    8.25    0.69
   3   7 -17    6.21    0.87
   3  -7  17    9.16    0.69
   3   7 -16    2.98    0.48
   3   7 -16    3.87    0.76
   3  -7  16    2.94    0.47
   3   7 -15    3.96    0.48
   3   7 -15    4.59    0.76
   3  -7  15    4.90    0.51
   3   7 -15    4.91    0.65
   3   7 -14    0.03    0.29
   3   7 -14    0.93    0.49
   3   7 -14    0.62    0.45
   3  -7  14    0.63    0.36
   3   7 -13  132.33    3.44
   3   7 -13  131.06    3.77
   3  -7  13  134.23    3.43
   3   7 -13  137.16    4.10
   3   7 -12   14.25    0.70
   3   7 -12   14.44    0.93
  -3   7  12   12.45    0.83
   3  -7  12   13.54    0.70
   3   7 -12   13.85    1.05
   3   7 -11   10.94    0.58
   3   7 -11   11.33    0.82
  -3   7  11   11.48    0.76
   3  -7  11   10.14    0.59
   3   7 -11   11.74    0.93
   3   7 -10   33.54    1.57
   3   7 -10   32.50    1.42
   3   7 -10   33.18    1.08
   3  -7  10   30.44    1.09
  -3   7  10   33.53    1.32
   3   7  -9   27.15    1.27
   3   7  -9   29.64    1.42
   3   7  -9   28.23    0.94
   3  -7   9   28.19    1.00
  -3   7   9   26.19    1.13
   3   7  -8   68.83    2.26
   3   7  -8   70.53    2.42
   3   7  -8   69.30    1.82
   3  -7   8   68.92    1.91
  -3   7   8   70.52    2.11
   3   7  -8   72.49    2.33
   3   7  -7   64.89    2.26
   3   7  -7   64.34    1.67
   3   7  -7   69.55    2.21
  -3   7   7   63.45    1.94
   3   7  -7   67.43    2.21
   3  -7   7   62.49    1.78
   3   7  -6   68.43    2.33
   3   7  -6   67.82    2.22
   3   7  -6   69.87    2.26
  -3   7   6   70.78    2.00
   3  -7   6   66.48    1.85
   3   7  -6   61.81    2.10
  -3   7   6   72.23    2.05
   3   7  -5  128.47    3.64
  -3   7   5  127.24    3.23
   3   7  -5  128.20    3.57
   3   7  -5  125.19    3.40
   3  -7   5  124.97    3.11
  -3   7   5  125.08    3.29
  -3   7   4   19.13    0.78
   3   7  -4   17.97    0.99
   3  -7   4   19.65    0.75
   3   7  -4   17.52    0.88
  -3   7   4   18.61    0.85
   3   7  -3   88.82    2.68
  -3   7   3   86.61    2.28
   3  -7   3   86.05    2.26
   3   7  -3   87.40    2.49
  -3   7   3   86.80    2.41
  -3   7   2   21.17    0.78
   3   7  -2   20.41    1.06
   3  -7   2   20.55    0.80
   3   7  -2   22.52    0.97
  -3   7   2   21.31    0.91
  -3   7   1   64.12    1.72
   3   7  -1   65.90    2.18
   3   7  -1   65.27    1.95
  -3   7   1   64.14    1.92
   3   7   0    0.55    0.37
   3   7   0    0.15    0.26
  -3   7   0    0.22    0.26
  -3  -7   1   67.86    1.83
   3   7   1   61.93    1.90
   3   7   1   67.01    2.15
  -3   7  -1   64.76    1.98
  -3  -7   2   23.52    0.78
  -3   7  -2   22.33    0.98
   3   7   2   21.12    1.07
   3   7   2   20.73    0.90
  -3   7  -3   87.75    3.01
   3   7   3   85.07    2.23
  -3   7  -3   87.06    2.50
   3   7   3   87.86    2.63
   3   7   3   86.58    2.36
  -3   7  -4   19.89    1.25
   3  -7  -4   19.77    1.20
  -3   7  -4   19.49    0.94
   3   7   4   18.58    0.73
   3   7   4   17.88    0.82
   3   7   4   20.85    1.02
  -3   7  -5  124.53    3.90
   3  -7  -5  121.80    3.81
   3   7   5  126.79    3.07
  -3   7  -5  121.40    3.37
   3   7   5  123.23    3.22
   3   7   5  125.00    3.47
   3  -7  -6   66.52    2.53
  -3   7  -6   64.98    2.53
   3   7   6   70.32    1.85
  -3   7  -6   63.96    2.13
   3   7   6   70.86    2.24
   3   7   6   70.14    2.02
   3  -7  -7   57.96    2.39
  -3   7  -7   65.72    1.68
  -3   7  -7   62.38    2.46
   3   7   7   65.15    1.77
   3   7   7   63.83    2.12
  -3   7  -8   67.30    1.71
   3  -7  -8   69.25    2.61
  -3   7  -8   67.91    2.62
  -3   7  -8   70.36    1.81
   3   7   8   70.52    1.89
   3   7   8   71.48    2.26
   3  -7  -9   27.04    1.52
  -3   7  -9   29.82    0.94
   3   7   9   28.12    0.99
   3   7   9   31.09    1.30
  -3   7  -9   26.43    0.86
  -3   7 -10   32.84    1.06
   3   7  10   31.99    1.10
  -3   7 -10   31.78    1.01
   3   7  11   11.59    0.62
   3   7  12   11.98    0.66
   3   7  13  131.80    3.44
  -3   7 -13  136.92    3.45
   3   7  14    0.91    0.35
  -3   7 -14    0.50    0.29
   3   7  15    3.86    0.49
  -3  -7  15    4.75    0.63
  -3   7 -15    4.92    0.48
   3   7  16    2.91    0.47
  -3  -7  16    3.11    0.58
   3   7  17    7.79    0.66
   3   7  18    5.57    0.61
   3   7  19   18.32    1.02
   3   7  20    8.34    0.77
   3   7  21   80.69    2.63
   3   7  22    5.54    0.73
   3   7  23    3.03    0.66
   3   7  24    2.82    0.70
   3   7  25    5.52    0.80
   3   7  26    2.49    0.70
   3   7  27    8.13    0.92
   3   8 -36    6.08    1.14
   3   8 -35   -0.52    0.71
   3   8 -35    1.28    0.85
   3   8 -34    6.48    1.03
   3   8 -34    5.78    1.18
   3   8 -33    1.63    0.83
   3   8 -33    1.61    1.00
   3   8 -32    3.72    0.96
   3   8 -31   12.03    1.33
   3   8 -31   12.69    1.29
   3   8 -30   12.48    1.28
   3   8 -30   12.41    1.36
   3   8 -29   -0.09    0.70
   3   8 -29    0.39    0.74
   3   8 -28    4.02    0.98
   3   8 -28    4.28    0.85
   3   8 -27    4.65    0.94
   3   8 -27    2.40    0.76
   3   8 -26    5.03    0.94
   3   8 -26    4.95    0.85
   3  -8  26    5.00    0.79
   3   8 -25    0.99    0.64
  -3  -8 -25    1.94    0.56
   3  -8  25    2.30    0.64
   3   8 -24    3.42    0.69
  -3  -8 -24    2.92    0.57
   3  -8  24    2.78    0.67
   3   8 -23   -0.07    0.57
   3  -8  23    0.06    0.52
   3   8 -22    6.12    0.80
   3  -8  22    5.63    0.73
   3   8 -21   63.89    2.37
   3  -8  21   64.40    2.26
   3   8 -20   17.20    1.12
   3  -8  20   17.23    1.03
   3   8 -19   40.07    1.67
   3  -8  19   38.95    1.55
   3   8 -18   15.89    0.98
   3  -8  18   16.54    0.93
   3   8 -17   20.52    1.08
   3  -8  17   21.97    1.04
   3   8 -16   49.27    1.71
   3  -8  16   43.99    1.58
   3   8 -15    6.55    0.59
   3  -8  15    6.12    0.55
   3   8 -15    5.72    0.74
   3   8 -14   12.90    0.95
   3   8 -14   13.79    0.78
   3  -8  14   13.91    0.75
   3   8 -13   20.00    1.16
   3   8 -13   20.90    0.93
   3  -8  13   19.65    0.87
   3   8 -12    9.02    0.77
   3   8 -12    8.74    0.57
   3  -8  12    8.97    0.57
   3   8 -11   52.93    1.96
   3   8 -11   48.57    1.55
   3  -8  11   53.52    1.56
   3   8 -10   95.53    2.90
   3   8 -10   85.32    3.02
   3   8 -10   91.61    2.42
   3  -8  10   92.86    2.42
   3   8  -9   75.01    2.70
   3   8  -9   79.76    2.57
   3   8  -9   77.89    2.09
   3  -8   9   80.21    2.11
   3   8  -8  514.66   12.11
   3   8  -8  515.05   12.32
   3  -8   8  509.82   11.52
   3   8  -8  524.32   12.10
   3   8  -7   41.47    1.62
   3   8  -7   39.48    1.72
  -3   8   7   39.05    1.33
   3   8  -7   37.73    1.62
   3   8  -7   38.51    1.57
   3  -8   7   36.85    1.17
   3   8  -6  109.92    3.44
   3   8  -6  120.90    3.42
  -3   8   6  117.02    3.00
   3   8  -6  113.92    3.28
   3  -8   6  111.31    2.83
  -3   8   6  117.29    3.16
  -3   8   5   24.03    0.90
   3   8  -5   24.26    1.22
   3  -8   5   22.48    0.81
   3   8  -5   21.31    1.07
  -3   8   5   23.39    1.04
  -3   8   4  158.07    3.79
   3   8  -4  158.84    4.31
   3  -8   4  153.46    3.73
   3   8  -4  163.39    4.18
  -3   8   4  151.10    4.01
  -3   8   3   19.09    0.74
   3   8  -3   20.41    1.11
   3  -8   3   21.37    0.76
   3   8  -3   20.68    1.02
  -3   8   3   19.88    0.93
  -3   8   2   74.29    1.90
   3   8  -2   76.47    2.49
   3  -8   2   75.92    1.97
   3   8  -2   73.83    2.28
  -3   8   2   71.76    2.21
  -3   8   1   34.35    0.96
   3  -8   1   33.80    1.66
   3  -8   1   33.07    1.07
   3   8  -1   33.59    1.31
  -3   8   1   34.51    1.31
  -3   8   0    2.89    0.20
  -3  -8   0    2.65    0.34
   3   8   0    2.61    0.47
   3   8   0    3.38    0.43
  -3   8   0    1.85    0.38
  -3  -8   1   34.87    1.17
  -3   8  -1   31.88    0.83
   3   8   1   33.71    1.43
  -3   8  -1   34.39    1.32
   3   8   1   33.93    1.26
  -3  -8   2   77.12    2.05
  -3   8  -2   71.67    2.29
   3   8   2   71.58    2.40
   3   8   2   75.79    2.22
   3   8   3   20.53    0.74
  -3   8  -3   18.75    0.99
   3   8   3   20.44    1.07
   3   8   3   21.53    0.94
   3   8   4  147.95    4.27
  -3   8  -4  150.97    4.11
   3   8   4  153.54    3.67
   3   8   4  162.52    3.98
   3   8   4  153.99    4.21
  -3   8  -5   21.05    1.35
   3   8   5   23.65    1.26
   3   8   5   24.60    0.82
  -3   8  -5   22.98    1.12
   3   8   5   20.92    0.98
   3   8   5   24.58    1.19
  -3   8  -6  108.28    3.73
   3   8   6  114.75    3.44
   3  -8  -6  113.58    3.71
  -3   8  -6  106.09    3.25
   3   8   6  116.70    2.83
   3   8   6  115.81    3.33
   3   8   6  120.35    3.16
   3   8   7   38.13    1.68
   3  -8  -7   37.87    1.84
  -3   8  -7   37.69    1.56
   3   8   7   37.91    1.16
   3   8   7   38.52    1.55
   3  -8  -8  512.44   12.70
   3   8   8  525.50   11.61
  -3   8  -8  506.05   12.16
   3   8   8  516.62   12.16
  -3   8  -9   78.53    1.98
   3  -8  -9   76.17    2.91
   3   8   9   80.47    2.10
   3   8   9   76.47    2.52
  -3   8 -10   87.19    2.27
   3  -8 -10   92.86    3.27
   3   8  10   92.58    2.37
   3   8  11   52.34    1.57
  -3   8 -12    9.78    0.99
   3   8  12    9.25    0.57
  -3   8 -12    9.11    0.53
   3   8  13   20.32    0.88
  -3   8 -13   18.97    0.83
   3   8  14   13.76    0.74
  -3  -8  14   12.71    0.91
   3   8  15    6.37    0.58
  -3  -8  15    7.99    0.74
   3   8  16   45.14    1.58
  -3  -8  16   45.66    1.83
   3   8  17   19.29    0.98
   3   8  18   17.64    0.96
   3   8  19   38.73    1.54
   3   8  20   16.58    1.02
   3   8  21   65.12    2.31
   3   8  22    4.94    0.68
   3   8  23   -0.22    0.53
   3   8  24    4.17    0.69
   3   8  25    2.48    0.64
   3   8  26    5.24    0.79
   3   9 -35    1.88    0.86
   3   9 -35    0.55    0.75
   3   9 -34    1.68    0.71
   3   9 -34    3.23    0.93
   3   9 -34    1.73    0.86
   3   9 -33    0.26    0.71
   3   9 -33    0.98    0.83
   3   9 -33    1.91    0.87
   3   9 -32    3.76    0.90
   3   9 -32    4.55    1.05
   3   9 -32    5.41    1.12
   3   9 -31    5.70    0.98
   3   9 -31    4.00    1.07
   3   9 -31    4.87    1.06
   3   9 -30   -0.09    0.66
   3   9 -30    0.76    0.80
   3   9 -30   -0.49    0.81
   3   9 -29    2.40    0.76
   3   9 -29    0.25    0.91
   3   9 -29    2.82    0.92
   3   9 -28    0.34    0.64
   3   9 -28    0.13    0.78
   3   9 -27    6.87    0.93
   3   9 -27    4.95    1.13
   3   9 -27    6.96    1.08
   3   9 -26   12.58    1.26
   3   9 -26   12.66    1.44
   3   9 -26   13.39    1.19
   3   9 -25    5.22    0.92
   3   9 -25    4.01    0.82
   3   9 -24   37.19    1.96
   3   9 -24   38.06    1.86
   3  -9  24   34.91    1.63
   3   9 -23   -0.07    0.59
   3  -9  23    0.05    0.53
   3   9 -22    7.23    0.82
   3  -9  22    4.77    0.66
   3   9 -21    7.62    0.82
   3  -9  21    7.40    0.75
   3   9 -20   12.68    0.99
   3  -9  20   13.83    0.95
   3   9 -19   50.52    1.96
   3  -9  19   49.83    1.82
   3   9 -18    7.95    0.75
   3  -9  18    7.46    0.67
   3   9 -17   10.37    0.79
   3  -9  17   10.86    0.74
   3   9 -16   67.27    2.21
   3  -9  16   68.47    2.08
   3   9 -15    0.20    0.37
   3  -9  15    0.93    0.37
   3   9 -14   19.60    1.21
   3   9 -14   18.63    0.94
   3  -9  14   19.09    0.87
   3   9 -13   53.67    2.10
   3   9 -13   53.36    1.74
   3  -9  13   54.08    1.65
   3   9 -12    4.54    0.47
   3  -9  12    3.93    0.42
   3   9 -12    4.70    0.66
   3   9 -11  143.33    4.05
   3  -9  11  136.92    3.44
   3   9 -10   46.32    1.84
   3  -9  10   44.19    1.35
   3   9  -9   21.47    1.19
   3  -9   9   22.82    0.83
   3   9  -9   22.26    1.24
   3   9  -8   32.60    1.49
   3  -9   8   31.55    1.03
   3   9  -8   36.02    1.54
   3   9  -7    5.11    0.65
   3  -9   7    4.81    0.36
  -3   9   7    5.80    0.58
   3   9  -7    4.71    0.62
   3  -9   6    3.59    0.31
   3   9  -6    2.76    0.51
  -3   9   6    2.80    0.47
   3   9  -5   23.97    1.25
   3   9  -5   20.88    1.13
   3  -9   5   22.79    0.77
  -3   9   5   21.78    1.06
   3   9  -4   40.65    1.65
   3   9  -4   41.92    1.72
   3   9  -4   37.71    1.56
   3  -9   4   39.58    1.15
  -3   9   4   38.86    1.49
   3   9  -3    1.96    0.49
   3  -9   3    1.56    0.25
  -3   9   3    0.93    0.38
   3   9  -3    1.36    0.42
   3  -9   2   14.19    0.57
   3   9  -2   14.77    0.89
  -3   9   2   14.29    0.84
  -3  -9  -1  103.86    2.88
   3  -9   1   98.14    3.33
   3  -9   1   99.27    2.45
   3   9  -1   99.54    2.90
  -3   9   1   92.66    2.84
   3  -9   0   19.45    1.28
  -3  -9   0   21.20    0.96
   3  -9   0   21.01    0.74
   3   9   0   18.95    1.00
  -3   9   0   18.53    1.01
  -3  -9   1  100.82    2.73
   3  -9  -1   96.84    3.34
   3  -9  -1   96.57    2.49
  -3   9  -1  102.00    2.93
   3   9   1   98.76    2.86
  -3  -9   2   14.92    0.70
   3   9   2   12.23    0.92
  -3   9  -2   11.71    0.83
   3   9   2   13.66    0.94
   3   9   2   14.07    0.82
   3   9   3    1.81    0.48
   3   9   3    0.65    0.34
  -3   9  -3    1.55    0.40
   3   9   3    1.37    0.44
   3   9   4   38.05    1.69
   3   9   4   40.19    1.14
  -3   9  -4   39.29    1.60
   3   9   4   40.13    1.48
   3   9   4   39.66    1.64
   3   9   5   22.94    1.24
  -3   9  -5   18.30    1.07
   3   9   5   22.65    0.74
   3   9   5   22.01    1.17
   3   9   5   18.64    0.99
   3   9   6    3.37    0.59
   3   9   6    3.60    0.32
   3   9   6    4.01    0.56
  -3   9  -6    4.42    0.58
   3   9   6    4.05    0.50
   3   9   7    4.69    0.64
   3   9   7    4.87    0.35
  -3   9  -7    4.00    0.60
   3   9   7    4.49    0.53
   3   9   7    4.01    0.58
   3   9   8   30.26    1.52
   3  -9  -8   33.00    1.76
   3   9   8   34.03    1.04
  -3   9  -8   31.50    1.49
   3   9   8   32.85    1.47
   3  -9  -9   20.54    1.42
  -3   9  -9   23.05    1.51
   3   9   9   22.46    1.31
   3   9   9   23.25    0.83
  -3   9  -9   23.38    1.28
   3   9   9   23.43    1.23
  -3   9 -10   43.73    1.87
   3   9  10   44.11    1.33
   3   9  11  141.26    3.49
  -3   9 -12    3.37    0.36
   3   9  12    3.81    0.42
  -3   9 -13   51.45    1.57
   3   9  13   51.75    1.60
  -3  -9  14   18.72    1.07
   3   9  14   19.67    0.88
  -3   9 -14   19.13    0.86
  -3   9 -15    0.61    0.33
  -3  -9  15    0.84    0.48
   3   9  15    1.08    0.37
   3   9  16   68.84    2.08
  -3   9 -16   66.61    2.08
   3   9  17   10.90    0.74
  -3   9 -17   10.36    0.73
   3   9  18    7.82    0.69
  -3   9 -18    7.04    0.65
   3   9  19   52.30    1.88
   3   9  20   12.31    0.88
   3   9  21    7.33    0.75
   3   9  22    4.31    0.66
   3   9  23    0.32    0.54
   3   9  24   33.53    1.59
   3  10 -34   -0.28    0.86
   3  10 -34    0.22    0.85
   3  10 -33    0.95    0.85
   3  10 -33    0.11    0.86
   3  10 -32    0.48    0.78
   3  10 -32   -0.12    0.83
   3  10 -31    5.94    1.18
   3  10 -31    8.89    1.23
   3  10 -30    1.33    0.77
   3  10 -30    1.26    0.86
   3  10 -30    0.49    0.86
   3  10 -29    0.33    0.63
   3  10 -29    1.86    0.91
   3  10 -29    0.67    0.84
   3  10 -28    8.12    1.02
   3  10 -28    8.43    1.25
   3  10 -28    6.82    1.13
   3  10 -27    9.08    1.03
   3  10 -27    7.16    1.19
   3  10 -27    7.84    1.11
   3  10 -26    7.35    0.94
   3  10 -26    5.86    1.19
   3  10 -26    6.88    1.04
   3  10 -25    6.79    0.91
   3  10 -25    3.49    1.03
   3  10 -25    5.33    0.97
   3  10 -24   16.19    1.33
   3  10 -24   17.06    1.24
   3  10 -24   14.75    1.51
   3  10 -23   15.63    1.31
   3  10 -23   15.41    1.17
   3  10 -23   12.80    1.40
   3  10 -22   24.10    1.53
   3  10 -22   23.48    1.80
   3  10 -22   23.33    1.39
   3 -10  22   22.59    1.22
   3  10 -21   23.38    1.45
   3  10 -21   18.35    1.59
   3  10 -21   20.12    1.26
   3 -10  21   21.49    1.14
   3  10 -20   54.91    2.71
   3  10 -20   59.09    2.25
   3 -10  20   62.27    2.06
   3  10 -19   15.32    1.42
   3  10 -19   16.41    1.07
   3 -10  19   14.88    0.91
   3  10 -18   58.90    2.72
   3  10 -18   59.63    2.16
   3 -10  18   62.37    2.01
   3  10 -17    1.69    0.49
   3  10 -17    2.21    0.79
   3 -10  17    2.44    0.50
   3  10 -16    9.06    0.75
   3 -10  16   10.11    0.68
   3 -10  15   53.83    1.70
   3 -10  14   11.72    0.67
   3  10 -13   20.18    1.25
   3 -10  13   19.94    0.85
   3  10 -12   26.75    1.41
   3  10 -12   24.22    1.45
   3 -10  12   24.20    0.94
   3  10 -11   68.09    2.46
   3 -10  11   67.53    1.86
   3  10 -11   66.86    2.53
   3  10 -10   17.09    1.12
   3 -10  10   15.96    0.68
   3  10 -10   18.24    1.19
   3  10  -9   20.27    1.23
   3 -10   9   19.75    0.74
   3  10  -8   38.75    1.72
   3 -10   8   36.86    1.11
   3  10  -7   26.38    1.40
  -3  10   7   30.09    1.35
   3  10  -6    6.96    0.79
   3  10  -6    8.71    0.80
  -3  10   6    9.63    0.76
   3  10  -5    2.30    0.52
   3  10  -5    2.58    0.54
  -3  10   5    2.46    0.49
   3  10  -4   77.55    2.54
  -3  10   4   73.29    2.41
   3  10  -4   75.76    2.54
   3  10  -3   27.36    1.36
   3  10  -3   27.29    1.34
  -3  10   3   30.00    1.32
   3  10  -2  111.72    3.31
  -3 -10  -2  114.43    3.26
   3  10  -2  107.34    2.64
  -3  10   2  105.50    3.19
   3  10  -2  114.19    3.29
  -3 -10  -1   30.42    1.29
   3  10  -1   30.51    1.40
   3 -10   1   28.39    1.61
   3  10  -1   30.05    0.88
   3  10  -1   27.16    1.33
  -3  10   1   29.09    1.33
  -3 -10   0   12.09    0.75
   3 -10   0   10.57    0.98
   3  10   0   10.40    0.89
   3  10   0   12.02    0.46
   3  10   0    9.62    0.77
  -3  10   0    8.79    0.75
  -3 -10   1   29.34    1.18
   3 -10  -1   29.66    1.65
   3  10   1   31.04    1.51
   3  10   1   29.31    0.85
  -3  10  -1   30.64    1.38
   3  10   1   29.01    1.30
   3 -10  -2  111.50    3.74
  -3 -10   2  111.31    2.96
   3  10   2  110.61    3.44
   3  10   2  110.99    2.59
  -3  10  -2  105.26    3.25
   3  10   2  102.28    3.14
   3 -10  -3   30.98    1.70
   3  10   3   31.68    1.54
  -3  10  -3   30.88    1.44
   3  10   3   29.72    1.32
   3 -10  -4   69.30    2.82
   3  10   4   78.32    2.65
   3  10   4   71.17    2.32
  -3  10  -4   72.65    2.48
   3  10   5    2.06    0.59
   3  10   5    2.96    0.50
  -3  10  -5    2.47    0.55
   3  10   6    8.95    0.85
   3  10   6    8.61    0.42
  -3  10  -6    9.57    0.85
   3  10   6    8.00    0.69
   3  10   7   29.52    1.51
  -3  10  -7   27.49    1.44
   3  10   7   28.69    0.90
   3  10   7   29.20    1.32
   3  10   8   38.81    1.12
  -3  10  -8   34.29    1.65
   3  10   8   35.35    1.72
  -3  10  -9   18.30    1.22
   3  10   9   20.77    0.75
   3  10   9   20.64    1.26
  -3  10 -10   14.70    1.10
   3  10  10   15.74    0.67
   3  10  10   17.71    1.18
  -3  10 -11   65.70    2.52
   3  10  11   65.19    1.81
   3  10  11   63.06    2.45
  -3  10 -12   24.58    1.45
   3  10  12   25.46    0.94
   3  10  12   25.85    1.48
   3  10  13   19.83    0.85
   3  10  13   20.45    1.30
   3  10  14   12.26    0.68
   3  10  15   57.54    1.79
   3  10  16    9.65    0.67
   3  10  17    1.35    0.46
   3  10  18   61.33    2.00
   3  10  19   14.94    0.91
   3  10  20   60.95    2.06
   3  10  21   18.22    1.06
   3  10  22   22.24    1.21
   3  11 -33    1.56    0.84
   3  11 -33    0.43    0.74
   3  11 -32    1.12    0.83
   3  11 -32    0.22    0.81
   3  11 -31    0.93    0.81
   3  11 -31    1.28    0.82
   3  11 -30    0.94    0.83
   3  11 -30    0.48    0.91
   3  11 -29    7.77    1.15
   3  11 -29    6.42    1.24
   3  11 -28   12.94    1.50
   3  11 -28   18.42    1.49
   3  11 -27   21.05    1.79
   3  11 -27   22.40    1.62
   3  11 -26   14.87    1.52
   3  11 -26   14.67    1.38
   3  11 -25    1.21    0.86
   3  11 -25    1.82    0.83
   3  11 -24   11.93    1.38
   3  11 -24   14.66    1.31
   3  11 -23    6.91    1.13
   3  11 -23    7.50    1.04
   3  11 -22   66.09    2.65
   3  11 -22   65.36    3.07
   3  11 -21   30.00    1.68
   3  11 -21   29.50    2.02
   3  11 -20    8.83    0.99
   3  11 -20   10.38    1.28
   3  11 -19    6.68    0.86
   3  11 -19    5.10    0.97
   3  11 -18    5.21    0.80
   3  11 -18    5.06    0.98
   3  11 -17   22.52    1.31
   3  11 -17   23.32    1.69
   3  11 -16   49.78    2.44
   3  11 -15    2.93    0.76
   3  11 -15    2.49    0.73
   3  11 -14   14.11    1.25
   3  11 -14   16.10    1.27
   3  11 -13   47.24    2.29
   3  11 -13   50.77    2.26
   3  11 -12   10.37    0.97
   3  11 -12   10.24    1.07
   3  11 -12    9.83    1.02
   3  11 -11   28.20    1.66
   3  11 -11   26.70    1.55
   3  11 -10   66.18    2.56
   3  11  -9    5.63    0.79
   3  11  -8    2.69    0.61
   3  11  -7   25.06    1.36
   3  11  -7   25.60    1.43
  -3  11   7   27.28    1.35
   3  11  -6   17.67    1.11
   3  11  -6   17.06    1.14
  -3  11   6   15.26    1.01
   3  11  -5   14.76    1.03
  -3  11   5   16.58    1.01
   3  11  -5   14.24    1.05
   3  11  -4   57.61    2.15
  -3  11   4   57.52    2.10
   3  11  -4   59.12    2.22
  -3 -11  -3   12.88    0.95
   3  11  -3   14.23    0.99
   3  11  -3   14.02    1.01
  -3  11   3   13.92    0.94
  -3 -11  -2   16.56    1.01
   3  11  -2   17.06    1.15
   3  11  -2   20.09    1.13
   3  11  -2   17.34    1.10
  -3  11   2   18.03    1.08
  -3 -11  -1    8.32    0.69
   3  11  -1    7.16    0.83
   3  11  -1    7.12    0.73
  -3  11   1    7.20    0.73
   3  11  -1    9.41    0.82
   3  11   0    0.59    0.49
   3  11   0    0.52    0.42
   3  11   0    1.11    0.48
  -3  11   0    0.98    0.48
   3  11   1    7.29    0.81
   3  11   1    7.88    0.73
  -3  11  -1    7.13    0.75
   3  11   1    6.83    0.69
   3  11   2   18.58    1.05
   3  11   2   17.95    1.19
  -3  11  -2   17.75    1.11
   3  11   2   17.99    1.06
   3  11   3   13.52    1.06
  -3  11  -3   13.75    0.99
   3  11   3   14.65    0.93
   3  11   4   61.99    2.35
   3  11   4   58.14    2.06
   3  11   5   17.06    1.16
   3  11   5   15.04    0.97
  -3  11  -5   14.25    1.05
   3  11   6   16.17    1.16
  -3  11  -6   15.86    1.12
   3  11   6   14.75    0.98
   3  11   7   25.97    1.43
  -3  11  -7   24.54    1.38
   3  11   7   22.59    1.22
   3  11   8    2.12    0.59
  -3  11  -8    2.25    0.57
   3  11   9    4.49    0.69
  -3  11  -9    5.64    0.77
  -3  11 -10   65.17    2.56
   3  11  10   64.58    1.73
   3  11  10   64.50    2.49
   3  11  11   28.98    0.97
  -3  11 -11   28.16    1.60
   3  11  11   29.09    1.59
  -3  11 -12   10.67    1.05
   3  11  12    9.71    0.55
   3  11  12    9.39    0.97
  -3  11 -13   44.67    2.20
   3  11  13   47.45    2.13
   3  11  14   16.01    0.77
  -3  11 -14   14.42    1.25
   3  11  14   12.91    1.12
  -3  11 -15    4.54    0.87
   3  11  15    3.63    0.45
   3  11  15    3.82    0.71
   3  11  16   48.58    1.59
   3  11  16   48.87    2.18
   3  11  17   21.97    0.99
   3  11  17   22.04    1.42
   3  11  18    6.69    0.60
   3  11  18    5.55    0.90
   3  11  19    5.10    0.59
   3  11  19    5.04    0.86
   3  11  20   10.20    1.05
   3  11  21   26.79    1.60
   3  11  22   59.02    2.48
   3  11  23    6.18    0.90
   3  11  24   12.38    1.12
   3  11  25    1.73    0.63
   3  11  26   11.68    1.08
   3  11  27   19.24    1.32
   3  12 -32    1.42    0.86
   3  12 -32    2.21    0.83
   3  12 -32    1.02    0.78
   3  12 -31    2.71    0.90
   3  12 -31    2.85    0.91
   3  12 -31    2.65    0.92
   3  12 -30    3.27    0.92
   3  12 -30    4.42    1.02
   3  12 -29    1.79    0.84
   3  12 -29    1.62    0.88
   3  12 -28    8.56    1.18
   3  12 -28   11.69    1.37
   3  12 -27    4.24    0.97
   3  12 -27    2.74    1.02
   3  12 -26   22.14    1.77
   3  12 -26   21.62    1.60
   3  12 -25    4.09    0.93
   3  12 -25    4.54    1.00
   3  12 -24   11.15    1.39
   3  12 -24   16.81    1.37
   3  12 -23    1.64    0.79
   3  12 -23    1.04    0.72
   3  12 -22    2.89    0.87
   3  12 -22    3.69    0.82
   3  12 -21    1.02    0.79
   3  12 -21    1.75    0.73
   3  12 -20    1.45    0.80
   3  12 -20    1.80    0.69
   3  12 -20    2.11    0.77
   3  12 -19    8.30    1.21
   3  12 -19   10.41    1.02
   3  12 -19   11.64    1.28
   3  12 -18   10.88    0.99
   3  12 -18   11.84    1.28
   3  12 -17   76.61    2.61
   3  12 -17   68.08    3.06
   3  12 -17   70.32    3.01
   3  12 -16   87.23    3.50
   3  12 -16   81.35    3.34
   3  12 -15   37.76    1.61
   3  12 -15   31.68    2.00
   3  12 -15   36.47    2.01
   3  12 -14   44.95    1.73
   3  12 -14   44.58    2.27
   3  12 -14   38.79    2.12
   3  12 -13    2.17    0.51
   3  12 -13    1.41    0.69
   3  12 -13    2.15    0.74
   3  12 -12   34.41    1.41
   3  12 -12   36.14    1.92
   3  12 -11    1.96    0.44
   3  12 -11    1.45    0.64
   3  12 -10    0.07    0.33
   3  12 -10    0.08    0.59
   3  12  -9    5.01    0.51
   3  12  -9    5.01    0.78
   3  12  -8   15.85    0.78
   3  12  -8   14.28    1.10
   3  12  -8   12.71    1.12
   3  12  -7   13.89    0.68
   3  12  -7   11.83    1.01
  -3  12   7   12.53    1.01
   3  12  -7   13.44    1.10
   3  12  -6   52.61    1.57
   3  12  -6   57.14    2.19
  -3  12   6   54.06    2.11
   3  12  -6   60.50    2.33
   3  12  -5   23.13    1.33
  -3  12   5   23.09    1.30
   3  12  -5   26.05    1.44
   3  12  -4   23.45    1.39
   3  12  -4   21.67    1.26
  -3  12   4   19.00    1.19
   3  12  -4   21.48    1.32
   3  12  -3   17.10    1.22
   3  12  -3   17.59    1.13
  -3  12   3   16.81    1.10
   3  12  -3   17.32    1.16
   3  12  -3   17.77    1.24
   3  12  -2   18.58    1.24
   3  12  -2   17.20    1.10
   3  12  -2   15.92    1.12
   3  12  -2   16.25    1.19
  -3  12   2   16.68    1.12
   3  12  -1   97.72    3.31
   3  12  -1  100.58    3.11
   3  12  -1   99.33    3.18
   3  12  -1   98.75    3.32
  -3  12   1   97.20    3.16
   3  12   0   71.69    2.68
   3  12   0   74.11    2.50
   3  12   0   72.39    2.67
   3  12   0   74.89    2.57
  -3  12   0   67.28    2.52
   3  12   1   98.36    3.27
   3  12   1   92.66    2.97
  -3  12  -1   94.04    3.10
   3  12   1   96.14    3.24
   3  12   1   94.39    3.05
   3  12   2   18.95    1.26
   3  12   2   18.36    1.09
  -3  12  -2   14.37    1.09
   3  12   2   19.72    1.26
   3  12   2   17.27    1.10
   3  12   3   16.82    1.23
   3  12   3   17.95    1.06
  -3  12  -3   16.90    1.17
   3  12   3   16.12    1.05
   3  12   3   16.52    1.18
   3  12   4   22.71    1.38
   3  12   4   21.04    1.15
   3  12   4   22.24    1.34
   3  12   4   20.00    1.19
  -3  12  -4   20.19    1.28
   3  12   5   23.36    1.40
   3  12   5   24.28    1.21
   3  12   5   22.15    1.34
   3  12   5   25.54    1.32
  -3  12  -5   23.62    1.39
   3  12   6   50.65    1.88
   3  12   6   52.56    2.21
   3  12   6   48.55    2.10
   3  12   6   52.06    2.03
  -3  12  -6   54.33    2.24
   3  12   7   11.01    0.83
   3  12   7   12.28    1.05
  -3  12  -7   13.01    1.10
   3  12   7   12.61    0.97
   3  12   8   14.88    0.91
   3  12   8   13.76    1.12
  -3  12  -8   15.73    1.18
   3  12   9    5.31    0.75
  -3  12  -9    4.26    0.81
   3  12  10    0.73    0.56
  -3  12 -10   -0.32    0.63
   3  12  11    1.18    0.62
  -3  12 -11    1.64    0.65
   3  12  12   33.31    1.75
  -3  12 -12   33.64    1.87
   3  12  13    1.41    0.59
  -3  12 -13    0.52    0.61
   3  12  14   39.72    1.94
  -3  12 -14   40.80    2.12
   3  12  15   35.33    1.82
  -3  12 -15   33.52    1.95
   3  12  16   85.08    3.10
  -3  12 -16   87.80    3.42
   3  12  17   71.72    2.81
  -3  12 -17   76.41    3.17
   3  12  18   10.65    1.05
  -3  12 -18   10.16    1.23
   3  12  19   10.97    1.06
  -3  12 -19    8.34    1.17
   3  12  20    1.70    0.67
  -3  12 -20    1.63    0.84
   3  12  21    1.99    0.63
   3  12  22    3.94    0.74
   3  12  23    2.38    0.65
   3  12  24   12.80    1.13
   3  12  25    4.94    0.79
   3  12  26   19.62    1.29
  -3  12 -31    3.98    1.05
  -3  12 -32    1.38    0.92
   3  13 -31   -0.10    0.75
   3  13 -31    0.50    0.83
   3  13 -30    3.34    0.87
   3  13 -30    3.20    0.95
   3  13 -30    2.60    0.97
   3  13 -29   10.80    1.16
   3  13 -29    8.82    1.23
   3  13 -29    8.29    1.27
   3  13 -28    3.21    0.90
   3  13 -28    2.49    0.95
   3  13 -28    2.32    0.98
   3  13 -27    4.53    0.93
   3  13 -27    3.92    1.02
   3  13 -27    3.03    1.01
   3  13 -26    6.50    1.01
   3  13 -26    7.35    1.19
   3  13 -26    5.80    1.15
   3  13 -25    6.28    0.96
   3  13 -25    5.40    1.11
   3  13 -25    5.82    1.14
   3  13 -24   12.23    1.19
   3  13 -24   14.12    1.47
   3  13 -23    0.31    0.71
   3  13 -23    0.35    0.73
   3  13 -23   -0.45    0.91
   3  13 -22   12.22    1.40
   3  13 -22   11.87    1.13
   3  13 -22   11.11    1.34
   3  13 -21    8.73    1.01
   3  13 -21   10.25    1.24
   3  13 -21    7.87    1.18
   3  13 -20   11.13    1.34
   3  13 -20   12.05    1.09
   3  13 -20   11.33    1.34
   3  13 -19   11.96    1.34
   3  13 -19   14.50    1.13
   3  13 -19   10.57    1.29
   3  13 -18   14.45    1.42
   3  13 -18   13.54    1.08
   3  13 -18   13.57    1.41
   3  13 -17    8.70    1.20
   3  13 -17    9.37    0.89
   3  13 -17    9.26    1.16
   3  13 -16   27.38    1.40
   3  13 -16   28.54    1.86
   3  13 -15    3.54    0.65
   3  13 -15    2.82    0.88
   3  13 -14   40.83    1.63
   3  13 -14   35.83    2.05
   3  13 -13    3.63    0.56
   3  13 -13    2.75    0.79
   3  13 -12   19.69    1.02
   3  13 -12   17.68    1.44
   3  13 -11    2.47    0.47
   3  13 -11    1.91    0.71
   3  13 -10   20.10    0.95
   3  13 -10   18.51    1.38
   3  13  -9    5.46    0.84
   3  13  -9    5.28    0.50
   3  13  -9    4.36    0.81
   3  13  -8   15.09    1.13
   3  13  -8   13.33    1.17
   3  13  -7   17.18    1.20
  -3  13   7   19.02    1.25
   3  13  -7   15.91    1.26
   3  13  -6   24.87    1.41
  -3  13   6   24.52    1.40
   3  13  -6   22.26    1.44
   3  13  -5    2.01    0.59
  -3  13   5    1.29    0.58
   3  13  -5    1.74    0.60
   3  13  -5    2.67    0.67
   3  13  -4    2.33    0.61
  -3  13   4    2.46    0.63
   3  13  -4    3.72    0.73
   3  13  -4    2.96    0.70
   3  13  -3    7.58    0.92
   3  13  -3    7.13    0.80
  -3  13   3    6.26    0.80
   3  13  -3    7.19    0.88
   3  13  -3    7.52    0.89
   3  13  -2    1.95    0.64
   3  13  -2    3.46    0.67
   3  13  -2    3.04    0.66
  -3  13   2    2.54    0.64
   3  13  -2    1.91    0.67
   3  13  -1  108.64    3.57
   3  13  -1  108.89    3.31
   3  13  -1  100.82    3.37
   3  13  -1  103.21    3.51
  -3  13   1  101.79    3.40
   3  13   0    3.82    0.67
   3  13   0    2.54    0.71
  -3  13   0    3.62    0.73
   3  13   0    5.66    0.76
   3  13   0    5.94    0.85
   3  13   1  105.85    3.59
   3  13   1  109.54    3.29
  -3  13  -1  104.46    3.48
   3  13   1  107.57    3.44
   3  13   1  106.49    3.55
   3  13   2    2.98    0.69
   3  13   2    2.82    0.57
  -3  13  -2    3.26    0.67
   3  13   2    2.20    0.61
   3  13   2    2.75    0.68
   3  13   3    4.98    0.78
   3  13   3    7.14    0.72
   3  13   3    6.11    0.82
   3  13   3    7.20    0.80
  -3  13  -3    8.13    0.91
   3  13   4    2.53    0.68
   3  13   4    2.71    0.56
  -3  13  -4    2.71    0.65
   3  13   4    2.37    0.58
   3  13   4    2.28    0.62
   3  13   5    2.69    0.68
   3  13   5    1.46    0.49
   3  13   5    1.91    0.62
   3  13   5    2.12    0.57
  -3  13  -5    1.59    0.64
   3  13   6   22.60    1.45
   3  13   6   22.40    1.17
   3  13   6   21.92    1.39
   3  13   6   22.46    1.33
  -3  13  -6   26.25    1.53
   3  13   7   18.95    1.31
   3  13   7   17.88    1.02
  -3  13  -7   18.81    1.36
   3  13   7   19.40    1.27
   3  13   7   17.73    1.18
   3  13   8   13.49    1.10
   3  13   8   11.91    0.85
   3  13   8   12.43    1.08
  -3  13  -8   13.55    1.18
   3  13   9    3.86    0.54
   3  13   9    5.59    0.81
  -3  13  -9    5.18    0.83
   3  13  10   19.48    1.01
   3  13  10   21.59    1.40
  -3  13 -10   19.49    1.44
   3  13  11    2.68    0.48
   3  13  11    3.20    0.74
  -3  13 -11    2.83    0.79
   3  13  12   20.10    0.97
   3  13  12   21.36    1.40
  -3  13 -12   18.21    1.47
   3  13  13    4.43    0.80
  -3  13 -13    2.70    0.83
   3  13  14   33.96    1.78
  -3  13 -14   35.43    2.04
   3  13  15    2.06    0.68
  -3  13 -15    1.68    0.77
   3  13  16   25.14    1.54
  -3  13 -16   24.95    1.75
   3  13  17   11.23    1.07
  -3  13 -17   10.29    1.26
   3  13  18   12.23    1.10
  -3  13 -18   11.62    1.30
   3  13  19   12.19    1.10
  -3  13 -19   11.83    1.36
   3  13  20   10.92    1.07
  -3  13 -20   12.87    1.43
   3  13  21    7.52    0.88
  -3  13 -21    6.61    1.13
   3  13  22   12.51    1.05
  -3  13 -22   11.46    1.34
   3  13  23    0.28    0.51
  -3  13 -23    0.70    0.82
   3  13  24    8.63    0.94
  -3  13 -24   12.14    1.46
  -3  13 -25    4.72    1.10
  -3  13 -26    7.76    1.26
  -3  13 -27    2.92    1.06
  -3  13 -28    3.33    1.01
  -3  13 -29   10.33    1.31
  -3  13 -30    2.72    0.91
  -3  13 -31    0.10    0.86
   3  14 -29   -0.40    0.77
   3  14 -29    0.91    0.75
   3  14 -28    0.32    0.70
   3  14 -28    0.21    0.78
   3  14 -27    6.84    1.05
   3  14 -27    4.95    1.06
   3  14 -26    7.29    1.03
   3  14 -26    7.24    1.17
   3  14 -25    0.87    0.80
   3  14 -25    3.56    0.99
   3  14 -24    5.18    0.91
   3  14 -24    5.38    1.04
   3  14 -23    5.42    0.91
   3  14 -23    3.60    1.01
   3  14 -22    2.02    0.72
   3  14 -22    0.34    0.77
   3  14 -21    0.41    0.65
   3  14 -21    3.90    1.01
   3  14 -20    3.95    0.75
   3  14 -20    5.53    1.06
   3  14 -19    3.27    0.66
   3  14 -19    4.27    0.98
   3  14 -18   11.86    0.98
   3  14 -18   12.00    1.36
   3  14 -17    2.38    0.63
   3  14 -17    1.90    0.84
   3  14 -16   15.85    1.04
   3  14 -16   17.25    1.45
   3  14 -15   22.70    1.19
   3  14 -15   19.82    1.59
   3  14 -14    1.06    0.49
   3  14 -14    3.47    0.88
   3  14 -13    2.30    0.50
   3  14 -13    2.33    0.77
   3  14 -12   12.57    0.81
   3  14 -12   11.15    1.26
   3  14 -11   15.17    1.35
   3  14 -10    3.44    0.87
   3  14  -9   25.87    1.66
   3  14  -8    3.17    0.75
   3  14  -7   38.07    1.84
   3  14  -7   38.99    1.99
  -3  14   7   36.25    1.83
   3  14  -7   35.98    1.93
   3  14  -6    5.82    0.83
  -3  14   6    4.96    0.83
   3  14  -6    6.53    0.89
   3  14  -6    4.32    0.78
   3  14  -5   15.25    1.13
  -3  14   5   16.28    1.20
   3  14  -5   15.26    1.21
   3  14  -5   15.33    1.29
   3  14  -4   41.58    1.83
  -3  14   4   39.67    1.88
   3  14  -4   36.57    1.90
   3  14  -4   37.99    1.96
   3  14  -3    0.50    0.54
   3  14  -3    0.45    0.57
  -3  14   3   -0.07    0.54
   3  14  -3    0.41    0.59
   3  14  -2   10.42    0.96
  -3  14   2    9.19    0.98
   3  14  -2    9.56    0.98
   3  14  -2   10.13    1.03
   3  14  -1    4.27    0.80
   3  14  -1    1.65    0.61
   3  14  -1    3.67    0.73
  -3  14   1    3.32    0.77
   3  14  -1    3.18    0.74
   3  14   0   79.68    2.94
   3  14   0   78.80    2.64
  -3  14   0   74.35    2.82
   3  14   0   69.62    2.72
   3  14   0   76.67    2.88
   3  14   1    3.74    0.78
   3  14   1    2.61    0.63
  -3  14  -1    2.36    0.69
   3  14   1    3.23    0.80
   3  14   1    2.58    0.69
   3  14   2    9.21    1.02
   3  14   2    8.84    0.83
   3  14   2    9.70    1.02
  -3  14  -2    8.09    0.97
   3  14   3    0.08    0.58
   3  14   3    0.31    0.48
  -3  14  -3    0.23    0.57
   3  14   3   -0.07    0.57
   3  14   3    0.45    0.60
   3  14   4   41.24    1.97
   3  14   4   38.94    1.62
   3  14   4   37.84    1.83
   3  14   4   38.71    1.92
  -3  14  -4   36.30    1.92
   3  14   5   15.58    1.23
   3  14   5   16.65    1.02
   3  14   5   17.04    1.23
   3  14   5   15.78    1.25
  -3  14  -5   13.13    1.20
   3  14   6    6.65    0.88
   3  14   6    6.12    0.67
   3  14   6    5.95    0.83
   3  14   6    4.79    0.77
   3  14   7   34.01    1.78
   3  14   7   32.50    1.43
   3  14   7   35.09    1.75
   3  14   7   35.04    1.80
  -3  14  -7   34.28    1.89
   3  14   8    3.28    0.53
   3  14   8    3.18    0.73
   3  14   8    3.03    0.76
  -3  14  -8    2.78    0.77
   3  14   9   26.78    1.59
   3  14   9   25.83    1.19
  -3  14  -9   28.08    1.71
   3  14  10    3.10    0.74
   3  14  10    3.51    0.50
  -3  14 -10    2.75    0.82
   3  14  11   14.31    1.18
   3  14  11   11.43    0.75
  -3  14 -11   12.49    1.25
   3  14  12   11.32    1.09
  -3  14 -12   14.79    1.34
   3  14  13    1.45    0.61
  -3  14 -13    1.68    0.80
   3  14  14    1.07    0.59
  -3  14 -14    1.11    0.76
   3  14  15   19.37    1.36
  -3  14 -15   19.26    1.59
   3  14  16   15.14    1.19
  -3  14 -16   16.53    1.47
   3  14  17    1.56    0.68
  -3  14 -17    3.44    0.91
   3  14  18   10.23    1.01
  -3  14 -18   10.98    1.31
   3  14  19    3.37    0.74
  -3  14 -19    3.92    0.96
   3  14  20    5.45    0.77
  -3  14 -20    6.14    1.04
   3  14  21    2.37    0.64
  -3  14 -21    3.22    0.98
   3  14  22    0.20    0.49
  -3  14 -22    1.16    0.89
  -3  14 -23    5.12    1.10
  -3  14 -24    3.37    1.07
  -3  14 -25    1.27    0.86
  -3  14 -26    5.25    1.13
  -3  14 -27    5.71    1.13
  -3  14 -28    1.42    0.91
  -3  14 -29    1.37    0.87
   3  15 -28    0.97    0.72
   3  15 -27    2.24    0.73
   3  15 -27    1.92    0.83
   3  15 -26    4.44    0.82
   3  15 -26    3.64    0.94
   3  15 -25   10.16    1.10
   3  15 -25    6.71    1.17
   3  15 -24    7.09    0.93
   3  15 -24    5.74    1.11
   3  15 -23    1.12    0.68
   3  15 -23   -0.22    0.79
   3  15 -22    0.55    0.60
   3  15 -22    0.22    0.83
   3  15 -21    1.12    0.59
   3  15 -21    2.10    0.89
   3  15 -20    2.55    0.64
   3  15 -20    2.64    0.93
   3  15 -19    0.43    0.57
   3  15 -19    0.77    0.85
   3  15 -18    9.23    1.23
   3  15 -17    5.38    1.06
   3  15 -16   12.83    1.36
   3  15 -15    2.81    0.88
   3  15 -14   43.27    2.33
   3  15 -13    7.47    1.13
   3  15 -12   13.38    1.35
   3  15 -11    3.00    0.81
   3  15 -10   28.71    1.79
   3  15  -9   11.58    1.25
   3  15  -9   13.52    1.28
   3  15  -8    5.54    0.92
   3  15  -8    5.02    0.97
   3  15  -7   11.30    1.17
   3  15  -7   11.66    1.18
  -3  15   7   12.78    1.13
  -3  15   6    5.40    0.87
   3  15  -6    4.26    0.85
   3  15  -6    3.13    0.78
   3  15  -5    7.35    0.96
  -3  15   5    7.58    0.96
   3  15  -5    8.42    1.02
   3  15  -4   39.16    1.84
  -3  15   4   36.63    1.88
   3  15  -4   37.99    1.98
   3  15  -4   39.54    2.03
   3  15  -3   25.28    1.47
  -3  15   3   25.52    1.58
   3  15  -3   26.34    1.62
   3  15  -3   24.11    1.63
   3  15  -2   75.65    2.65
  -3  15   2   67.89    2.75
   3  15  -2   73.02    2.89
   3  15  -2   72.87    2.82
   3  15  -1   16.43    1.21
   3  15  -1   18.85    1.42
   3  15  -1   18.98    1.45
  -3  15   1   19.31    1.37
   3  15   0  260.04    6.76
  -3  15   0  257.62    7.10
   3  15   0  265.84    7.10
   3  15   0  260.79    7.16
   3  15   1   17.91    1.42
   3  15   1   18.61    1.19
   3  15   1   20.12    1.48
  -3  15  -1   16.26    1.35
   3  15   1   17.76    1.33
   3  15   2   72.48    2.84
   3  15   2   71.57    2.48
   3  15   2   69.41    2.73
   3  15   2   69.82    2.81
  -3  15  -2   73.29    2.83
   3  15   3   25.81    1.62
   3  15   3   24.89    1.32
   3  15   3   25.75    1.57
   3  15   3   26.88    1.63
  -3  15  -3   26.64    1.66
   3  15   4   40.38    2.01
   3  15   4   38.81    1.63
   3  15   4   37.75    1.90
   3  15   4   36.04    1.89
  -3  15  -4   37.31    1.97
   3  15   5    8.90    1.02
   3  15   5    9.15    0.80
  -3  15  -5    8.52    1.04
   3  15   5    9.38    1.05
   3  15   5    8.95    1.00
   3  15   6    4.58    0.81
   3  15   6    4.94    0.61
   3  15   6    3.57    0.76
   3  15   6    4.04    0.81
  -3  15  -6    4.51    0.89
   3  15   7   11.05    1.09
   3  15   7   11.57    0.82
   3  15   7   11.20    1.10
   3  15   7    9.20    1.03
  -3  15  -7   11.68    1.15
   3  15   8    6.03    0.88
   3  15   8    5.44    0.62
  -3  15  -8    6.27    0.96
   3  15   9   13.51    1.16
   3  15   9   11.04    0.76
  -3  15  -9   11.29    1.26
   3  15  10   33.86    1.77
  -3  15 -10   28.12    1.84
   3  15  11    2.60    0.69
  -3  15 -11    2.37    0.82
   3  15  12   12.57    1.16
  -3  15 -12   11.58    1.30
   3  15  13    6.35    0.90
  -3  15 -13    7.62    1.14
   3  15  14   43.57    2.04
  -3  15 -14   46.14    2.42
   3  15  15    3.52    0.76
  -3  15 -15    2.98    0.88
   3  15  16   12.25    1.10
  -3  15 -16   11.39    1.32
   3  15  17    5.63    0.86
  -3  15 -17    5.96    1.09
   3  15  18   12.10    1.05
  -3  15 -18   12.22    1.34
   3  15  19   -0.07    0.53
  -3  15 -19    0.56    0.77
  -3  15 -20    3.18    0.97
  -3  15 -21    1.25    0.88
  -3  15 -22    2.51    0.91
  -3  15 -23    1.25    0.87
  -3  15 -24    5.17    1.12
  -3  15 -25   11.20    1.38
  -3  15 -26    2.50    0.92
  -3  15 -27    1.05    0.87
  -3  15 -28    0.10    0.80
   3  16 -26    1.36    0.83
   3  16 -25    0.60    0.75
   3  16 -24    8.33    1.26
   3  16 -23    4.31    1.02
   3  16 -22    0.53    0.81
   3  16 -21    0.75    0.78
   3  16 -20    7.33    1.14
   3  16 -19    0.65    0.85
   3  16 -18    8.21    1.26
   3  16 -17    2.91    0.92
   3  16 -16    5.13    1.10
   3  16 -15    5.61    1.07
   3  16 -14    4.59    0.97
   3  16 -13    2.77    0.91
   3  16 -12    7.07    1.03
   3  16 -12    4.45    0.96
   3  16 -11    0.67    0.67
   3  16 -11    0.40    0.67
   3  16 -10    2.94    0.82
   3  16 -10    2.65    0.78
   3  16  -9    2.45    0.80
   3  16  -9    5.19    1.00
   3  16  -8    3.73    0.83
   3  16  -8    3.21    0.84
   3  16  -7    6.73    1.00
   3  16  -7    6.37    0.99
   3  16  -6    4.22    0.89
  -3  16   6    5.05    0.90
   3  16  -6    5.60    0.98
  -3  16   5   15.15    1.28
   3  16  -5   13.80    1.27
   3  16  -5   14.03    1.28
   3  16  -4    4.15    0.86
  -3  16   4    4.80    0.87
   3  16  -4    6.00    0.95
   3  16  -3    3.72    0.87
   3  16  -3    2.72    0.79
  -3  16   3    5.15    0.86
  -3  16   2   58.58    2.49
   3  16  -2   54.61    2.44
   3  16  -2   56.50    2.49
  -3  16   1   12.54    1.18
   3  16  -1   13.12    1.24
   3  16  -1   12.30    1.21
  -3  16   0    0.65    0.67
   3  16   0    1.26    0.65
   3  16   0    2.17    0.75
   3  16   1   15.41    1.07
   3  16   1   12.23    1.14
   3  16   1   10.57    1.16
  -3  16  -1   12.48    1.19
   3  16   2   61.77    2.18
   3  16   2   55.63    2.43
   3  16   2   57.68    2.50
  -3  16  -2   51.22    2.42
   3  16   3    3.59    0.81
   3  16   3    4.83    0.70
  -3  16  -3    4.51    0.90
   3  16   3    3.01    0.86
   3  16   3    4.60    0.87
   3  16   4    4.94    0.87
   3  16   4    4.40    0.66
   3  16   4    3.84    0.80
   3  16   4    4.43    0.83
  -3  16  -4    4.94    0.89
   3  16   5   13.58    1.21
   3  16   5   12.94    0.92
   3  16   5   13.77    1.24
   3  16   5   14.47    1.23
  -3  16  -5   15.14    1.32
   3  16   6    5.55    0.85
   3  16   6    2.88    0.57
  -3  16  -6    3.66    0.90
   3  16   6    6.31    0.90
   3  16   6    3.73    0.86
   3  16   7    7.47    0.94
   3  16   7    6.31    0.65
  -3  16  -7    6.95    1.01
   3  16   8    2.26    0.67
  -3  16  -8    1.63    0.72
   3  16   9    3.07    0.74
  -3  16  -9    2.92    0.83
   3  16  10    1.97    0.69
  -3  16 -10    2.00    0.82
   3  16  11    0.07    0.56
  -3  16 -11    0.10    0.68
   3  16  12    3.46    0.71
  -3  16 -12    5.78    1.04
   3  16  13    2.60    0.71
  -3  16 -13    2.30    0.86
   3  16  14    3.81    0.73
  -3  16 -14    2.88    0.95
   3  16  15    7.28    0.89
  -3  16 -15    5.41    1.05
   3  16  16    4.81    0.76
  -3  16 -16    3.72    0.92
   3  16  17    4.77    0.73
  -3  16 -17    6.18    1.08
  -3  16 -18    7.66    1.19
  -3  16 -19    1.34    0.90
  -3  16 -20    6.46    1.15
  -3  16 -21    1.33    0.89
  -3  16 -22    0.99    0.81
  -3  16 -23    5.98    1.10
  -3  16 -24    7.17    1.16
  -3  16 -25    0.10    0.81
  -3  16 -26    1.11    0.85
   3  17 -24    3.51    0.89
   3  17 -23    2.06    0.84
   3  17 -22    0.10    0.76
   3  17 -21    2.04    0.86
   3  17 -20    0.62    0.75
   3  17 -19    3.97    0.95
   3  17 -18    3.36    0.95
   3  17 -17    0.84    0.84
   3  17 -16    6.96    1.05
   3  17 -16    6.59    1.12
   3  17 -15    5.71    1.03
   3  17 -15    8.27    1.19
   3  17 -14   22.05    1.70
   3  17 -14   22.33    1.65
   3  17 -13    1.73    0.87
   3  17 -13    2.89    0.92
   3  17 -12    7.13    1.11
   3  17 -12    7.49    1.09
   3  17 -11   12.50    1.32
   3  17 -11    9.65    1.19
   3  17 -10   16.23    1.38
   3  17 -10   13.32    1.38
   3  17  -9    2.81    0.83
   3  17  -9    1.85    0.81
   3  17  -8    7.33    1.07
   3  17  -8    6.57    1.02
   3  17  -7    5.61    1.01
   3  17  -7    7.16    1.06
   3  17  -6   18.91    1.49
   3  17  -6   20.49    1.51
   3  17  -5    4.62    0.93
   3  17  -5    2.44    0.89
  -3  17   5    3.84    0.89
  -3  17   4   55.62    2.49
   3  17  -4   53.27    2.49
   3  17  -4   52.69    2.42
  -3  17   3   28.89    1.74
   3  17  -3   28.03    1.77
   3  17  -3   28.21    1.75
   3  17  -2   42.18    2.11
  -3  17   2   44.74    2.19
   3  17  -2   38.91    2.09
   3  17  -1   12.28    1.21
  -3  17   1   11.56    1.20
   3  17  -1   11.20    1.18
  -3  17   0   34.05    1.91
   3  17   0   35.41    1.93
   3  17   0   34.89    1.91
   3  17   1   13.49    1.25
   3  17   1   12.13    1.21
  -3  17  -1   11.19    1.20
   3  17   2   42.09    2.13
   3  17   2   43.53    2.11
  -3  17  -2   41.70    2.16
   3  17   3   29.43    1.76
   3  17   3   28.74    1.70
  -3  17  -3   25.51    1.73
   3  17   4   46.92    2.29
   3  17   4   50.33    2.29
  -3  17  -4   50.07    2.41
   3  17   5    4.00    0.86
   3  17   5    3.50    0.86
  -3  17  -5    3.41    0.95
   3  17   6   21.89    1.45
  -3  17  -6   20.39    1.54
   3  17   7    4.69    0.85
  -3  17  -7    4.09    0.95
   3  17   8    7.40    0.96
  -3  17  -8    8.24    1.09
   3  17   9    2.15    0.66
  -3  17  -9    2.48    0.83
   3  17  10   13.34    1.13
  -3  17 -10   16.29    1.46
   3  17  11   10.63    1.01
  -3  17 -11   10.91    1.25
   3  17  12    6.03    0.84
  -3  17 -12    8.11    1.17
   3  17  13    2.22    0.65
  -3  17 -13    3.17    0.96
   3  17  14   21.74    1.32
  -3  17 -14   20.30    1.67
   3  17  15    5.69    0.77
  -3  17 -15    5.68    1.06
  -3  17 -16    6.33    1.10
  -3  17 -17   -0.11    0.78
  -3  17 -18    2.59    0.91
  -3  17 -19    2.92    0.96
  -3  17 -20    0.32    0.78
  -3  17 -21    2.11    0.85
  -3  17 -22    0.42    0.84
  -3  17 -23    1.53    0.77
  -3  17 -24    3.16    0.91
   3  18 -22    2.82    0.91
   3  18 -21   10.13    1.14
   3  18 -21    8.26    1.16
   3  18 -20    2.73    0.82
   3  18 -20    1.55    0.81
   3  18 -19    1.57    0.78
   3  18 -19    0.89    0.79
   3  18 -18    7.44    1.04
   3  18 -18    6.29    1.08
   3  18 -17    4.23    0.88
   3  18 -17    5.12    1.02
   3  18 -16    3.19    0.88
   3  18 -16    2.93    0.91
   3  18 -15   -0.37    0.89
   3  18 -15    0.60    0.79
   3  18 -14    6.46    1.04
   3  18 -14    6.92    1.07
   3  18 -13   -0.37    0.81
   3  18 -13    1.11    0.80
   3  18 -12    3.13    0.87
   3  18 -12    3.20    0.89
   3  18 -11   15.60    1.44
   3  18 -11   12.36    1.31
   3  18 -10    7.46    1.13
   3  18 -10    4.74    0.98
   3  18  -9    0.87    0.74
   3  18  -9    1.45    0.76
   3  18  -8    0.95    0.83
   3  18  -8    0.99    0.67
   3  18  -7    8.70    1.08
   3  18  -7    8.99    1.12
   3  18  -6   30.26    1.91
   3  18  -6   37.70    2.00
  -3  18   5   15.10    1.34
   3  18  -5   14.60    1.32
   3  18  -5   14.18    1.29
  -3  18   4   10.70    1.18
   3  18  -4   10.51    1.14
   3  18  -4   11.20    1.19
   3  18  -3   -0.09    0.72
   3  18  -3    1.79    0.75
  -3  18   3    0.36    0.62
   3  18  -2    9.87    1.13
   3  18  -2   10.37    1.13
  -3  18   2   10.14    1.12
   3  18  -1    5.53    0.96
  -3  18   1    2.84    0.82
   3  18  -1    3.84    0.83
   3  18   0    3.93    0.89
  -3  18   0    4.55    0.92
   3  18   0    6.03    0.90
  -3  18  -1    3.85    0.86
   3  18   1    3.29    0.82
   3  18   1    4.89    0.85
   3  18   2   10.48    1.14
  -3  18  -2   10.22    1.16
   3  18   2    7.93    1.04
   3  18   3    0.73    0.71
  -3  18  -3   -0.46    0.70
   3  18   3    0.61    0.71
  -3  18  -4    9.84    1.16
   3  18   4   10.64    1.15
   3  18   4    9.86    1.08
   3  18   5   14.85    1.35
  -3  18  -5   13.95    1.33
  -3  18  -6   32.15    1.93
  -3  18  -7    8.11    1.12
  -3  18  -8    0.58    0.79
  -3  18  -9    0.98    0.77
  -3  18 -10    6.62    1.06
  -3  18 -11   11.70    1.33
   3  18  12    3.40    0.69
  -3  18 -12    4.29    0.96
  -3  18 -13    0.72    0.84
  -3  18 -14    6.79    1.13
  -3  18 -15   -0.31    0.75
  -3  18 -16    3.40    0.95
  -3  18 -17    5.59    1.01
  -3  18 -18    4.43    1.04
  -3  18 -19    2.03    0.90
  -3  18 -20    0.70    0.84
  -3  18 -21    8.09    1.11
  -3  18 -22    0.28    0.79
   3  19 -19    0.62    0.74
   3  19 -19    1.15    0.72
   3  19 -18   13.50    1.24
   3  19 -18    9.17    1.13
   3  19 -17    0.81    0.67
   3  19 -17    0.09    0.75
   3  19 -16    3.12    0.77
   3  19 -16    2.80    0.91
   3  19 -15    5.09    0.97
   3  19 -15    4.39    0.91
   3  19 -14    1.70    0.79
   3  19 -14    0.84    0.70
   3  19 -13    1.32    0.79
   3  19 -13    1.52    0.75
   3  19 -12    1.22    0.75
   3  19 -12    0.68    0.70
   3  19 -11    2.07    0.79
   3  19 -11    1.53    0.74
   3  19 -10    4.83    0.85
   3  19 -10    1.69    0.80
   3  19  -9    4.81    0.91
   3  19  -9    7.05    1.02
   3  19  -8    3.44    0.84
   3  19  -8    2.23    0.87
   3  19  -7    6.22    1.00
   3  19  -7    6.03    0.95
   3  19  -6   13.58    1.25
   3  19  -6   15.59    1.39
   3  19  -5    5.23    0.95
   3  19  -5    5.73    0.95
   3  19  -4    6.89    1.01
   3  19  -4    7.22    0.99
  -3  19   4    5.67    1.00
   3  19  -3    0.35    0.71
  -3  19   3    1.15    0.76
   3  19  -3    0.73    0.66
   3  19  -2   11.69    1.21
   3  19  -2   11.10    1.11
  -3  19   2   11.48    1.25
   3  19  -1    0.26    0.73
  -3  19   1   -0.18    0.78
   3  19  -1    0.56    0.69
   3  19   0    4.04    0.84
  -3  19   0    4.92    0.97
   3  19   0    4.37    0.90
  -3  19  -1    0.81    0.75
   3  19   1    1.18    0.67
   3  19   1    0.35    0.72
  -3  19  -2   12.74    1.25
   3  19   2   10.59    1.13
   3  19   2   11.57    1.22
  -3  19  -3    0.27    0.72
   3  19   3    1.30    0.76
  -3  19  -4    6.62    1.03
  -3  19  -5    4.55    0.96
  -3  19  -6   14.29    1.36
  -3  19  -7    4.74    0.95
  -3  19  -8    1.43    0.82
  -3  19  -9    5.81    1.03
  -3  19 -10    2.21    0.83
  -3  19 -11    1.45    0.77
  -3  19 -12   -0.48    0.76
  -3  19 -13    0.48    0.74
  -3  19 -14    1.36    0.82
  -3  19 -15    3.69    0.93
  -3  19 -16    2.70    0.89
  -3  19 -17    1.05    0.79
  -3  19 -18   10.19    1.29
  -3  19 -19    1.56    0.80
   3  20 -16    4.07    0.81
   3  20 -15    5.58    0.85
   3  20 -15    5.07    0.93
   3  20 -14    0.88    0.68
   3  20 -14    0.43    0.72
   3  20 -13    1.92    0.75
   3  20 -13    2.07    0.85
   3  20 -12    9.73    1.12
   3  20 -12    7.84    0.99
   3  20 -11    2.02    0.81
   3  20 -11    1.88    0.76
   3  20 -10    4.60    0.91
   3  20 -10    2.50    0.77
   3  20  -9   11.45    1.19
   3  20  -9    9.68    1.08
   3  20  -8   11.79    1.15
   3  20  -8    9.69    1.12
   3  20  -7    8.40    1.08
   3  20  -7    8.13    1.02
   3  20  -6    0.34    0.72
   3  20  -6    0.23    0.71
   3  20  -5   14.50    1.29
   3  20  -5   12.72    1.19
   3  20  -4    1.58    0.75
   3  20  -4    2.17    0.81
   3  20  -3    7.11    1.00
   3  20  -3    6.27    0.92
   3  20  -2    0.37    0.64
  -3  20   2    0.17    0.71
   3  20  -2    0.17    0.68
   3  20  -1    7.93    0.97
  -3  20   1    5.81    1.02
   3  20  -1    8.94    1.07
  -3  20   0    4.72    0.92
   3  20   0    5.33    0.96
   3  20   0    6.47    0.96
  -3  20  -1    6.49    1.05
   3  20   1    9.98    1.11
  -3  20  -2   -0.35    0.70
   3  20   2   -0.25    0.71
  -3  20  -3    5.31    0.96
  -3  20  -4    1.15    0.79
  -3  20  -5   13.50    1.30
  -3  20  -6    0.35    0.70
  -3  20  -7    6.62    1.03
  -3  20  -8   12.32    1.23
  -3  20  -9    9.54    1.15
  -3  20 -10    3.54    0.87
  -3  20 -11    3.88    0.89
  -3  20 -12    9.64    1.09
  -3  20 -13    0.80    0.73
  -3  20 -14    0.62    0.74
  -3  20 -15    5.95    1.00
  -3  20 -16    3.96    0.89
   3  21 -12    2.12    0.76
   3  21 -11    2.29    0.74
   3  21 -10    4.77    0.89
   3  21 -10    5.58    0.82
   3  21  -9    1.97    0.66
   3  21  -9    1.88    0.72
   3  21  -8   -0.64    0.72
   3  21  -8    0.07    0.58
   3  21  -7    2.34    0.74
   3  21  -7    2.71    0.72
   3  21  -6   10.80    1.01
   3  21  -6   11.70    1.18
   3  21  -5    7.01    0.97
   3  21  -5    5.38    0.86
   3  21  -4    0.80    0.61
   3  21  -4    0.57    0.70
   3  21  -3   -0.08    0.68
   3  21  -3    0.53    0.60
   3  21  -2    6.71    0.88
   3  21  -2    7.97    1.07
   3  21  -1    2.13    0.82
  -3  21   1    2.61    0.79
  -3  21   0    8.19    1.00
   3  21   0    4.87    0.94
  -3  21  -1    3.52    0.83
   3  21   1    2.08    0.80
  -3  21  -2    7.23    1.01
  -3  21  -3   -0.08    0.66
  -3  21  -4    0.75    0.74
  -3  21  -5    5.84    0.93
  -3  21  -6   11.40    1.16
  -3  21  -7    3.14    0.83
  -3  21  -8    0.08    0.70
  -3  21  -9    1.61    0.72
  -3  21 -10    5.64    0.89
  -3  21 -11    1.14    0.68
  -3  21 -12    1.78    0.73
   3  22  -3    2.46    0.77
   3  22  -2    3.19    0.76
   3  22  -1    5.35    0.86
  -3  22  -1    3.99    0.82
  -3  22  -2    2.51    0.76
  -3  22  -3    1.91    0.74
  -3  22  -4    1.13    0.72
  -4   0   0   -0.06    0.22
  -4   0   1   23.90    0.98
  -4   0  -1   23.18    1.00
   4   0   1   23.64    0.80
  -4   0  -2  155.39    3.99
   4   0   2  152.14    3.64
   4   0  -3   93.50    2.47
  -4   0  -3   97.43    2.71
   4   0  -3   92.37    2.43
   4   0   3   92.94    2.34
   4   0  -4   44.34    1.39
   4   0  -4   48.01    1.43
   4   0   4   46.38    1.30
   4   0  -5   91.11    2.34
   4   0   5   89.10    2.54
   4   0  -5   87.52    2.40
   4   0  -6   62.31    1.75
   4   0  -6   61.25    1.77
   4   0   6   65.19    1.97
   4   0  -6   63.00    1.85
   4   0  -7   49.13    1.42
   4   0  -7   47.37    1.48
   4   0   7   49.37    1.62
   4   0  -7   48.11    1.56
   4   0   8   -0.10    0.30
   4   0  -8    0.29    0.20
   4   0  -8    0.02    0.19
   4   0   9   90.74    2.56
   4   0  -9   87.56    2.43
   4   0  10   13.25    0.75
   4   0 -10   11.82    0.65
   4   0  11   33.02    1.29
  -4   0 -12   15.10    0.87
   4   0  12   14.45    0.83
   4   0 -12   15.36    0.75
  -4   0 -13    3.43    0.49
   4   0  13    3.69    0.48
   4   0 -13    3.67    0.40
   4   0 -14   39.33    1.30
  -4   0 -14   37.73    1.52
   4   0  14   37.09    1.45
  -4   0 -15    3.11    0.51
   4   0  15    3.65    0.51
  -4   0  15    3.90    0.60
   4   0 -15    3.47    0.39
  -4   0 -16   -0.05    0.40
   4   0  16   -0.21    0.41
  -4   0  16   -0.13    0.44
   4   0 -16    0.11    0.28
  -4   0 -17   13.79    0.95
   4   0  17   14.73    0.91
  -4   0 -18   45.19    1.86
   4   0  18   46.62    1.77
  -4   0 -19   13.84    1.03
   4   0  19   13.53    0.94
  -4   0 -20    3.11    0.62
   4   0  20    2.52    0.62
  -4   0 -21    0.62    0.55
   4   0  21    0.22    0.50
  -4   0 -22    7.18    0.86
   4   0  22    7.94    0.83
  -4   0 -23   30.14    1.70
   4   0  23   32.90    1.62
  -4   0 -24   12.44    1.14
   4   0  24   13.33    1.11
  -4   0 -25   29.70    1.75
   4   0  25   30.74    1.64
  -4   0 -26   17.63    1.37
   4   0  26   13.72    1.22
  -4   0 -27    5.64    0.96
   4   0  27    6.61    0.93
  -4   0 -28    0.38    0.73
   4   0  28    0.49    0.75
  -4   0 -29    3.08    0.83
   4   0  29    2.31    0.84
  -4   0 -30    0.41    0.73
   4   0  30    0.77    0.80
  -4   0 -31    1.04    0.76
   4   0  31    0.17    0.71
  -4   0 -32    0.53    0.79
   4   0  32    1.06    0.82
  -4   0 -33    0.53    0.85
   4   0  33    0.71    0.82
  -4   0 -34    2.64    0.89
   4   0 -34    2.85    0.83
   4   0 -35    1.09    0.78
   4   0 -36    1.06    0.79
   4   0 -37    0.63    0.74
   4   1 -37    2.25    0.76
   4   1 -37    2.14    0.85
   4   1 -36    0.76    0.77
   4   1 -35    2.87    0.84
  -4  -1 -35    1.58    0.83
  -4  -1 -34    3.02    0.89
   4   1 -34    3.12    0.93
  -4  -1 -33    0.71    0.77
   4   1 -33    0.81    0.76
   4  -1  33    0.09    0.77
  -4  -1 -32    0.81    0.74
   4  -1  32    1.67    0.81
  -4  -1 -31    5.16    1.03
   4  -1  31    6.25    1.04
  -4  -1 -30   26.45    1.75
   4  -1  30   23.49    1.63
  -4  -1 -29    4.15    0.91
   4  -1  29    3.33    0.84
  -4  -1 -28    0.27    0.75
   4  -1  28    1.81    0.81
  -4  -1 -27   11.12    1.16
   4  -1  27   12.89    1.18
  -4  -1 -26    0.59    0.67
   4  -1  26    0.36    0.64
  -4  -1 -25   15.44    1.27
   4  -1  25   17.26    1.24
  -4  -1 -24   29.00    1.64
   4  -1  24   29.89    1.58
  -4  -1 -23   39.02    1.89
   4  -1  23   40.68    1.81
  -4  -1 -22   27.89    1.51
   4  -1  22   26.54    1.43
  -4  -1 -21    4.38    0.67
   4  -1  21    2.72    0.63
  -4  -1 -20   24.36    1.36
   4  -1  20   26.62    1.35
  -4  -1 -19  216.68    5.81
   4  -1  19  222.53    5.71
  -4  -1 -18   45.66    1.86
   4  -1  18   50.03    1.83
  -4  -1 -17    3.91    0.58
   4   1 -17    5.29    0.50
   4   1 -16   17.63    0.85
  -4  -1 -16   17.19    0.99
   4  -1  16   18.51    0.99
   4   1 -15   25.38    1.05
  -4  -1 -15   24.55    1.17
   4  -1  15   25.53    1.17
   4   1 -14   20.99    0.94
  -4  -1 -14   21.10    1.05
   4  -1  14   22.35    1.06
   4   1 -13   48.08    1.59
  -4  -1 -13   45.32    1.65
   4  -1  13   51.96    1.72
  -4  -1 -12   11.49    0.72
   4  -1  12   12.03    0.75
   4   1 -12   11.01    0.60
   4   1 -12   12.69    0.71
  -4  -1 -11   15.69    0.81
   4   1 -11   14.42    0.66
   4  -1  11   15.73    0.84
   4   1 -10    1.54    0.24
   4  -1  10    2.09    0.40
   4   1  -9    7.31    0.41
   4  -1   9    8.24    0.60
   4   1  -8   18.88    0.79
   4   1  -8   19.59    0.69
   4  -1   8   20.55    0.93
   4   1  -8   18.29    0.91
   4   1  -7   81.55    2.22
   4  -1   7   79.59    2.36
   4   1  -7   82.39    2.37
   4   1  -6  178.23    4.42
   4  -1   6  185.83    4.60
   4   1  -6  181.84    4.53
   4   1  -5   28.68    1.11
   4  -1   5   32.08    1.21
   4   1  -5   30.09    1.08
   4   1  -4   75.84    2.12
   4   1  -4   75.67    2.14
   4   1  -3  156.73    3.91
   4   1  -3  157.06    3.89
   4  -1   3  155.75    3.62
   4   1  -2   85.02    2.38
  -4  -1  -2   88.61    2.44
   4  -1   2   85.88    2.11
  -4   1   1  140.27    3.66
  -4  -1  -1  136.82    3.51
   4  -1   1  134.77    3.20
  -4   1   0  216.85    5.39
  -4  -1   0  219.33    5.18
   4  -1   0  212.09    4.92
  -4  -1   1  140.07    3.48
  -4   1  -1  141.15    3.74
   4   1   1  135.60    3.40
  -4   1  -2   85.88    2.59
   4   1   2   86.65    2.27
   4  -1  -3  155.36    3.75
  -4   1  -3  154.40    4.14
   4  -1  -3  155.78    3.72
   4   1   3  156.71    3.78
   4  -1  -4   74.58    2.00
  -4   1  -4   77.60    2.41
   4  -1  -4   75.44    2.02
   4   1   4   79.66    2.06
   4  -1  -5   30.70    1.14
   4  -1  -5   30.10    0.96
  -4   1  -5   25.99    1.25
   4   1   5   31.08    1.01
   4  -1  -5   29.59    1.01
   4  -1  -6  177.07    4.49
   4  -1  -6  180.57    4.22
   4   1   6  182.66    4.32
   4  -1  -6  177.87    4.36
   4  -1  -7   79.17    2.01
   4  -1 -11   15.28    0.83
   4  -1 -12   12.75    0.63
   4  -1 -13   47.15    1.44
   4  -1 -14   21.29    0.83
  -4   1 -14   20.62    1.12
  -4   1 -15   27.60    1.32
   4  -1 -15   24.90    0.92
   4  -1 -16   18.46    0.75
  -4   1 -16   15.76    1.03
  -4   1 -17    3.32    0.61
  -4   1 -18   47.39    1.98
  -4   1 -19  211.59    5.81
  -4   1 -20   24.14    1.44
  -4   1 -21    3.60    0.71
  -4   1 -22   25.27    1.55
  -4   1 -23   38.84    1.96
  -4   1 -24   26.54    1.64
  -4   1 -25   16.73    1.38
  -4   1 -26    0.84    0.69
  -4   1 -27   12.32    1.27
  -4   1 -28    0.81    0.67
  -4   1 -29    4.42    0.93
  -4   1 -30   26.81    1.86
  -4   1 -31    4.93    1.04
  -4   1 -32    1.22    0.82
  -4   1 -33    1.00    0.76
   4  -1 -34    1.74    0.80
   4  -1 -35    3.05    0.85
   4  -1 -36    0.39    0.76
   4  -1 -37    1.73    0.81
   4   2 -37    0.09    0.75
   4   2 -37   -0.34    0.79
   4   2 -36    2.29    0.82
   4   2 -36    1.92    0.82
   4   2 -35    5.28    0.98
  -4  -2 -35    2.80    0.85
   4   2 -35    2.72    0.84
  -4  -2 -34    0.76    0.78
   4   2 -34    2.01    0.90
  -4  -2 -33    3.83    0.85
   4   2 -33    4.55    0.99
  -4  -2 -32    1.43    0.76
   4  -2  32    1.57    0.83
  -4  -2 -31    7.50    1.04
   4  -2  31    7.24    1.05
  -4  -2 -30    2.66    0.82
   4  -2  30    3.30    0.86
  -4  -2 -29    8.82    1.10
   4  -2  29    8.73    1.11
  -4  -2 -28   11.90    1.19
   4  -2  28   12.70    1.25
  -4  -2 -27   25.54    1.64
   4  -2  27   29.83    1.69
  -4  -2 -26   17.09    1.29
   4  -2  26   14.71    1.22
  -4  -2 -25   44.94    2.10
   4  -2  25   46.86    2.06
  -4  -2 -24    9.71    0.98
   4  -2  24   10.32    0.99
  -4  -2 -23   30.09    1.59
   4  -2  23   31.81    1.61
  -4  -2 -22   81.90    2.86
   4  -2  22   83.79    2.81
  -4  -2 -21   28.35    1.45
   4  -2  21   26.73    1.41
  -4  -2 -20   64.77    2.36
   4  -2  20   68.77    2.35
  -4  -2 -19   18.23    1.10
   4  -2  19   18.63    1.10
  -4  -2 -18    3.04    0.55
   4  -2  18    2.07    0.52
   4   2 -17   29.11    1.20
  -4  -2 -17   28.46    1.30
   4  -2  17   28.15    1.30
   4   2 -16   36.13    1.37
  -4  -2 -16   34.12    1.43
   4  -2  16   38.27    1.49
   4   2 -15   33.17    1.31
  -4  -2 -15   34.30    1.36
   4  -2  15   34.14    1.38
  -4   2  15   32.13    1.57
   4   2 -14   20.18    0.96
  -4  -2 -14   19.84    0.97
   4  -2  14   19.94    1.00
  -4   2  14   19.97    1.19
   4   2 -13   81.25    2.41
  -4  -2 -13   83.40    2.40
   4  -2  13   84.83    2.47
  -4   2  13   82.90    2.72
   4   2 -13   78.05    2.13
   4   2 -12  137.54    3.65
  -4  -2 -12  139.52    3.58
   4  -2  12  137.47    3.67
   4   2 -12  134.76    3.28
  -4  -2 -11  263.96    6.20
   4   2 -11  255.69    5.85
   4  -2  11  262.69    6.31
   4   2 -10   73.19    1.77
   4  -2  10   79.64    2.27
   4   2  -9   85.08    2.37
   4  -2   9   85.77    2.45
   4   2  -9   79.49    2.53
   4   2  -8   86.72    2.45
   4  -2   8   90.78    2.54
   4   2  -8   87.82    2.63
   4   2  -7  120.57    3.17
   4  -2   7  122.69    3.25
   4   2  -7  117.71    3.30
   4   2  -6  161.80    4.05
   4  -2   6  159.95    4.12
   4   2  -6  160.10    4.15
   4   2  -5   10.77    0.66
   4  -2   5   11.37    0.68
   4   2  -5   11.12    0.65
   4   2  -4    5.49    0.48
   4   2  -4    4.97    0.25
   4   2  -4    5.32    0.46
   4   2  -3   52.70    1.69
   4   2  -3   53.31    1.68
   4   2  -2  219.85    5.38
  -4  -2  -1    1.98    0.27
   4  -2   1    1.47    0.15
  -4   2   0    2.80    0.44
  -4  -2   0    2.80    0.29
   4  -2   0    3.01    0.20
  -4  -2   1    1.43    0.21
  -4   2  -1    0.94    0.32
   4   2   1    1.43    0.29
  -4   2  -2  222.59    5.72
   4   2   2  224.44    5.35
   4  -2  -3   55.21    1.49
  -4   2  -3   56.99    1.96
   4  -2  -3   55.87    1.46
   4   2   3   51.39    1.62
  -4   2  -3   55.12    1.31
   4  -2  -4    5.23    0.32
  -4   2  -4    6.24    0.58
  -4   2  -4    5.09    0.26
   4  -2  -4    5.08    0.33
   4   2   4    4.19    0.39
  -4   2  -5   10.98    0.79
   4  -2  -5   11.14    0.46
   4   2   5   11.59    0.61
   4  -2  -5   11.73    0.54
   4  -2  -6  157.08    3.63
  -4   2  -6  159.56    4.35
   4   2   6  154.13    3.88
   4  -2  -7  117.29    3.32
   4   2   7  122.71    3.11
   4  -2  -8   86.46    2.59
   4  -2  -9   83.64    2.55
   4  -2 -10   76.21    2.42
   4  -2 -11  259.32    6.49
   4  -2 -12  136.14    3.34
   4  -2 -13   80.00    2.09
   4  -2 -14   17.96    0.69
   4  -2 -15   33.34    1.03
  -4   2 -15   32.77    1.54
  -4   2 -16   33.64    1.60
  -4   2 -17   28.88    1.51
  -4   2 -18    2.71    0.63
  -4   2 -19   17.99    1.27
  -4   2 -20   65.68    2.59
  -4   2 -21   29.85    1.69
  -4   2 -22   85.73    3.19
  -4   2 -23   29.22    1.76
  -4   2 -24    9.04    1.13
  -4   2 -25   50.75    2.45
  -4   2 -26   15.74    1.41
  -4   2 -27   22.96    1.71
  -4   2 -28   10.80    1.24
  -4   2 -29    6.49    1.11
  -4   2 -30    2.81    0.95
  -4   2 -31    7.76    1.16
   4  -2 -34    1.41    0.79
   4  -2 -35    3.71    0.87
   4  -2 -36    1.98    0.79
   4  -2 -37    0.14    0.70
   4   3 -37    5.14    0.91
   4   3 -37    3.43    1.02
   4   3 -37    5.01    0.95
   4   3 -36   -0.52    0.77
   4   3 -36    0.81    0.79
  -4  -3 -35    7.24    1.02
   4   3 -35    8.06    1.10
   4   3 -35    8.07    1.16
   4   3 -34    1.12    0.83
  -4  -3 -34   -0.71    0.76
   4   3 -34    0.54    0.77
   4   3 -33   23.57    1.70
   4   3 -33   20.95    1.60
  -4  -3 -33   18.17    1.46
  -4  -3 -32    1.16    0.80
   4  -3  32    0.69    0.76
  -4  -3 -31    2.20    0.80
   4  -3  31    2.04    0.83
  -4  -3 -30    9.51    1.09
   4  -3  30   10.09    1.12
  -4  -3 -29    9.84    1.12
   4  -3  29    8.81    1.13
  -4  -3 -28    3.92    0.82
   4  -3  28    4.82    0.96
  -4  -3 -27   16.49    1.29
   4  -3  27   17.56    1.35
  -4  -3 -26    3.38    0.72
   4  -3  26    4.53    0.87
  -4  -3 -25    2.29    0.65
   4  -3  25    1.96    0.73
  -4  -3 -24   27.51    1.52
   4  -3  24   30.88    1.61
  -4  -3 -23    9.49    0.94
   4  -3  23   11.53    0.97
  -4  -3 -22   21.36    1.28
   4  -3  22   24.41    1.33
  -4  -3 -21    3.45    0.61
   4  -3  21    3.30    0.64
  -4  -3 -20   20.20    1.17
   4  -3  20   24.25    1.26
  -4  -3 -19    0.50    0.43
   4  -3  19    1.29    0.53
  -4  -3 -18   58.35    2.06
   4  -3  18   62.75    2.13
   4   3 -17   97.28    2.85
  -4  -3 -17   93.08    2.83
   4  -3  17  100.24    2.92
  -4  -3 -16    3.68    0.50
   4  -3  16    3.05    0.54
   4   3 -16    3.49    0.50
   4   3 -15   68.14    2.23
  -4  -3 -15   71.21    2.19
   4  -3  15   74.32    2.28
  -4   3  15   71.07    2.53
   4   3 -14    8.97    0.69
  -4  -3 -14    9.88    0.64
   4  -3  14   10.52    0.74
  -4   3  14   10.60    0.85
   4   3 -14    7.95    0.38
   4  -3  13    0.08    0.36
  -4   3  13    0.06    0.36
   4   3 -13    0.04    0.07
   4   3 -13    0.57    0.37
   4   3 -12   17.19    0.91
  -4  -3 -12   15.44    0.77
  -4   3  12   15.61    1.01
   4  -3  12   15.48    0.87
  -4  -3 -11   35.62    1.22
   4   3 -11   36.46    1.42
   4  -3  11   35.99    1.35
   4   3 -11   33.76    1.52
  -4  -3 -10   60.55    1.77
   4  -3  10   63.23    1.96
   4   3 -10   59.24    2.12
   4   3  -9  490.98   11.46
   4  -3   9  504.42   11.47
   4   3  -9  499.69   11.70
   4   3  -8   13.26    0.77
   4  -3   8   16.21    0.84
   4   3  -8   15.23    0.91
   4   3  -7  640.38   14.82
   4  -3   7  665.66   14.83
   4   3  -7  656.30   14.99
   4   3  -6  264.72    6.37
   4  -3   6  255.49    6.24
   4   3  -6  254.35    6.24
   4   3  -5  596.62   13.77
   4  -3   5  608.82   13.70
   4   3  -5  598.81   13.71
   4   3  -4   89.73    2.57
   4   3  -4   87.95    2.15
   4  -3   4   88.45    2.54
   4   3  -4   87.47    2.55
   4   3  -3  116.05    3.14
   4   3  -3  114.62    3.14
   4   3  -3  114.55    2.68
   4   3  -2  121.71    3.23
   4   3  -2  116.54    2.70
   4   3  -1  164.58    4.15
   4   3  -1  157.44    3.55
  -4  -3   0  204.51    4.82
  -4   3   0  204.25    5.43
  -4   3   0  208.74    4.63
  -4   3  -1  168.75    4.52
  -4  -3   1  168.34    3.80
   4   3   1  162.55    4.13
  -4   3  -1  161.31    3.70
  -4   3  -2  115.82    3.46
  -4   3  -2  118.68    2.75
   4   3   2  119.21    3.14
  -4   3  -3  115.81    3.50
   4  -3  -3  121.17    3.39
   4  -3  -3  121.00    2.79
  -4   3  -3  120.98    2.82
   4   3   3  114.89    3.14
   4  -3  -4   90.52    2.17
   4  -3  -4   94.38    2.75
  -4   3  -4   90.33    2.88
  -4   3  -4   88.68    2.22
   4   3   4   91.23    2.57
   4  -3  -4   90.97    2.20
   4   3   4   87.94    2.49
   4  -3  -5  600.70   13.87
  -4   3  -5  615.38   14.10
   4  -3  -5  597.86   13.15
   4   3   5  595.84   13.63
   4   3   5  601.69   13.57
   4  -3  -5  599.32   13.29
  -4   3  -6  255.97    6.58
   4  -3  -6  253.70    6.36
   4   3   6  255.13    6.15
   4   3   6  252.52    6.09
   4  -3  -7  663.91   14.95
  -4   3  -7  658.12   15.19
   4   3   7  636.94   14.67
   4   3   7  641.98   14.62
   4   3   8   15.75    0.82
   4  -3  -8   14.45    0.89
  -4   3  -8   14.84    1.00
   4   3   9  496.25   11.30
   4  -3  -9  477.21   11.58
  -4   3  -9  498.36   11.86
   4   3  10   59.17    1.89
   4  -3 -10   62.12    2.16
   4   3  11   36.21    1.35
   4  -3 -11   34.32    1.52
   4  -3 -12   16.02    0.61
   4   3  12   16.38    0.86
   4   3  13    0.49    0.36
   4   3  14    8.96    0.68
   4   3  15   72.03    2.27
   4   3  16    2.95    0.51
   4   3  17   94.56    2.89
  -4   3 -17  101.34    3.12
  -4   3 -18   59.40    2.45
   4   3  18   61.65    2.15
  -4   3 -19    1.61    0.64
   4   3  19    0.69    0.48
  -4   3 -20   19.91    1.41
   4   3  20   20.69    1.18
  -4   3 -21    2.54    0.76
   4   3  21    2.92    0.65
  -4   3 -22   23.45    1.58
   4   3  22   22.77    1.31
  -4   3 -23   11.03    1.17
   4   3  23    9.78    0.94
  -4   3 -24   22.14    1.62
   4   3  24   21.02    1.35
  -4   3 -25    0.91    0.73
   4   3  25    3.24    0.75
  -4   3 -26    3.67    0.90
   4   3  26    4.87    0.83
  -4   3 -27   14.11    1.46
   4   3  27   17.51    1.36
  -4   3 -28    4.02    0.99
   4   3  28    6.23    1.00
   4   3  29    9.28    1.11
   4   3  30    9.73    1.14
   4   3  31    2.12    0.79
   4   3  32    0.26    0.73
   4  -3 -33   23.21    1.55
   4  -3 -34    1.24    0.75
   4  -3 -35    7.37    0.94
   4  -3 -36    0.27    0.69
   4   4 -37    3.16    0.98
   4   4 -37    1.57    0.84
   4   4 -36   -0.42    0.73
   4   4 -36   -0.23    0.86
   4   4 -36    0.27    0.77
   4   4 -35    2.89    0.89
   4   4 -35    1.07    0.89
   4   4 -35    3.24    0.96
   4   4 -34    2.92    0.97
   4   4 -34    2.71    0.86
   4   4 -33    4.40    1.00
  -4  -4 -33    4.58    0.90
   4   4 -33    4.59    0.93
  -4  -4 -32    1.50    0.75
   4   4 -32    2.41    0.87
   4   4 -32    0.97    0.77
   4  -4  32    2.01    0.80
  -4  -4 -31    4.46    0.86
   4   4 -31    5.94    1.00
   4  -4  31    5.98    0.99
  -4  -4 -30    2.60    0.70
   4  -4  30    1.23    0.79
  -4  -4 -29    4.99    0.85
   4  -4  29    5.06    0.93
  -4  -4 -28    7.37    0.95
   4  -4  28    8.82    1.09
  -4  -4 -27    4.36    0.80
   4  -4  27    5.16    0.90
  -4  -4 -26    0.28    0.58
   4  -4  26    0.14    0.67
  -4  -4 -25    9.57    0.96
   4  -4  25   10.12    0.99
  -4  -4 -24    9.76    0.91
   4  -4  24    8.13    0.89
  -4  -4 -23    2.48    0.60
   4  -4  23    2.76    0.67
  -4  -4 -22    6.21    0.75
   4  -4  22    8.24    0.86
  -4  -4 -21   14.66    1.00
   4  -4  21   14.69    1.03
  -4  -4 -20    7.83    0.72
   4  -4  20    7.97    0.81
  -4  -4 -19    5.40    0.63
   4  -4  19    4.76    0.64
   4   4 -18    7.22    0.73
  -4  -4 -18    7.82    0.68
   4  -4  18    8.54    0.75
   4   4 -17   37.82    1.56
  -4  -4 -17   37.90    1.45
   4  -4  17   39.53    1.55
   4   4 -16   36.97    1.33
  -4  -4 -16   33.62    1.15
   4  -4  16   33.79    1.25
   4   4 -15    6.51    0.66
  -4  -4 -15    7.70    0.59
   4  -4  15    7.82    0.66
  -4   4  15    8.22    0.80
   4   4 -14    6.21    0.65
  -4  -4 -14    7.34    0.54
  -4   4  14    7.30    0.74
   4  -4  14    6.38    0.60
   4   4 -13   25.40    1.18
  -4  -4 -13   24.95    0.97
  -4   4  13   19.63    1.18
   4  -4  13   22.22    1.06
   4   4 -13   22.84    1.31
   4   4 -12   24.71    1.16
  -4  -4 -12   22.21    0.90
  -4   4  12   22.33    1.20
   4  -4  12   23.50    1.06
   4   4 -12   21.76    1.25
  -4  -4 -11  120.02    3.00
  -4   4  11  116.51    3.45
   4   4 -11  117.16    3.37
   4  -4  11  115.63    3.19
   4   4 -11  116.36    3.54
  -4  -4 -10    6.45    0.42
   4  -4  10    7.59    0.60
   4   4 -10    5.88    0.66
   4   4  -9   12.80    0.78
   4  -4   9   12.77    0.74
   4   4  -9   11.82    0.86
   4   4  -8   76.34    2.46
   4  -4   8   73.87    2.21
   4   4  -8   74.70    2.31
   4   4  -7   15.18    0.92
   4  -4   7   14.74    0.80
   4   4  -7   14.63    0.84
   4   4  -6   34.65    1.41
   4  -4   6   30.75    1.23
   4   4  -6   34.86    1.35
   4   4  -5    6.09    0.58
   4   4  -5    6.41    0.40
   4  -4   5    6.26    0.53
   4   4  -5    5.67    0.55
   4   4  -4   32.56    1.33
   4   4  -4   32.21    1.30
   4   4  -4   31.29    0.98
   4  -4   4   31.21    1.22
   4   4  -3   66.36    2.12
   4   4  -3   66.51    1.72
   4   4  -2  200.42    5.18
   4   4  -2  206.05    4.69
   4   4  -1   64.78    2.11
  -4   4   1   66.71    1.63
   4   4  -1   62.26    1.61
   4   4   0   71.77    2.27
   4   4   0   75.68    1.77
  -4   4   0   68.51    1.78
  -4   4  -1   68.32    2.34
  -4  -4   1   61.83    1.51
   4   4   1   63.57    1.58
  -4   4  -1   65.77    1.63
   4   4   1   62.09    1.97
  -4   4  -2  203.17    5.49
   4  -4  -2  211.94    5.38
   4   4   2  202.04    5.08
  -4   4  -2  202.86    4.70
   4  -4  -3   67.95    2.30
  -4   4  -3   70.03    2.43
  -4   4  -3   69.08    1.80
   4   4   3   68.09    2.10
  -4   4  -4   33.21    1.53
   4  -4  -4   32.51    1.42
   4  -4  -4   30.92    0.80
   4   4   4   29.98    1.18
  -4   4  -4   30.97    1.00
   4  -4  -4   31.59    0.85
   4   4   4   31.88    1.23
  -4   4  -5    6.82    0.70
   4  -4  -5    5.94    0.62
  -4   4  -5    6.35    0.41
   4   4   5    6.26    0.53
   4   4   5    6.15    0.53
   4  -4  -6   33.80    1.46
  -4   4  -6   33.20    1.56
   4   4   6   33.89    1.25
   4   4   6   30.75    1.24
   4  -4  -7   14.21    0.93
  -4   4  -7   15.25    1.03
   4   4   7   14.63    0.77
   4   4   7   12.87    0.77
   4  -4  -8   74.51    2.50
  -4   4  -8   76.60    2.68
   4   4   8   71.90    2.18
   4   4   8   75.25    2.24
   4   4   9   12.49    0.72
   4  -4  -9   13.35    0.91
  -4   4  -9   11.57    0.96
   4   4  10    5.64    0.52
   4  -4 -10    5.46    0.63
  -4   4 -10    6.50    0.73
   4   4  11  116.51    3.15
   4  -4 -11  113.98    3.52
  -4   4 -11  116.40    3.70
   4   4  12   22.76    1.04
   4  -4 -12   22.98    1.27
  -4   4 -12   22.42    1.37
   4   4  13   24.47    1.08
   4   4  14    6.41    0.61
   4   4  15    7.49    0.65
   4   4  16   36.17    1.47
  -4   4 -16   39.21    1.60
   4   4  17   37.50    1.55
  -4   4 -17   39.53    1.67
   4   4  18    8.52    0.77
  -4   4 -18    7.91    0.79
   4   4  19    6.30    0.70
   4   4  20    8.19    0.81
   4   4  21   13.41    1.00
   4   4  22    7.74    0.84
   4   4  23    1.71    0.63
   4   4  24    9.69    0.95
   4   4  25   10.42    1.00
   4   4  26    0.43    0.67
   4   4  27    5.98    0.93
   4   4  28    9.50    1.05
   4   4  29    4.40    0.90
   4   4  30    1.30    0.77
   4   4  31    4.21    0.92
   4   4  32    2.17    0.87
   4  -4 -33    4.46    0.84
   4  -4 -34    4.05    0.79
   4   5 -36    0.58    0.73
   4   5 -36    0.11    0.79
   4   5 -36    0.55    0.83
   4   5 -35    1.19    0.74
   4   5 -35    0.82    0.90
   4   5 -35    1.97    0.82
   4   5 -34    0.34    0.71
   4   5 -34    0.36    0.80
   4   5 -34    0.47    0.81
   4   5 -33    9.51    1.20
   4   5 -33    8.61    1.07
   4   5 -33    7.46    1.27
   4   5 -32    0.58    0.84
   4   5 -32    0.09    0.72
   4   5 -32    0.75    0.87
   4   5 -31    2.52    0.90
   4   5 -31    3.25    0.80
   4   5 -31    1.26    0.87
   4  -5  31    0.97    0.74
  -4  -5 -30    3.70    0.79
   4   5 -30    3.10    0.84
   4  -5  30    2.39    0.81
  -4  -5 -29    4.29    0.81
   4   5 -29    3.35    0.85
   4  -5  29    3.29    0.84
   4   5 -28   12.63    1.21
  -4  -5 -28   13.29    1.14
   4  -5  28   13.28    1.21
  -4  -5 -27    8.02    0.91
   4  -5  27    8.01    1.03
  -4  -5 -26    5.84    0.81
   4  -5  26    8.02    0.95
  -4  -5 -25    5.43    0.77
   4  -5  25    5.97    0.86
  -4  -5 -24   13.06    1.02
   4  -5  24   15.12    1.12
  -4  -5 -23    0.85    0.50
   4  -5  23    0.79    0.56
  -4  -5 -22    2.89    0.58
   4  -5  22    2.82    0.66
  -4  -5 -21    9.12    0.78
   4  -5  21    9.02    0.88
  -4  -5 -20   12.66    0.88
   4  -5  20   14.14    0.98
  -4  -5 -19   31.03    1.35
   4  -5  19   32.37    1.44
  -4  -5 -18   15.49    0.89
   4  -5  18   15.96    0.99
   4   5 -17    7.34    0.73
  -4  -5 -17    8.21    0.65
   4  -5  17    7.66    0.70
   4   5 -16   50.39    1.91
  -4  -5 -16   51.73    1.68
   4  -5  16   47.15    1.75
   4   5 -16   51.58    2.24
  -4  -5 -15    2.19    0.37
   4   5 -15    1.84    0.60
   4  -5  15    2.01    0.47
   4   5 -15    2.04    0.48
  -4   5  15    1.87    0.53
  -4  -5 -14    2.80    0.37
   4   5 -14    3.93    0.69
  -4   5  14    3.28    0.56
   4   5 -14    3.42    0.55
   4  -5  14    3.21    0.47
  -4  -5 -13   19.33    0.82
   4   5 -13   19.28    1.10
  -4   5  13   19.70    1.12
   4  -5  13   19.85    0.96
   4   5 -13   18.30    1.21
   4   5 -12    8.70    0.74
  -4  -5 -12    8.07    0.49
  -4   5  12    8.29    0.75
   4  -5  12    8.37    0.62
   4   5 -12    9.42    0.86
   4   5 -11    8.15    0.74
  -4  -5 -11    7.58    0.45
  -4   5  11    5.91    0.64
   4  -5  11    7.45    0.59
   4   5 -11    6.70    0.76
  -4  -5 -10  118.66    2.97
   4   5 -10  127.33    3.54
  -4   5  10  121.35    3.49
   4  -5  10  125.46    3.28
   4   5 -10  117.54    3.64
   4   5  -9   13.71    0.94
   4  -5   9   11.32    0.70
  -4   5   9   11.46    0.79
   4   5  -9   12.61    0.83
   4   5  -8  114.12    3.40
   4  -5   8  113.06    3.04
   4   5  -8  110.62    3.23
   4   5  -7   14.44    0.94
   4  -5   7   13.57    0.75
   4   5  -7   13.86    0.87
   4   5  -6  132.71    3.66
   4  -5   6  129.46    3.36
   4   5  -6  120.08    3.20
   4   5  -6  128.31    3.56
   4   5  -5   12.78    0.86
   4   5  -5   11.79    0.60
   4  -5   5   12.31    0.72
   4   5  -5   11.86    0.80
   4   5  -4   57.65    1.99
   4   5  -4   55.12    1.94
   4   5  -4   56.89    1.61
   4  -5   4   53.88    1.76
   4   5  -3  249.70    6.27
   4   5  -3  249.16    5.78
   4   5  -2   11.35    0.81
   4   5  -2   11.22    0.52
   4   5  -1   20.00    1.07
  -4   5   1   22.18    0.75
   4   5  -1   19.55    0.72
   4   5   0  180.64    4.71
  -4   5   0  177.18    4.16
   4   5   0  174.72    4.12
   4   5   1   22.77    1.14
   4   5   1   21.63    0.73
   4   5   1   21.84    1.06
  -4   5  -1   21.12    0.77
  -4   5  -2   12.37    0.95
   4   5   2   11.93    0.83
   4  -5  -2   12.55    0.89
   4   5   2   11.16    0.49
   4   5   2   11.53    0.75
  -4   5  -3  256.71    6.71
   4  -5  -3  257.52    6.57
   4   5   3  247.41    6.09
   4   5   3  254.43    6.24
  -4   5  -4   54.39    2.15
   4  -5  -4   51.97    2.02
   4   5   4   52.63    1.71
   4   5   4   54.59    1.83
  -4   5  -5   10.40    0.89
   4  -5  -5   12.52    0.92
   4   5   5   12.07    0.70
   4   5   5   12.48    0.79
  -4   5  -6  127.74    3.94
   4  -5  -6  127.49    3.81
   4   5   6  129.43    3.37
  -4   5  -6  126.66    3.27
   4   5   6  129.32    3.51
   4  -5  -7   13.58    0.95
  -4   5  -7   12.32    0.98
   4   5   7   14.08    0.75
   4   5   7   12.99    0.81
   4  -5  -8  107.88    3.43
  -4   5  -8  110.79    3.60
   4   5   8  112.37    3.01
   4   5   8  114.62    3.17
   4  -5  -9   12.41    0.94
  -4   5  -9   10.31    0.93
   4   5   9   12.08    0.70
   4   5   9   10.13    0.74
   4   5  10  121.73    3.22
   4  -5 -10  115.84    3.67
  -4   5 -10  120.01    3.85
   4   5  11    7.27    0.60
   4  -5 -11    7.66    0.77
  -4   5 -11    7.09    0.80
   4   5  12    9.17    0.65
   4  -5 -12    7.43    0.78
  -4   5 -12    8.94    0.92
   4   5  13   19.38    0.95
  -4   5 -13   19.28    1.31
   4  -5 -13   18.82    1.20
   4   5  14    2.80    0.46
   4   5  15    1.60    0.43
  -4   5 -15    2.22    0.48
   4   5  16   50.10    1.78
  -4   5 -16   50.65    1.86
   4   5  17    8.69    0.73
  -4   5 -17    9.30    0.78
   4   5  18   16.36    0.99
  -4   5 -18   16.79    1.04
   4   5  19   34.69    1.51
   4   5  20   12.52    0.95
   4   5  21    8.45    0.84
   4   5  22    2.92    0.65
   4   5  23    0.72    0.56
   4   5  24   15.82    1.16
   4   5  25    6.71    0.91
   4   5  26    6.61    0.93
   4   5  27    8.66    1.04
   4   5  28   13.50    1.23
   4   5  29    3.42    0.84
   4   5  30    2.85    0.83
   4   5  31    1.61    0.78
   4   6 -36    2.55    0.91
   4   6 -36    1.62    0.88
   4   6 -35    0.89    0.70
   4   6 -35   -0.35    0.85
   4   6 -35    0.37    0.80
   4   6 -34    2.26    0.80
   4   6 -34    1.80    0.92
   4   6 -34    1.62    0.95
   4   6 -33    2.12    0.82
   4   6 -33    2.58    1.02
   4   6 -33    4.42    0.99
   4   6 -32    4.45    0.99
   4   6 -32    5.08    0.93
   4   6 -32    6.12    1.21
   4   6 -31    5.13    0.92
   4   6 -31    5.03    1.11
   4   6 -30   12.50    1.24
   4   6 -30    9.84    1.33
   4  -6  30   11.73    1.18
   4   6 -29    5.64    1.14
   4   6 -29    6.68    0.96
   4  -6  29    6.15    0.93
   4   6 -28    7.47    0.97
   4   6 -28    6.56    1.17
   4  -6  28    4.67    0.90
   4   6 -27   40.62    2.00
   4  -6  27   40.73    1.96
   4   6 -27   37.56    2.34
   4   6 -26    4.09    0.77
   4   6 -26    4.88    0.99
   4  -6  26    5.06    0.88
  -4  -6 -25    2.89    0.65
   4   6 -25    3.93    0.95
   4   6 -25    3.77    0.71
   4  -6  25    3.37    0.74
  -4  -6 -24    0.34    0.49
   4   6 -24    0.79    0.71
   4   6 -24    1.24    0.61
   4  -6  24   -0.44    0.59
  -4  -6 -23    1.85    0.53
   4   6 -23    2.71    0.86
   4  -6  23    1.53    0.61
  -4  -6 -22   15.21    1.00
   4  -6  22   17.42    1.13
   4   6 -22   15.08    1.42
  -4  -6 -21   15.27    0.96
   4  -6  21   16.88    1.08
   4   6 -21   15.61    1.43
  -4  -6 -20    1.86    0.46
   4   6 -20    0.97    0.70
   4  -6  20    1.27    0.55
  -4  -6 -19   13.81    0.84
   4  -6  19   13.51    0.96
   4   6 -19   13.20    1.18
  -4  -6 -18   35.02    1.36
   4  -6  18   35.44    1.49
   4   6 -18   37.34    1.98
   4   6 -17   29.59    1.46
  -4  -6 -17   29.87    1.17
   4  -6  17   27.66    1.29
   4   6 -17   28.53    1.73
   4   6 -16   22.04    1.23
  -4  -6 -16   22.94    0.96
   4  -6  16   20.92    1.07
   4   6 -16   19.03    1.37
  -4  -6 -15   62.98    1.82
   4   6 -15   58.44    2.19
  -4   6  15   59.31    2.22
   4  -6  15   59.93    1.99
   4   6 -15   58.09    2.44
   4   6 -14   25.82    1.34
  -4   6  14   27.49    1.36
   4  -6  14   27.53    1.18
   4   6 -14   25.06    1.50
   4   6 -13   75.56    2.48
  -4   6  13   70.15    2.41
   4  -6  13   68.35    2.15
   4   6 -13   68.45    2.65
   4   6 -12   79.56    2.64
  -4   6  12   80.74    2.60
   4  -6  12   80.28    2.36
   4   6 -12   78.56    2.84
   4   6 -11  143.73    4.35
   4   6 -11  150.93    4.16
   4  -6  11  146.85    3.82
  -4   6  11  146.21    4.06
   4   6 -10   60.78    2.34
   4   6 -10   64.21    2.24
   4  -6  10   63.82    1.95
  -4   6  10   63.61    2.15
   4   6  -9   24.66    1.35
   4  -6   9   23.62    1.02
   4   6  -9   24.65    1.27
   4   6  -9   25.46    1.26
  -4   6   9   24.84    1.17
   4   6  -8   26.53    1.36
   4  -6   8   27.38    1.09
  -4   6   8   26.08    1.18
   4   6  -8   26.66    1.29
   4   6  -7   17.61    0.57
   4   6  -7   16.08    1.05
   4   6  -7   17.54    0.85
   4  -6   7   17.68    0.85
  -4   6   7   17.37    0.92
   4   6  -7   17.90    1.04
   4   6  -6    9.30    0.79
   4   6  -6    8.14    0.31
   4   6  -6    8.82    0.58
   4  -6   6    7.85    0.57
   4   6  -6    8.68    0.73
   4   6  -5   80.53    2.60
   4   6  -5   72.85    2.48
   4  -6   5   76.59    2.24
   4   6  -5   78.95    2.20
   4   6  -4  135.05    3.77
   4  -6   4  127.55    3.45
   4   6  -4  134.32    3.37
   4   6  -3  180.53    4.91
   4  -6   3  180.01    4.59
  -4   6   3  185.66    4.42
   4   6  -3  187.55    4.47
   4   6  -2  251.12    6.41
  -4   6   2  251.69    5.87
   4   6  -2  251.96    5.90
   4   6  -1  487.26   11.08
   4   6  -1  449.33   10.46
  -4   6   1  470.53   10.47
   4   6   0  245.78    6.17
  -4   6   0  236.66    5.63
   4   6   0  240.59    5.60
   4   6   1  481.69   11.31
   4  -6  -1  484.58   11.52
   4   6   1  488.89   11.20
  -4   6  -1  484.66   10.76
   4   6   1  457.44   10.65
   4   6   2  247.84    6.47
   4  -6  -2  260.79    6.68
   4   6   2  256.91    5.88
  -4   6  -2  250.90    5.98
   4   6   2  250.74    6.36
  -4   6  -3  179.58    5.19
   4   6   3  176.21    4.88
   4  -6  -3  182.95    5.07
   4   6   3  180.91    4.52
   4   6   3  186.33    4.32
  -4   6  -3  178.61    4.43
   4   6   3  177.63    4.75
  -4   6  -4  125.08    4.02
   4  -6  -4  137.72    3.98
   4   6   4  129.11    3.39
  -4   6  -4  131.57    3.35
   4   6   4  126.63    3.62
   4  -6  -5   75.87    2.67
  -4   6  -5   75.92    2.77
  -4   6  -5   74.68    2.16
   4   6   5   73.35    2.16
   4   6   5   74.87    2.39
  -4   6  -6    7.71    0.81
   4  -6  -6    8.53    0.79
  -4   6  -6    7.56    0.56
   4   6   6    8.82    0.60
   4   6   6    9.31    0.73
  -4   6  -7   16.97    1.20
   4  -6  -7   17.40    1.16
   4   6   7   18.20    0.85
  -4   6  -7   19.22    0.90
   4   6   7   18.50    1.00
   4  -6  -8   22.97    1.33
  -4   6  -8   23.49    1.43
   4   6   8   23.98    1.01
   4   6   8   27.49    1.23
   4  -6  -9   23.74    1.37
  -4   6  -9   26.20    1.51
   4   6   9   23.90    1.00
   4   6   9   22.46    1.14
   4   6  10   62.13    1.90
   4  -6 -10   64.19    2.43
  -4   6 -10   56.45    2.44
   4   6  11  147.97    3.78
  -4   6 -11  143.06    4.53
   4  -6 -11  142.51    4.38
   4   6  12   79.84    2.32
   4  -6 -12   77.56    2.85
  -4   6 -12   77.40    2.98
   4   6  13   67.03    2.16
   4  -6 -13   71.15    2.72
   4   6  14   29.33    1.21
  -4   6 -14   28.56    1.23
   4  -6 -14   27.68    1.56
   4   6  15   59.47    2.00
  -4   6 -15   65.91    2.09
   4   6  16   19.43    1.04
  -4   6 -16   23.92    1.12
   4   6  17   30.53    1.33
  -4   6 -17   30.64    1.36
   4   6  18   36.28    1.52
  -4   6 -18   37.97    1.55
   4   6  19   14.01    0.94
   4   6  20    1.66    0.57
   4   6  21   14.46    1.03
   4   6  22   17.25    1.13
   4   6  23    1.70    0.62
   4   6  24    0.88    0.61
   4   6  25    2.74    0.71
   4   6  26    5.32    0.93
   4   6  27   38.15    1.92
   4   6  28    6.10    0.93
   4   6  29    7.98    1.02
   4   6  30   12.69    1.18
   4   7 -35    4.52    1.07
   4   7 -34    8.81    1.06
   4   7 -34    7.32    1.19
   4   7 -33    8.85    1.03
   4   7 -33    8.76    1.35
   4   7 -32    1.06    0.73
   4   7 -32   -0.12    0.81
   4   7 -31    2.95    0.87
   4   7 -31    2.64    0.96
   4   7 -30    4.97    0.93
   4   7 -30    3.15    0.98
   4   7 -29   10.94    1.40
   4   7 -29   11.15    1.13
   4  -7  29   10.49    1.07
   4   7 -28   24.76    1.56
   4  -7  28   27.45    1.59
   4   7 -28   23.56    1.92
   4   7 -27    5.87    0.90
   4   7 -27    6.88    1.20
   4  -7  27    7.45    0.92
   4   7 -26    2.86    0.75
   4   7 -26    2.78    0.96
   4  -7  26    3.82    0.82
   4   7 -25   32.26    1.66
   4  -7  25   32.04    1.72
   4   7 -25   32.92    2.12
   4   7 -24    7.58    0.85
   4   7 -24    5.98    1.08
   4  -7  24    6.67    0.89
   4   7 -23    0.85    0.56
   4   7 -23    0.89    0.68
   4  -7  23    1.22    0.60
   4   7 -22    3.65    0.64
   4   7 -22    2.81    0.85
   4  -7  22    3.34    0.65
   4   7 -21    0.32    0.49
   4   7 -21    0.94    0.74
   4  -7  21    0.05    0.51
   4   7 -20    2.24    0.53
   4   7 -20    2.32    0.73
   4  -7  20    2.15    0.57
   4   7 -19   11.16    0.81
   4   7 -19   10.21    1.14
   4  -7  19   10.33    0.84
   4   7 -18   21.31    1.07
   4  -7  18   19.27    1.08
   4   7 -17   55.18    1.86
   4   7 -17   56.75    2.20
   4  -7  17   55.37    1.92
   4   7 -17   50.23    2.42
   4   7 -16   56.22    1.87
   4   7 -16   63.58    2.30
   4  -7  16   57.59    1.96
   4   7 -16   56.94    2.53
   4   7 -15   71.22    2.14
   4   7 -15   73.63    2.55
   4  -7  15   72.09    2.25
   4   7 -15   69.18    2.80
   4   7 -14   24.69    1.02
   4   7 -14   27.45    1.40
  -4   7  14   23.90    1.29
   4  -7  14   26.13    1.13
   4   7 -14   24.24    1.52
   4   7 -13   47.57    1.47
   4   7 -13   45.83    1.90
   4   7 -13   46.72    2.11
   4  -7  13   43.35    1.58
  -4   7  13   49.09    1.85
   4   7 -12    2.49    0.33
   4   7 -12    2.16    0.60
   4  -7  12    2.21    0.44
   4   7 -12    2.76    0.59
  -4   7  12    2.44    0.51
   4   7 -11   38.35    1.19
   4   7 -11   39.36    1.69
   4   7 -11   35.70    1.78
   4  -7  11   38.30    1.37
  -4   7  11   38.53    1.54
   4   7 -10   56.90    1.58
   4   7 -10   59.32    2.17
   4   7 -10   60.89    2.34
   4  -7  10   56.81    1.80
  -4   7  10   58.49    2.00
   4   7  -9   29.65    1.44
   4   7  -9   27.03    1.47
   4   7  -9   27.10    0.87
   4  -7   9   28.41    1.10
  -4   7   9   27.95    1.23
   4   7  -9   30.64    1.43
   4   7  -8   84.41    2.89
   4   7  -8   83.17    2.06
   4   7  -8   82.02    2.52
   4  -7   8   84.14    2.37
  -4   7   8   85.88    2.54
   4   7  -8   86.62    2.79
   4   7  -8   87.66    2.80
   4   7  -7   23.73    1.32
  -4   7   7   24.26    1.07
   4   7  -7   23.23    1.24
   4   7  -7   21.98    1.05
   4  -7   7   23.67    0.98
   4   7  -6    0.30    0.43
   4   7  -6    0.44    0.39
  -4   7   6    0.14    0.29
   4  -7   6    0.56    0.30
   4   7  -6    0.43    0.32
  -4   7   5   37.00    1.34
   4   7  -5   37.46    1.61
   4  -7   5   36.55    1.30
   4   7  -5   35.52    1.33
   4   7  -4   33.19    1.52
   4  -7   4   32.28    1.22
  -4   7   4   35.23    1.20
   4   7  -4   34.11    1.26
   4   7  -3  281.45    7.16
   4  -7   3  281.10    6.70
  -4   7   3  292.14    6.64
   4   7  -3  272.14    6.67
   4   7  -2   59.88    2.19
   4  -7   2   58.50    1.85
  -4   7   2   60.18    1.79
   4   7  -2   62.67    1.83
   4   7  -1   45.53    1.83
   4   7  -1   42.94    1.42
  -4   7   1   46.97    1.46
   4   7   0  110.69    3.30
  -4  -7   0  108.62    2.64
   4   7   0  105.50    3.18
  -4   7   0  103.88    2.80
   4   7   0  102.07    2.76
   4   7   1   47.20    1.84
  -4  -7   1   38.77    1.04
   4  -7  -1   45.34    1.93
   4   7   1   42.80    1.70
  -4   7  -1   45.72    1.43
   4   7   1   47.47    1.38
   4   7   2   59.59    2.18
   4  -7  -2   62.19    2.35
   4   7   2   56.12    1.77
   4   7   2   56.79    1.69
  -4   7  -2   57.45    1.78
   4   7   2   58.85    2.09
   4   7   3  278.34    7.19
   4  -7  -3  277.63    7.35
   4   7   3  269.33    6.62
   4   7   3  285.69    6.56
  -4   7  -3  280.03    6.69
   4   7   3  292.34    7.05
  -4   7  -4   33.87    1.77
   4   7   4   35.72    1.63
   4  -7  -4   34.01    1.68
   4   7   4   34.36    1.23
   4   7   4   34.98    1.19
  -4   7  -4   33.84    1.30
   4   7   4   36.41    1.51
  -4   7  -5   39.10    1.88
   4   7   5   34.17    1.65
   4  -7  -5   40.05    1.81
   4   7   5   37.59    1.28
  -4   7  -5   36.60    1.37
   4   7   5   34.99    1.52
  -4   7  -6    0.24    0.47
   4  -7  -6   -0.07    0.42
   4   7   6    0.88    0.32
   4   7   6    0.10    0.38
  -4   7  -6    0.67    0.35
  -4   7  -7   23.57    1.44
   4  -7  -7   24.72    1.40
   4   7   7   23.96    0.97
  -4   7  -7   22.63    1.07
   4   7   7   22.38    1.17
  -4   7  -8   83.14    3.06
   4  -7  -8   81.93    2.94
   4   7   8   83.26    2.31
  -4   7  -8   80.68    2.50
   4   7   8   81.68    2.63
   4  -7  -9   25.00    1.48
  -4   7  -9   26.36    1.59
  -4   7  -9   28.69    1.27
   4   7   9   28.32    1.10
   4   7   9   30.41    1.38
   4   7  10   61.03    1.86
   4  -7 -10   57.96    2.41
  -4   7 -10   61.54    2.56
   4   7  11   37.79    1.36
   4  -7 -11   35.04    1.83
   4   7  12    3.20    0.46
   4  -7 -12    3.51    0.67
  -4   7 -12    3.87    0.43
   4   7  13   45.06    1.59
  -4   7 -13   49.93    1.60
   4   7  14   25.18    1.11
  -4   7 -14   26.12    1.09
   4   7  15   70.91    2.24
  -4   7 -15   76.16    2.26
   4   7  16   57.18    1.93
   4   7  17   54.72    1.91
   4   7  18   17.42    1.02
   4   7  19   12.07    0.88
   4   7  20    1.83    0.55
   4   7  21    0.99    0.53
   4   7  22    3.27    0.63
   4   7  23    0.64    0.57
   4   7  24    6.85    0.87
   4   7  25   35.45    1.80
   4   7  26    3.85    0.81
   4   7  27    7.03    0.92
   4   7  28   23.96    1.48
   4   7  29   12.17    1.13
   4   8 -35   -0.18    0.79
   4   8 -34    4.44    1.00
   4   8 -33    2.02    0.98
   4   8 -33    3.13    0.96
   4   8 -32    3.76    0.80
   4   8 -32    2.07    0.95
   4   8 -32    2.96    0.92
   4   8 -31    5.73    0.86
   4   8 -31    6.10    1.20
   4   8 -31    5.26    1.04
   4   8 -30    0.76    0.78
   4   8 -30   -0.08    0.64
   4   8 -30    0.63    0.84
   4   8 -29   18.38    1.51
   4   8 -29   17.72    1.32
   4   8 -29   17.71    1.67
   4   8 -28    7.68    1.08
   4   8 -28    6.06    0.89
   4   8 -28    5.29    1.18
   4  -8  28    6.04    0.92
   4   8 -27    2.99    0.73
   4  -8  27    1.93    0.72
   4   8 -26    1.49    0.66
   4   8 -26    3.45    1.04
   4  -8  26    3.10    0.76
   4   8 -25   16.83    1.25
   4   8 -25   17.30    1.61
   4   8 -24   24.96    1.42
   4  -8  24   24.96    1.45
   4   8 -24   23.80    1.86
   4   8 -23    3.18    0.63
   4   8 -23    2.77    0.87
   4  -8  23    3.08    0.69
   4   8 -22    1.32    0.53
   4   8 -22    1.46    0.78
   4  -8  22    1.90    0.61
   4   8 -21   14.62    1.01
   4  -8  21   14.59    1.01
   4   8 -21   15.59    1.50
   4   8 -20   -0.25    0.45
   4   8 -20    0.53    0.65
   4  -8  20   -0.34    0.50
   4   8 -19    7.65    1.06
   4   8 -19    7.88    0.70
   4  -8  19    7.11    0.73
   4   8 -18   21.54    1.08
   4  -8  18   19.10    1.06
   4   8 -18   20.38    1.52
   4   8 -17   42.82    1.58
   4  -8  17   42.97    1.62
   4   8 -17   40.20    2.12
   4   8 -16    3.67    0.49
   4   8 -16    4.40    0.84
   4  -8  16    4.96    0.59
   4   8 -16    4.23    0.72
   4   8 -15   37.49    1.99
   4   8 -15   37.41    1.78
   4   8 -15   38.74    1.39
   4  -8  15   38.40    1.45
   4   8 -14   86.89    3.27
   4   8 -14   92.58    3.02
   4   8 -14   86.00    2.46
   4  -8  14   91.58    2.59
   4   8 -13  174.93    4.88
   4   8 -13  172.08    5.17
   4   8 -13  170.23    4.24
   4  -8  13  173.56    4.38
  -4   8  13  172.77    4.66
   4   8 -12   14.16    1.05
   4   8 -12   12.17    1.09
   4   8 -12   12.94    0.64
   4  -8  12   13.69    0.76
  -4   8  12   12.37    0.86
   4   8 -11   21.61    1.42
   4   8 -11   23.49    1.30
   4   8 -11   21.41    0.81
   4  -8  11   21.88    0.96
  -4   8  11   22.37    1.13
   4   8 -10   12.17    0.96
   4   8 -10   11.26    1.01
   4   8 -10   11.04    0.84
   4  -8  10   10.86    0.65
  -4   8  10   10.47    0.75
   4   8  -9   19.76    1.17
   4   8  -9   18.75    1.26
   4   8  -9   17.50    1.03
   4  -8   9   19.71    0.88
  -4   8   9   19.25    0.96
   4   8  -8   62.39    2.29
   4   8  -8   60.14    2.39
  -4   8   8   62.53    1.98
   4   8  -8   66.62    2.38
   4   8  -8   61.03    2.10
   4  -8   8   59.80    1.83
   4   8  -7    3.36    0.64
   4   8  -7    3.81    0.62
   4   8  -7    2.89    0.57
  -4   8   7    2.92    0.42
   4  -8   7    2.75    0.38
   4   8  -7    1.56    0.43
  -4   8   6   12.77    0.71
   4   8  -6   11.71    0.94
   4   8  -6   13.24    0.81
   4  -8   6   13.26    0.68
  -4   8   5    0.48    0.27
   4   8  -5    0.30    0.44
   4  -8   5    0.08    0.30
  -4   8   5    0.46    0.31
   4   8  -5    0.47    0.37
  -4   8   4  107.34    2.83
   4   8  -4  108.83    3.38
   4  -8   4  107.67    2.84
  -4   8   4  107.86    2.92
   4   8  -4  101.96    2.96
  -4   8   3   18.07    0.79
   4   8  -3   18.62    1.16
   4  -8   3   18.84    0.84
  -4   8   3   18.27    0.88
   4   8  -3   19.81    0.95
  -4   8   2   60.51    1.75
   4   8  -2   63.61    2.32
   4  -8   2   63.60    1.86
  -4   8   2   58.58    1.86
   4   8  -2   60.07    1.90
  -4   8   1    7.78    0.47
   4   8  -1    7.73    0.80
   4  -8   1    8.06    0.56
   4   8  -1    8.13    0.59
  -4   8   1    8.53    0.59
  -4  -8   0   92.07    2.32
   4   8   0   90.25    2.97
  -4   8   0   86.48    2.52
   4   8   0   86.58    2.48
   4   8   0   91.13    2.90
  -4  -8   1    7.82    0.36
   4  -8  -1    8.31    0.85
   4   8   1    8.92    0.85
   4   8   1    8.15    0.56
   4   8   1    9.99    0.84
  -4   8  -1    7.63    0.59
   4   8   1    7.89    0.57
   4   8   2   62.23    2.34
   4  -8  -2   64.83    2.50
   4   8   2   60.85    1.83
   4   8   2   63.51    1.88
  -4   8  -2   62.73    1.98
   4   8   2   61.09    2.24
   4  -8  -3   15.12    1.15
   4   8   3   19.98    0.84
   4   8   3   17.53    0.83
  -4   8  -3   19.23    0.96
   4   8   3   18.16    1.08
   4  -8  -4  106.73    3.54
   4   8   4  104.36    2.76
   4   8   4  102.61    2.81
  -4   8  -4  105.38    3.00
   4   8   4  105.43    3.21
   4  -8  -5   -0.08    0.42
  -4   8  -5    0.26    0.46
   4   8   5    0.71    0.30
   4   8   5    0.27    0.40
   4   8   5    0.73    0.33
  -4   8  -5    0.12    0.35
  -4   8  -6   14.48    1.16
   4  -8  -6   13.18    1.07
  -4   8  -6   11.87    0.80
   4   8   6   13.32    0.67
   4   8   6   11.51    0.89
  -4   8  -7    3.07    0.69
   4  -8  -7    1.58    0.52
   4   8   7    2.79    0.39
  -4   8  -7    2.25    0.44
   4   8   7    3.26    0.55
  -4   8  -8   59.34    2.57
  -4   8  -8   65.23    1.69
   4  -8  -8   59.48    2.49
  -4   8  -8   58.44    2.10
   4   8   8   62.11    1.83
   4   8   8   60.47    2.22
   4  -8  -9   19.78    1.35
  -4   8  -9   20.26    0.76
  -4   8  -9   20.37    1.13
   4   8   9   19.63    0.88
   4   8   9   21.57    1.19
   4   8  10   10.60    0.65
  -4   8 -10   10.79    0.85
   4   8  11   21.47    0.94
   4   8  12   13.29    0.74
  -4   8 -12   12.45    0.64
   4   8  13  172.76    4.37
   4   8  14   89.12    2.57
   4   8  15   37.99    1.43
   4   8  16    4.74    0.58
   4   8  17   42.66    1.61
   4   8  18   19.67    1.05
   4   8  19    7.13    0.71
   4   8  20   -0.24    0.48
   4   8  21   12.53    0.93
   4   8  22    1.24    0.58
   4   8  23    3.43    0.69
   4   8  24   23.70    1.39
   4   8  25   19.18    1.26
   4   8  26    2.17    0.70
   4   8  27    2.10    0.68
   4   8  28    6.64    0.90
   4   9 -34    1.87    0.87
   4   9 -33    0.64    0.83
   4   9 -32    3.47    1.01
   4   9 -31    6.32    1.05
   4   9 -30    1.13    0.83
   4   9 -29    6.34    1.07
   4   9 -29    5.72    0.82
   4   9 -28    2.59    0.92
   4   9 -28    4.35    0.80
   4   9 -27    1.05    0.61
   4   9 -27    0.73    0.82
   4  -9  27    0.56    0.60
   4   9 -26    0.68    0.58
   4   9 -26    1.69    0.83
   4   9 -26   -0.25    0.91
   4  -9  26    1.59    0.63
   4   9 -25    0.59    0.54
   4   9 -25    0.61    0.85
   4  -9  25   -0.06    0.61
   4   9 -24    6.71    0.82
   4   9 -24    5.54    1.12
   4  -9  24    7.55    0.87
   4   9 -23    6.97    1.14
   4   9 -23    8.30    0.84
   4  -9  23    8.54    0.89
   4   9 -22    2.66    0.58
   4   9 -22    3.57    0.99
   4  -9  22    3.47    0.70
   4   9 -21   10.34    1.26
   4   9 -21   12.33    0.93
   4  -9  21   12.10    0.94
   4   9 -20   26.16    1.83
   4   9 -20   25.34    1.28
   4  -9  20   25.63    1.28
   4   9 -19    5.07    0.62
   4   9 -19    4.47    1.03
   4  -9  19    5.92    0.71
   4   9 -18    6.29    1.02
   4   9 -18    7.20    0.66
   4  -9  18    8.73    0.74
   4   9 -17    7.10    1.00
   4   9 -17    6.28    0.59
   4  -9  17    8.74    0.71
   4   9 -16   17.10    1.23
   4   9 -16   14.52    1.29
   4   9 -16   14.02    0.82
   4  -9  16   14.40    0.86
   4   9 -15    8.77    0.89
   4   9 -15    6.27    0.94
   4   9 -15    7.42    0.58
   4  -9  15    7.50    0.63
   4   9 -14   -0.03    0.32
   4   9 -14    0.72    0.60
   4  -9  14    0.73    0.39
   4   9 -14    0.54    0.54
   4   9 -13   12.56    1.16
   4   9 -13   12.64    1.02
   4  -9  13   10.92    0.71
   4   9 -12   18.23    1.19
   4   9 -12   15.68    1.25
   4  -9  12   17.83    0.85
   4   9 -12   17.39    1.13
   4   9 -11    8.07    0.84
   4   9 -11    6.04    0.85
   4   9 -11    7.23    0.77
   4  -9  11    5.98    0.52
   4   9 -10   31.22    1.75
   4   9 -10   33.51    1.62
   4  -9  10   31.85    1.17
   4   9 -10   33.51    1.53
   4   9  -9   28.70    1.48
   4   9  -9   25.53    1.55
   4  -9   9   27.08    1.03
   4   9  -9   27.83    1.35
   4   9  -8    6.62    0.69
   4  -9   8    5.77    0.48
  -4   9   8    4.62    0.49
   4   9  -8    5.95    0.72
   4   9  -7   32.49    1.61
  -4   9   7   35.75    1.29
   4   9  -7   39.92    1.74
   4   9  -7   34.82    1.49
   4  -9   7   33.25    1.18
   4   9  -6    2.97    0.59
  -4   9   6    3.14    0.39
   4  -9   6    3.30    0.39
   4   9  -6    4.25    0.57
   4   9  -5    1.05    0.50
  -4   9   5    1.04    0.27
   4  -9   5    1.21    0.31
  -4   9   5    1.35    0.40
   4   9  -5    1.40    0.42
  -4   9   4   11.81    0.60
   4   9  -4   11.00    0.95
   4  -9   4   11.43    0.62
  -4   9   4   11.95    0.75
   4   9  -4   11.46    0.79
  -4   9   3   89.87    2.34
   4   9  -3   90.35    3.04
   4  -9   3   89.83    2.42
  -4   9   3   89.03    2.62
   4   9  -3   90.03    2.68
   4   9  -2    5.92    0.77
  -4   9   2    5.49    0.38
   4  -9   2    4.99    0.45
  -4   9   2    5.40    0.54
   4   9  -2    6.74    0.60
  -4  -9  -1   10.98    0.63
  -4   9   1   11.76    0.50
   4   9  -1   12.20    0.97
   4  -9   1   12.05    0.65
   4   9  -1   11.63    0.74
   4   9  -1   10.38    0.90
  -4   9   1   11.83    0.74
  -4   9   0    3.71    0.27
   4   9   0    3.94    0.65
   4  -9   0    3.83    0.43
   4   9   0    3.80    0.39
  -4   9   0    4.12    0.49
   4   9   0    3.82    0.46
   4   9   0    3.81    0.62
   4  -9  -1   11.28    1.01
  -4   9  -1   10.40    0.40
   4   9   1    9.66    0.57
   4   9   1   12.91    0.97
  -4   9  -1   10.07    0.72
   4   9   1   12.65    0.75
   4  -9  -2    6.52    0.82
  -4   9  -2    4.64    0.22
   4   9   2    6.44    0.46
   4   9   2    5.57    0.53
  -4   9  -2    5.76    0.61
   4   9   2    5.81    0.72
   4  -9  -3   89.46    3.17
   4   9   3   87.89    2.30
   4   9   3   89.26    2.88
  -4   9  -3   85.02    2.61
   4  -9  -4   12.52    1.07
   4   9   4   10.56    0.59
   4   9   4   11.71    0.73
  -4   9  -4   12.98    0.84
   4   9   4   10.16    0.88
   4   9   5    0.99    0.29
   4   9   5    0.60    0.48
   4   9   5    1.36    0.39
  -4   9  -5    0.71    0.40
   4   9   6    2.52    0.35
   4   9   6    2.97    0.58
  -4   9  -6    3.09    0.54
   4   9   7   33.84    1.72
  -4   9  -7   31.15    1.45
   4   9   7   36.15    1.17
   4   9   7   32.47    1.57
   4   9   8    6.88    0.83
   4   9   8    5.86    0.46
  -4   9  -8    6.24    0.68
   4   9   8    5.74    0.71
   4   9   9   28.44    1.56
   4   9   9   25.53    1.00
  -4   9  -9   26.06    1.33
   4   9   9   27.74    1.43
   4   9  10   32.77    1.71
  -4   9 -10   31.27    1.52
   4   9  10   32.11    1.15
   4   9  10   31.93    1.56
   4   9  11    6.40    0.53
  -4   9 -11    4.82    0.71
   4   9  12   15.94    0.80
  -4   9 -12   15.72    1.11
   4   9  13   12.73    0.73
  -4   9 -13   10.89    0.96
   4   9  14    0.62    0.37
   4   9  15    8.07    0.64
   4   9  16   13.61    0.84
   4   9  17    5.96    0.65
   4   9  18    7.53    0.70
   4   9  19    6.21    0.66
   4   9  20   23.13    1.21
   4   9  21   10.84    0.90
   4   9  22    3.43    0.64
   4   9  23    6.01    0.82
   4   9  24    5.96    0.81
   4   9  25    0.29    0.54
   4   9  26    0.48    0.59
   4   9  27    1.23    0.63
   4  10 -33    1.75    0.83
   4  10 -33    1.42    0.85
   4  10 -32   -0.09    0.82
   4  10 -31    0.09    0.82
   4  10 -30    0.46    0.83
   4  10 -29    3.21    0.94
   4  10 -28    1.54    0.85
   4  10 -27    0.62    0.80
   4  10 -26    0.70    0.76
   4  10 -25   33.29    1.93
   4 -10  25   34.52    1.60
   4  10 -24   15.01    1.35
   4 -10  24   13.22    1.01
   4 -10  23    5.50    0.74
   4 -10  22    0.90    0.57
   4 -10  21   21.54    1.21
   4 -10  20    1.85    0.57
   4 -10  19   34.85    1.46
   4 -10  18   30.91    1.32
   4 -10  17   33.32    1.35
   4  10 -16    1.62    0.75
   4 -10  16    2.04    0.48
   4  10 -15   11.14    1.05
   4  10 -15   11.26    1.21
   4  10 -15   10.31    1.05
   4 -10  15   12.95    0.77
   4  10 -14   15.56    1.35
   4  10 -14   16.17    1.21
   4 -10  14   16.15    0.83
   4  10 -14   14.67    1.18
   4  10 -13   13.01    1.27
   4  10 -13   14.54    1.14
   4  10 -13   14.39    1.10
   4 -10  13   13.12    0.73
   4  10 -12   25.04    1.43
   4 -10  12   21.94    0.94
   4  10 -12   22.76    1.35
   4  10 -11   14.97    1.11
   4  10 -11   13.74    1.22
   4  10 -11   17.76    1.16
   4 -10  11   14.44    0.74
   4  10 -10    2.05    0.60
   4 -10  10    1.08    0.33
   4  10 -10    1.48    0.57
   4  10  -9   16.75    1.19
   4  10  -9   16.57    1.10
   4 -10   9   15.79    0.73
   4  10  -8   10.64    0.99
   4 -10   8   11.81    0.61
   4  10  -8   11.82    0.92
   4  10  -7   39.89    1.83
   4  10  -7   35.35    1.59
   4 -10   7   36.88    1.20
   4  10  -6    5.36    0.77
   4 -10   6    3.96    0.40
   4  10  -6    4.73    0.63
   4  10  -5   36.84    1.77
   4 -10   5   35.86    1.15
   4  10  -5   34.48    1.51
  -4  10   5   33.20    1.43
   4  10  -4    6.34    0.80
   4  10  -4    6.40    0.78
   4 -10   4    6.98    0.47
  -4  10   4    7.40    0.67
   4  10  -4    7.74    0.72
   4  10  -3   35.95    1.69
   4  10  -3   38.29    1.81
   4 -10   3   35.32    1.17
  -4  10   3   38.68    1.49
   4  10  -3   36.29    1.52
   4  10  -2   15.14    1.12
   4 -10   2   13.98    0.66
   4  10  -2   13.53    0.67
  -4  10   2   13.83    0.87
   4  10  -2   13.25    0.87
   4  10  -2   15.07    1.10
   4  10  -1   16.18    0.72
   4 -10   1   16.65    0.73
   4  10  -1   17.38    1.18
   4  10  -1   16.15    0.94
  -4  10   1   15.81    0.93
   4  10   0    2.05    0.33
   4 -10   0    1.95    0.34
  -4  10   0    1.36    0.45
   4  10   0    1.83    0.45
   4  10   0    1.37    0.55
   4  10   1   15.09    0.67
   4 -10  -1   15.11    0.73
   4  10   1   16.74    1.16
  -4  10  -1   16.62    0.96
   4  10   1   15.81    0.91
   4  10   2   13.31    0.62
   4 -10  -2   14.93    0.71
   4  10   2   13.41    0.83
  -4  10  -2   12.67    0.86
   4  10   2   12.41    1.02
   4  10   3   36.89    1.15
   4  10   3   34.09    1.41
  -4  10  -3   35.90    1.53
   4  10   3   36.70    1.70
   4  10   4    6.19    0.44
   4  10   4    6.52    0.61
  -4  10  -4    7.01    0.71
   4  10   4    6.90    0.82
   4  10   5   35.59    1.79
   4  10   5   35.78    1.13
   4  10   5   33.56    1.66
   4  10   5   34.64    1.41
  -4  10  -5   34.54    1.54
   4  10   6    4.66    0.78
   4  10   6    3.86    0.39
   4  10   6    4.39    0.68
  -4  10  -6    3.80    0.60
   4  10   7   37.15    1.87
   4  10   7   38.16    1.20
  -4  10  -7   35.20    1.62
   4  10   7   38.63    1.76
   4  10   8   11.11    1.04
   4  10   8   11.39    0.60
  -4  10  -8   12.22    0.94
   4  10   8   11.20    0.95
   4  10   9   16.74    1.29
  -4  10  -9   15.76    1.08
   4  10   9   15.10    0.71
   4  10   9   17.07    1.16
   4  10  10    1.68    0.60
   4  10  10    0.95    0.32
  -4  10 -10    0.82    0.52
   4  10  11   14.55    0.73
  -4  10 -11   15.25    1.11
   4  10  11   12.47    1.14
   4  10  12   24.07    0.97
  -4  10 -12   21.94    1.38
   4  10  12   23.65    1.52
  -4  10 -13   14.71    1.13
   4  10  13   14.77    0.77
   4  10  13   12.88    1.18
   4  10  14   17.49    0.86
  -4  10 -14   14.76    1.20
  -4  10 -15   10.44    1.05
   4  10  15   11.72    0.74
   4  10  16    1.79    0.45
   4  10  17   33.81    1.35
   4  10  18   29.13    1.27
   4  10  19   34.99    1.45
   4  10  20    1.61    0.54
   4  10  21   21.43    1.19
   4  10  22    0.69    0.54
   4  10  23    5.21    0.72
   4  10  24   15.31    1.03
   4  10  25   32.67    1.57
   4  11 -32    1.77    0.81
   4  11 -32    1.95    0.87
   4  11 -31    0.09    0.76
   4  11 -31    0.45    0.79
   4  11 -30    8.48    1.14
   4  11 -30    5.95    1.14
   4  11 -29    1.16    0.82
   4  11 -29    2.27    0.98
   4  11 -28    0.36    0.85
   4  11 -28   -0.44    0.91
   4  11 -27    0.35    0.76
   4  11 -26    5.84    1.04
   4  11 -25    6.52    1.04
   4  11 -24   15.58    1.35
   4  11 -23   35.01    1.89
   4  11 -22    1.61    0.79
   4  11 -20   32.68    1.95
   4  11 -19   10.45    1.16
   4  11 -18    9.03    1.08
   4  11 -17  114.38    3.92
   4  11 -16   56.26    2.47
   4  11 -15    4.26    0.81
   4  11 -14    7.79    0.96
   4  11 -14    7.45    0.93
   4  11 -13   41.78    1.99
   4  11 -13   39.51    1.93
   4  11 -12   44.90    2.05
   4  11 -12   44.60    2.03
   4  11 -11    8.04    0.97
   4  11 -11    8.32    0.90
   4  11 -10    3.38    0.71
   4  11 -10    3.98    0.70
   4  11  -9    6.40    0.79
   4  11  -8   48.93    2.03
   4  11  -7   47.59    1.98
   4  11  -6   35.51    1.85
  -4  11   6   35.50    1.54
   4  11  -6   34.56    1.62
   4  11  -5   51.05    2.24
   4  11  -5   52.03    2.15
  -4  11   5   49.66    1.92
   4  11  -5   54.89    2.08
   4  11  -4    2.61    0.72
   4  11  -4    1.67    0.59
   4  11  -4    2.33    0.34
  -4  11   4    2.27    0.52
   4  11  -4    1.04    0.48
   4  11  -3    7.17    0.85
   4  11  -3    6.41    0.72
  -4  11   3    5.00    0.64
   4  11  -3    5.86    0.84
   4  11  -2   32.10    1.61
  -4  11   2   28.24    1.35
   4  11  -2   29.94    1.65
   4  11  -2   29.06    1.37
   4  11  -1   36.82    1.75
   4  11  -1   33.95    1.75
   4  11  -1   36.58    1.52
  -4  11   1   36.03    1.56
  -4  11   0    4.01    0.59
   4  11   0    2.77    0.53
   4  11   0    3.25    0.66
  -4  11  -1   31.55    1.47
   4  11   1   33.41    1.73
   4  11   1   37.02    1.49
   4  11   2   29.97    1.66
   4  11   2   30.56    1.36
  -4  11  -2   27.03    1.38
   4  11   2   31.89    1.65
   4  11   3    6.76    0.86
   4  11   3    6.88    0.67
  -4  11  -3    7.10    0.76
   4  11   3    7.60    0.86
   4  11   4    1.59    0.61
   4  11   4    1.61    0.27
   4  11   4    1.55    0.59
   4  11   4    2.32    0.49
  -4  11  -4    2.28    0.56
   4  11   5   50.49    2.23
   4  11   5   48.69    1.37
   4  11   5   47.49    2.07
   4  11   5   48.26    1.81
  -4  11  -5   45.89    1.95
   4  11   6   30.79    1.76
   4  11   6   33.24    1.03
   4  11   6   31.93    1.66
  -4  11  -6   30.46    1.55
   4  11   7   46.54    2.23
   4  11   7   52.42    1.44
   4  11   7   45.92    2.07
  -4  11  -7   50.03    2.05
   4  11   8   49.36    2.29
   4  11   8   51.80    1.48
   4  11   8   51.36    2.16
  -4  11  -8   53.02    2.14
   4  11   9    7.72    0.93
   4  11   9    7.93    0.50
  -4  11  -9    6.97    0.84
   4  11   9    7.52    0.88
   4  11  10    4.68    0.84
   4  11  10    4.35    0.42
  -4  11 -10    3.32    0.70
   4  11  11    8.97    1.01
  -4  11 -11    8.46    0.94
   4  11  11    7.43    0.52
   4  11  12   38.57    2.04
  -4  11 -12   42.42    1.99
   4  11  12   42.38    1.37
   4  11  13   38.57    2.04
   4  11  13   41.31    1.37
  -4  11 -13   38.57    1.94
   4  11  14    7.35    1.00
   4  11  14    7.53    0.58
  -4  11 -14    7.08    0.95
   4  11  15    4.32    0.85
   4  11  15    4.11    0.51
  -4  11 -15    3.79    0.81
   4  11  16   51.65    2.42
   4  11  16   56.66    1.78
  -4  11 -16   49.00    2.35
   4  11  17  108.02    3.90
   4  11  17  116.52    3.14
  -4  11 -17  108.16    3.87
   4  11  18    9.12    1.13
   4  11  18   12.61    0.86
  -4  11 -18    9.85    1.16
   4  11  19   10.06    0.77
  -4  11 -19    8.75    1.10
   4  11  19   10.24    1.15
   4  11  20   34.38    1.43
  -4  11 -20   34.09    2.03
   4  11  20   33.44    1.93
   4  11  21   11.44    0.85
  -4  11 -21   11.08    1.28
   4  11  22    5.16    0.65
   4  11  22    3.15    0.86
   4  11  23   30.08    1.40
   4  11  23   27.77    1.79
   4  11  24   15.67    1.34
   4  11  25    4.66    0.91
   4  11  26    6.40    0.94
   4  11  27    0.24    0.60
   4  11  28    0.55    0.63
   4  11  29    3.11    0.69
  -4  11 -31    0.98    0.76
   4  12 -31    1.13    0.75
   4  12 -31    1.18    0.79
   4  12 -30    4.53    0.87
   4  12 -30    2.56    0.91
   4  12 -30    2.37    0.86
   4  12 -29    5.03    0.95
   4  12 -29    3.68    0.97
   4  12 -29    5.29    1.03
   4  12 -28    2.20    0.82
   4  12 -28    1.18    0.87
   4  12 -28    1.07    0.78
   4  12 -27    3.12    0.91
   4  12 -27    3.60    1.04
   4  12 -27    3.67    0.94
   4  12 -26    5.10    1.12
   4  12 -26    6.27    1.03
   4  12 -26    4.41    0.98
   4  12 -25    7.95    1.21
   4  12 -25    8.20    1.09
   4  12 -25    9.78    1.22
   4  12 -24    0.86    0.87
   4  12 -24    2.39    0.85
   4  12 -24    0.91    0.75
   4  12 -23   14.92    1.56
   4  12 -23   15.02    1.26
   4  12 -23   10.91    1.29
   4  12 -22   29.62    1.67
   4  12 -22   25.26    1.94
   4  12 -22   26.76    1.81
   4  12 -21    6.73    0.95
   4  12 -21    7.46    1.19
   4  12 -21    5.78    1.04
   4  12 -20   13.42    1.12
   4  12 -20   11.30    1.40
   4  12 -20   12.81    1.28
   4  12 -19    2.57    0.71
   4  12 -19    2.35    0.78
   4  12 -18    9.86    0.96
   4  12 -18    8.02    1.09
   4  12 -17    3.22    0.85
   4  12 -16    6.99    1.02
   4  12 -15   23.70    1.57
   4  12 -14   25.31    1.59
   4  12 -13   42.19    2.05
   4  12 -13   39.03    2.00
   4  12 -12  121.89    3.92
   4  12 -12  110.01    3.79
   4  12 -11   75.28    2.86
   4  12 -10   80.29    2.94
   4  12  -9   12.03    1.07
   4  12  -8    8.03    0.93
   4  12  -7   74.71    2.74
   4  12  -7   68.52    2.60
   4  12  -6   12.79    1.10
  -4  12   6   14.66    1.02
   4  12  -6   11.02    1.01
   4  12  -5    5.40    0.80
  -4  12   5    4.71    0.72
   4  12  -5    5.67    0.75
   4  12  -4   89.00    3.05
  -4  12   4   82.32    2.77
   4  12  -4   82.56    2.83
   4  12  -3   80.56    2.87
  -4  12   3   78.29    2.66
   4  12  -3   79.69    2.71
   4  12  -2   31.57    1.60
   4  12  -2   28.92    1.43
   4  12  -1    9.43    0.95
   4  12  -1    8.90    0.82
  -4  12   1   10.83    0.88
   4  12   0   44.32    2.13
   4  12   0   47.45    2.03
  -4  12   0   47.36    1.89
   4  12   0   42.49    1.80
   4  12   1   10.61    0.95
   4  12   1    9.62    1.06
  -4  12  -1    9.34    0.86
   4  12   1   10.10    0.81
   4  12   2   27.62    1.48
   4  12   2   26.79    1.62
   4  12   2   25.77    1.33
  -4  12  -2   27.88    1.43
   4  12   3   79.34    3.01
   4  12   3   76.76    2.75
   4  12   3   79.62    2.61
  -4  12  -3   77.07    2.69
   4  12   4   86.76    3.22
   4  12   4   86.58    2.76
  -4  12  -4   82.08    2.88
   4  12   5    5.20    0.88
   4  12   5    3.98    0.64
  -4  12  -5    5.11    0.76
   4  12   6   11.91    1.17
  -4  12  -6   12.45    1.06
   4  12   6   12.55    0.93
   4  12   7   69.46    2.85
   4  12   7   65.68    2.68
   4  12   8    7.70    1.01
   4  12   8    7.88    0.96
  -4  12  -8    9.49    0.96
   4  12   9   12.58    1.19
   4  12   9   12.18    1.10
  -4  12  -9   11.48    1.06
   4  12  10   73.36    2.97
  -4  12 -10   78.07    2.88
   4  12  11   78.17    3.05
  -4  12 -11   77.75    2.93
   4  12  12  103.60    3.76
  -4  12 -12  111.81    3.71
   4  12  13   39.29    2.05
  -4  12 -13   37.31    1.95
   4  12  14   20.96    1.52
  -4  12 -14   22.92    1.53
   4  12  15   22.46    1.58
  -4  12 -15   24.05    1.60
   4  12  16    7.30    1.01
  -4  12 -16    7.65    1.06
   4  12  17    2.26    0.78
  -4  12 -17    1.48    0.78
   4  12  18    8.05    1.04
  -4  12 -18    8.92    1.13
   4  12  19    3.52    0.82
  -4  12 -19    3.50    0.86
   4  12  20   11.23    1.20
  -4  12 -20   12.97    1.34
   4  12  21    5.35    0.92
  -4  12 -21    5.29    1.04
   4  12  22   23.32    1.60
  -4  12 -22   24.68    1.78
   4  12  23   12.61    1.22
  -4  12 -23   13.79    1.39
   4  12  24    0.76    0.70
  -4  12 -24    0.95    0.85
   4  12  25    8.25    1.01
  -4  12 -25    6.84    1.17
   4  12  26    4.47    0.78
  -4  12 -26    4.72    1.08
   4  12  27    2.46    0.72
  -4  12 -27    3.33    0.99
  -4  12 -28    0.51    0.80
  -4  12 -29    3.79    0.96
  -4  12 -30    2.99    0.89
   4  13 -30    0.10    0.74
   4  13 -29    3.29    0.83
   4  13 -29    2.17    0.91
   4  13 -29    3.74    0.87
   4  13 -28    1.40    0.76
   4  13 -28    3.59    0.97
   4  13 -28    2.86    0.83
   4  13 -27    2.28    0.79
   4  13 -27    1.50    0.82
   4  13 -27    1.14    0.86
   4  13 -26    3.76    0.91
   4  13 -26    2.83    0.97
   4  13 -26    3.97    0.94
   4  13 -25   -0.16    0.70
   4  13 -25    1.31    0.88
   4  13 -25    1.67    0.82
   4  13 -24    5.88    0.90
   4  13 -24    4.94    1.06
   4  13 -24    4.85    1.03
   4  13 -23    8.51    1.00
   4  13 -23    7.75    1.22
   4  13 -23    7.05    1.08
   4  13 -22    1.09    0.73
   4  13 -22    1.70    0.93
   4  13 -22    0.60    0.79
   4  13 -21    3.98    1.05
   4  13 -21    4.25    0.80
   4  13 -21    2.17    0.88
   4  13 -20    0.87    0.59
   4  13 -20    2.25    0.81
   4  13 -19    3.57    0.75
   4  13 -19    4.73    0.97
   4  13 -18    6.23    0.82
   4  13 -18    7.85    1.07
   4  13 -17    8.02    0.84
   4  13 -17   10.47    1.16
   4  13 -16   17.61    1.11
   4  13 -16   17.97    1.44
   4  13 -15    8.28    0.80
   4  13 -15    8.70    1.06
   4  13 -14   -0.19    0.49
   4  13 -14   -0.09    0.62
   4  13 -13    0.62    0.44
   4  13 -13    1.95    0.76
   4  13 -12    6.41    0.66
   4  13 -12    7.02    0.93
   4  13 -11   16.30    0.90
   4  13 -11   14.99    1.28
   4  13 -10    1.38    0.42
   4  13 -10    0.78    0.61
   4  13  -9   10.07    1.06
   4  13  -9   10.62    1.04
   4  13  -8    1.23    0.67
   4  13  -8    0.97    0.62
   4  13  -7   18.48    1.34
   4  13  -7   17.77    1.28
   4  13  -6   15.66    1.21
  -4  13   6   15.01    1.08
   4  13  -6   14.32    1.15
   4  13  -5   23.88    1.47
  -4  13   5   24.58    1.40
   4  13  -5   24.74    1.44
   4  13  -4    3.77    0.75
   4  13  -4    4.04    0.71
  -4  13   4    5.13    0.73
   4  13  -3   12.30    1.08
  -4  13   3   14.98    1.08
   4  13  -3   13.40    1.04
   4  13  -2    2.51    0.75
   4  13  -2    2.80    0.71
   4  13  -2    3.65    0.66
  -4  13   2    3.18    0.66
   4  13  -1    2.17    0.72
   4  13  -1    1.10    0.59
   4  13  -1    1.16    0.53
  -4  13   1    1.22    0.53
   4  13   0    2.51    0.79
   4  13   0    3.24    0.70
  -4  13   0    2.69    0.62
   4  13   0    3.52    0.66
   4  13   1    1.48    0.63
   4  13   1    2.77    0.65
  -4  13  -1    1.47    0.58
   4  13   1    1.17    0.52
   4  13   2    3.30    0.81
   4  13   2    3.82    0.67
  -4  13  -2    2.07    0.59
   4  13   2    1.92    0.57
   4  13   3   14.29    1.25
   4  13   3   16.05    1.13
   4  13   3   13.72    1.02
  -4  13  -3   11.29    0.99
   4  13   4    2.98    0.78
   4  13   4    3.84    0.70
  -4  13  -4    3.11    0.67
   4  13   4    5.10    0.71
   4  13   5   23.35    1.35
   4  13   5   22.81    1.56
   4  13   5   22.28    1.28
  -4  13  -5   22.67    1.40
   4  13   6   14.05    1.05
   4  13   6   15.84    1.31
  -4  13  -6   15.02    1.17
   4  13   7   15.49    1.29
   4  13   7   16.21    1.10
  -4  13  -7   16.11    1.23
   4  13   8    0.09    0.67
   4  13   8    1.89    0.54
  -4  13  -8    0.46    0.56
   4  13   9    9.28    0.87
   4  13   9   10.48    1.13
  -4  13  -9    8.82    1.00
   4  13  10    1.70    0.72
  -4  13 -10    2.82    0.72
   4  13  11   14.34    1.27
  -4  13 -11   15.75    1.29
   4  13  12    6.55    0.98
  -4  13 -12    7.47    0.97
   4  13  13    1.62    0.72
  -4  13 -13    2.17    0.75
   4  13  14   -0.18    0.66
  -4  13 -14    0.63    0.63
   4  13  15   10.22    1.12
  -4  13 -15    9.77    1.14
   4  13  16   17.19    1.38
  -4  13 -16   16.57    1.41
   4  13  17    5.61    0.93
  -4  13 -17    8.72    1.12
   4  13  18    5.82    0.93
  -4  13 -18    6.84    1.00
   4  13  19    3.49    0.82
  -4  13 -19    2.50    0.90
   4  13  20    0.60    0.70
  -4  13 -20    0.71    0.78
   4  13  21    3.87    0.85
  -4  13 -21    3.08    0.93
   4  13  22    1.56    0.73
  -4  13 -22    0.21    0.85
   4  13  23    6.47    0.94
  -4  13 -23    7.59    1.13
   4  13  24    4.24    0.84
  -4  13 -24    4.57    1.00
   4  13  25    0.44    0.63
  -4  13 -25    0.10    0.78
   4  13  26    2.95    0.69
  -4  13 -26    6.22    1.06
  -4  13 -27    0.40    0.79
  -4  13 -28    3.70    0.95
  -4  13 -29    3.20    0.93
   4  14 -28    0.86    0.70
   4  14 -27    0.36    0.67
   4  14 -27    1.79    0.83
   4  14 -26    1.74    0.75
   4  14 -26    1.57    0.77
   4  14 -25    2.35    0.78
   4  14 -25    2.17    0.81
   4  14 -24    2.95    0.81
   4  14 -24    3.94    0.93
   4  14 -23    3.67    0.79
   4  14 -23    3.21    0.90
   4  14 -22    6.16    0.90
   4  14 -22    6.65    1.10
   4  14 -21   10.60    1.01
   4  14 -21    9.88    1.23
   4  14 -20    1.52    0.65
   4  14 -20    0.68    0.73
   4  14 -19    7.86    0.88
   4  14 -19    6.78    1.11
   4  14 -18    4.70    0.73
   4  14 -18    4.02    0.88
   4  14 -17    2.31    0.61
   4  14 -17    1.52    0.82
   4  14 -16    0.62    0.49
   4  14 -16    0.84    0.73
   4  14 -15    3.36    0.60
   4  14 -15    1.75    0.79
   4  14 -14   15.16    1.31
   4  14 -13    2.83    0.79
   4  14 -12   23.37    1.56
   4  14 -11   12.28    1.21
   4  14 -10    0.25    0.67
   4  14 -10    0.83    0.67
   4  14  -9   18.66    1.40
   4  14  -9   19.74    1.41
   4  14  -8   26.17    1.62
   4  14  -8   23.07    1.51
   4  14  -8   24.78    1.71
   4  14  -7    2.50    0.76
   4  14  -7    2.02    0.77
   4  14  -7    1.84    0.67
   4  14  -6   17.16    1.27
   4  14  -6   14.89    1.35
   4  14  -6   16.10    1.23
   4  14  -5    1.05    0.64
   4  14  -5    0.43    0.56
  -4  14   5    2.41    0.66
   4  14  -5    1.88    0.76
   4  14  -4   17.48    1.29
  -4  14   4   19.04    1.26
   4  14  -4   15.91    1.36
   4  14  -4   16.55    1.21
   4  14  -3   14.93    1.18
  -4  14   3   13.70    1.10
   4  14  -3   16.69    1.37
   4  14  -3   13.25    1.09
   4  14  -2   13.00    1.25
   4  14  -2   12.77    1.10
  -4  14   2   12.32    1.03
   4  14  -2   13.97    1.27
   4  14  -2   12.46    1.06
   4  14  -1   13.10    1.23
   4  14  -1   13.90    1.13
  -4  14   1   13.48    1.08
   4  14  -1   12.07    1.19
   4  14  -1   12.70    1.03
   4  14   0    4.44    0.85
   4  14   0    4.08    0.77
   4  14   0    5.50    0.90
  -4  14   0    4.10    0.74
   4  14   0    3.57    0.69
   4  14   1   15.48    1.32
   4  14   1   13.14    1.09
   4  14   1   14.22    1.08
  -4  14  -1   14.82    1.13
   4  14   1   13.63    1.22
   4  14   2   11.83    1.22
   4  14   2   13.10    1.07
   4  14   2   12.06    1.01
  -4  14  -2   12.76    1.09
   4  14   3   14.77    1.31
   4  14   3   16.14    1.16
   4  14   3   15.58    1.14
  -4  14  -3   14.55    1.19
   4  14   4   18.27    1.43
   4  14   4   17.51    1.18
   4  14   4   18.08    1.24
  -4  14  -4   19.65    1.33
   4  14   5    0.63    0.70
   4  14   5    1.03    0.55
  -4  14  -5    0.97    0.60
   4  14   5    1.46    0.61
   4  14   6   16.86    1.36
   4  14   6   15.75    1.11
  -4  14  -6   16.79    1.28
   4  14   7    1.82    0.70
   4  14   7    3.07    0.62
  -4  14  -7    2.20    0.70
   4  14   8   22.31    1.59
   4  14   8   23.21    1.27
  -4  14  -8   23.53    1.52
   4  14   9   18.44    1.46
   4  14   9   18.72    1.12
  -4  14  -9   18.82    1.41
   4  14  10    0.09    0.77
   4  14  10    0.87    0.48
  -4  14 -10    0.68    0.68
   4  14  11   15.05    1.28
   4  14  11   14.40    0.95
  -4  14 -11   13.33    1.24
   4  14  12   24.02    1.62
   4  14  12   22.28    1.15
  -4  14 -12   20.95    1.53
   4  14  13    3.98    0.84
  -4  14 -13    3.10    0.85
   4  14  14   17.55    1.41
  -4  14 -14   17.28    1.43
   4  14  15    2.32    0.75
  -4  14 -15    2.46    0.84
   4  14  16    0.97    0.68
  -4  14 -16    0.48    0.71
   4  14  17    1.31    0.72
  -4  14 -17    2.36    0.80
   4  14  18    2.57    0.78
  -4  14 -18    3.47    0.90
   4  14  19    7.22    0.97
  -4  14 -19    8.44    1.11
   4  14  20    1.80    0.70
  -4  14 -20    0.71    0.77
   4  14  21    9.15    1.07
  -4  14 -21   10.38    1.25
   4  14  22    4.84    0.87
  -4  14 -22    8.27    1.11
   4  14  23    3.83    0.76
  -4  14 -23    3.56    0.97
   4  14  24    2.24    0.65
  -4  14 -24    3.93    0.94
  -4  14 -25    1.89    0.83
  -4  14 -26    0.39    0.79
  -4  14 -27    0.94    0.73
  -4  14 -28    1.73    0.84
   4  15 -26    3.18    0.85
   4  15 -25    3.92    0.87
   4  15 -24    1.46    0.78
   4  15 -23    3.27    0.91
   4  15 -22    3.22    0.92
   4  15 -21   16.09    1.44
   4  15 -20    4.32    0.95
   4  15 -19    8.16    1.14
   4  15 -18    9.00    1.15
   4  15 -17    4.86    0.99
   4  15 -16    7.19    1.07
   4  15 -15    2.43    0.83
   4  15 -14    0.28    0.68
   4  15 -13   21.27    1.54
   4  15 -12    5.36    0.95
   4  15 -11    2.56    0.80
   4  15 -10   33.67    1.87
   4  15 -10   32.83    2.00
   4  15  -9    3.46    0.93
   4  15  -9    3.34    0.86
   4  15  -8    0.90    0.69
   4  15  -8    1.91    0.75
   4  15  -8    0.16    0.65
   4  15  -7    0.80    0.68
   4  15  -7    1.12    0.71
   4  15  -7   -0.10    0.77
   4  15  -6   76.27    2.92
   4  15  -6   70.70    2.81
   4  15  -6   76.17    3.14
   4  15  -5   20.59    1.45
  -4  15   5   20.38    1.39
   4  15  -5   22.54    1.64
   4  15  -5   20.58    1.43
   4  15  -4   53.55    2.32
  -4  15   4   53.70    2.27
   4  15  -4   51.96    2.51
   4  15  -4   53.90    2.31
   4  15  -3   43.12    2.05
  -4  15   3   44.88    2.07
   4  15  -3   46.16    2.31
   4  15  -3   45.18    2.08
   4  15  -2   30.15    1.63
  -4  15   2   26.01    1.56
   4  15  -2   27.68    1.78
   4  15  -2   26.51    1.55
   4  15  -1    9.38    1.16
   4  15  -1    9.39    0.96
   4  15  -1    8.60    1.11
  -4  15   1    7.72    0.95
   4  15  -1   10.09    0.98
   4  15   0    2.71    0.81
   4  15   0    2.60    0.72
   4  15   0    1.99    0.76
  -4  15   0    1.66    0.69
   4  15   0    2.36    0.70
   4  15   1    8.20    0.93
   4  15   1   10.58    1.20
   4  15   1   10.36    1.00
   4  15   1    9.94    1.10
  -4  15  -1    9.93    1.00
   4  15   2   30.15    1.83
   4  15   2   27.33    1.52
   4  15   2   29.87    1.80
   4  15   2   29.08    1.58
  -4  15  -2   30.52    1.69
   4  15   3   44.79    2.28
   4  15   3   41.04    1.90
   4  15   3   42.83    2.19
  -4  15  -3   43.28    2.11
   4  15   4   54.77    2.51
   4  15   4   51.29    2.08
   4  15   4   45.37    2.29
   4  15   4   50.01    2.16
  -4  15  -4   49.22    2.24
   4  15   5   22.84    1.62
   4  15   5   21.30    1.28
   4  15   5   21.20    1.53
   4  15   5   21.90    1.40
  -4  15  -5   19.38    1.43
   4  15   6   69.81    2.97
   4  15   6   74.87    2.57
   4  15   6   73.00    2.93
  -4  15  -6   70.54    2.81
   4  15   7    0.73    0.74
   4  15   7    0.83    0.52
  -4  15  -7    0.90    0.72
   4  15   7    1.61    0.78
   4  15   8    2.56    0.82
   4  15   8    1.64    0.55
  -4  15  -8    1.35    0.74
   4  15   9    1.55    0.79
   4  15   9    2.91    0.60
  -4  15  -9    3.10    0.83
   4  15  10   35.56    1.96
   4  15  10   32.95    1.46
  -4  15 -10   31.13    1.87
   4  15  11    2.17    0.76
  -4  15 -11    1.27    0.71
   4  15  12    5.20    0.93
  -4  15 -12    3.59    0.91
   4  15  13   19.59    1.47
  -4  15 -13   21.75    1.58
   4  15  14    1.14    0.74
  -4  15 -14    0.19    0.72
   4  15  15    1.38    0.71
  -4  15 -15    0.97    0.80
   4  15  16    7.37    1.02
  -4  15 -16    7.92    1.07
   4  15  17    5.97    0.90
  -4  15 -17    7.12    1.08
   4  15  18   10.17    1.07
  -4  15 -18    7.77    1.15
   4  15  19   11.91    1.09
  -4  15 -19    9.70    1.27
   4  15  20    6.65    0.91
  -4  15 -20    4.70    1.00
   4  15  21   16.36    1.21
  -4  15 -21   14.47    1.43
   4  15  22    4.06    0.72
  -4  15 -22    4.37    0.98
  -4  15 -23    2.74    0.88
  -4  15 -24    1.16    0.82
  -4  15 -25    3.48    0.90
  -4  15 -26    3.64    0.94
   4  16 -24    4.49    0.90
   4  16 -23    4.81    0.93
   4  16 -22    1.61    0.78
   4  16 -21    0.27    0.75
   4  16 -20   11.45    1.24
   4  16 -19   16.51    1.47
   4  16 -18    3.93    0.88
   4  16 -17    1.58    0.77
   4  16 -16    2.60    0.79
   4  16 -15    0.56    0.72
   4  16 -14    0.83    0.71
   4  16 -13    2.01    0.87
   4  16 -13    2.10    0.78
   4  16 -12   18.20    1.49
   4  16 -12   18.21    1.51
   4  16 -11    3.65    0.94
   4  16 -11    1.59    0.71
   4  16 -10    2.49    0.91
   4  16 -10    4.03    0.88
   4  16  -9   34.95    1.93
   4  16  -9   35.50    2.10
   4  16  -8    8.75    1.04
   4  16  -8    7.17    1.14
   4  16  -7   23.52    1.70
   4  16  -7   20.47    1.48
   4  16  -6   12.37    1.17
   4  16  -6    9.85    1.23
   4  16  -5    2.34    0.78
   4  16  -5    2.29    0.73
   4  16  -5    2.46    0.86
   4  16  -4    7.81    1.01
   4  16  -4    6.04    0.94
  -4  16   4    9.54    1.01
   4  16  -4    8.25    1.14
   4  16  -3   42.46    2.03
  -4  16   3   45.42    2.11
   4  16  -3   43.10    2.25
   4  16  -3   42.27    2.04
   4  16  -2    4.18    0.80
   4  16  -2    4.53    0.90
   4  16  -2    3.00    0.76
  -4  16   2    2.81    0.79
   4  16  -1    4.82    0.85
   4  16  -1    4.85    0.92
   4  16  -1    4.14    0.81
  -4  16   1    3.58    0.77
   4  16   0   14.84    1.15
   4  16   0   13.48    1.31
  -4  16   0   14.49    1.21
   4  16   0   14.96    1.22
   4  16   1    4.07    0.92
   4  16   1    2.82    0.72
  -4  16  -1    3.84    0.77
   4  16   1    4.10    0.83
   4  16   1    4.20    0.91
   4  16   2    4.33    0.90
   4  16   2    3.81    0.73
  -4  16  -2    3.34    0.81
   4  16   2    2.76    0.74
   4  16   2    3.88    0.88
   4  16   3   42.42    2.23
   4  16   3   44.37    1.92
   4  16   3   45.74    2.23
   4  16   3   42.51    2.03
  -4  16  -3   44.65    2.12
   4  16   4    8.27    1.08
   4  16   4    6.78    0.83
   4  16   4    8.20    1.06
  -4  16  -4    8.60    1.01
   4  16   4    7.15    0.94
   4  16   5    2.50    0.77
   4  16   5    2.10    0.61
  -4  16  -5    0.90    0.67
   4  16   5    1.84    0.78
   4  16   6    7.91    1.14
   4  16   6   10.92    0.89
   4  16   6   10.02    1.14
  -4  16  -6   10.94    1.15
   4  16   7   21.69    1.55
   4  16   7   21.05    1.19
  -4  16  -7   22.22    1.53
   4  16   8    8.41    1.08
   4  16   8    8.96    0.81
  -4  16  -8    7.91    1.04
   4  16   9   37.61    2.04
  -4  16  -9   38.08    2.04
   4  16  10    3.28    0.88
  -4  16 -10    4.85    0.92
   4  16  11    2.36    0.73
  -4  16 -11    2.46    0.81
   4  16  12   17.48    1.39
  -4  16 -12   17.89    1.48
   4  16  13    1.27    0.68
  -4  16 -13    2.17    0.76
   4  16  14    0.83    0.66
  -4  16 -14    0.58    0.71
   4  16  15    0.57    0.58
  -4  16 -15   -0.58    0.74
   4  16  16    2.92    0.73
  -4  16 -16    2.22    0.84
   4  16  17    0.54    0.62
  -4  16 -17    1.45    0.78
   4  16  18    1.33    0.64
  -4  16 -18    3.21    0.91
   4  16  19   12.85    1.12
  -4  16 -19   14.55    1.38
  -4  16 -20    8.33    1.16
  -4  16 -21    0.38    0.69
  -4  16 -22    1.50    0.84
  -4  16 -23    6.54    1.07
  -4  16 -24    3.94    0.90
   4  17 -22    1.72    0.70
   4  17 -21   -0.25    0.72
   4  17 -20    8.86    1.11
   4  17 -19    0.09    0.69
   4  17 -18    5.50    1.02
   4  17 -18    6.63    1.01
   4  17 -17    1.92    0.84
   4  17 -17   -0.09    0.75
   4  17 -16    3.78    0.93
   4  17 -16    4.04    0.91
   4  17 -15    0.72    0.82
   4  17 -15    2.06    0.75
   4  17 -14    1.03    0.81
   4  17 -14    1.70    0.76
   4  17 -13    1.14    0.82
   4  17 -13    0.09    0.74
   4  17 -12   23.27    1.62
   4  17 -12   25.32    1.80
   4  17 -11    7.86    1.05
   4  17 -11    9.17    1.21
   4  17 -10   10.56    1.14
   4  17 -10   10.97    1.27
   4  17  -9   31.34    1.83
   4  17  -9   31.59    1.97
   4  17  -8   16.39    1.34
   4  17  -8   15.82    1.46
   4  17  -7   38.00    1.99
   4  17  -7   34.44    2.05
   4  17  -6   20.79    1.47
   4  17  -6   23.56    1.69
   4  17  -5    6.53    1.06
   4  17  -5   10.05    1.08
   4  17  -4    9.71    1.18
   4  17  -4    8.61    1.01
  -4  17   4    8.71    1.02
   4  17  -3    7.05    1.11
   4  17  -3    8.34    1.01
  -4  17   3    7.77    0.98
  -4  17   2    9.39    1.06
   4  17  -2    8.12    1.09
   4  17  -2    6.97    0.94
   4  17  -1    8.56    1.00
   4  17  -1    7.46    1.04
  -4  17   1    8.29    0.99
   4  17   0    4.06    0.80
  -4  17   0    4.05    0.81
   4  17   0    4.06    0.80
   4  17   0    3.50    0.86
   4  17   1    7.87    0.89
  -4  17  -1    7.20    0.96
   4  17   1   10.57    1.06
   4  17   1    8.93    1.10
   4  17   2    9.52    0.95
   4  17   2   11.26    1.19
  -4  17  -2    9.22    1.07
   4  17   2   10.19    1.07
   4  17   3    5.88    0.80
  -4  17  -3    6.40    0.94
   4  17   3    6.65    0.94
   4  17   4    8.90    1.09
   4  17   4   11.78    0.94
   4  17   4    9.65    1.12
  -4  17  -4    8.83    1.05
   4  17   5    8.72    1.09
   4  17   5    8.49    0.83
  -4  17  -5    7.46    1.01
   4  17   5    9.98    1.12
   4  17   6   21.31    1.55
   4  17   6   19.80    1.18
  -4  17  -6   21.32    1.52
   4  17   7   37.33    2.02
  -4  17  -7   36.18    1.97
   4  17   8   19.17    1.47
  -4  17  -8   17.38    1.42
   4  17   9   28.31    1.74
  -4  17  -9   26.25    1.72
   4  17  10   11.17    1.15
  -4  17 -10   10.46    1.18
   4  17  11    7.87    1.01
  -4  17 -11    7.23    1.01
   4  17  12   21.68    1.46
  -4  17 -12   18.50    1.52
   4  17  13   -0.16    0.65
  -4  17 -13    1.02    0.74
   4  17  14    0.08    0.64
  -4  17 -14    1.67    0.73
   4  17  15    1.70    0.68
  -4  17 -15    1.40    0.78
   4  17  16    4.49    0.80
  -4  17 -16    3.18    0.88
   4  17  17    0.48    0.50
  -4  17 -17    0.19    0.73
  -4  17 -18    4.49    0.96
  -4  17 -19    0.65    0.78
  -4  17 -20    9.17    1.18
  -4  17 -21    0.89    0.76
  -4  17 -22    1.99    0.77
   4  18 -20    0.52    0.67
   4  18 -20   -0.16    0.63
   4  18 -19   -0.27    0.67
   4  18 -19    0.88    0.64
   4  18 -18   -0.09    0.70
   4  18 -18    0.49    0.62
   4  18 -17    1.13    0.81
   4  18 -17    1.84    0.70
   4  18 -16    1.34    0.82
   4  18 -16    0.51    0.73
   4  18 -15   14.68    1.30
   4  18 -15   14.99    1.39
   4  18 -14    2.63    0.80
   4  18 -14    5.17    0.97
   4  18 -13    1.35    0.66
   4  18 -13    1.07    0.79
   4  18 -12    5.73    0.92
   4  18 -12    5.18    0.98
   4  18 -11    0.34    0.66
   4  18 -11    0.10    0.84
   4  18 -10    2.93    0.81
   4  18 -10    1.86    0.84
   4  18  -9    6.00    0.94
   4  18  -9    4.88    0.99
   4  18  -8    0.97    0.75
   4  18  -8    1.41    0.72
   4  18  -7    4.80    0.97
   4  18  -7    4.54    0.87
   4  18  -6    0.86    0.77
   4  18  -6    1.06    0.65
   4  18  -5    1.60    0.80
   4  18  -5    0.48    0.63
   4  18  -4    2.91    0.86
   4  18  -4    3.57    0.76
   4  18  -3    2.29    0.76
   4  18  -3    1.86    0.83
  -4  18   3    2.21    0.81
   4  18  -2   11.94    1.23
   4  18  -2   11.25    1.11
  -4  18   2   12.61    1.16
   4  18  -1    5.77    0.90
  -4  18   1    5.68    0.92
   4  18  -1    4.10    0.94
  -4  18   0    1.45    0.71
   4  18   0    0.16    0.69
   4  18   0    1.08    0.70
  -4  18  -1    4.95    0.87
   4  18   1    5.01    0.88
   4  18   1    4.79    0.94
  -4  18  -2   11.58    1.17
   4  18   2   12.70    1.25
   4  18   2   10.95    1.13
   4  18   3    3.50    0.84
  -4  18  -3    1.47    0.69
   4  18   3    2.82    0.75
  -4  18  -4    3.77    0.79
   4  18   4    2.32    0.79
  -4  18  -5    1.97    0.75
  -4  18  -6    0.42    0.63
  -4  18  -7    3.16    0.87
   4  18   8    1.32    0.75
  -4  18  -8   -0.26    0.71
   4  18   9    5.38    0.90
  -4  18  -9    6.13    0.95
   4  18  10    2.90    0.76
  -4  18 -10    2.17    0.79
   4  18  11    2.35    0.73
  -4  18 -11    1.48    0.71
   4  18  12    6.31    0.90
  -4  18 -12    7.46    1.05
   4  18  13    2.19    0.72
  -4  18 -13    1.84    0.78
   4  18  14    3.40    0.69
  -4  18 -14    3.63    0.83
  -4  18 -15   14.53    1.35
  -4  18 -16    1.06    0.80
  -4  18 -17    1.22    0.72
  -4  18 -18   -0.09    0.69
  -4  18 -19   -0.08    0.72
  -4  18 -20    0.57    0.65
   4  19 -17    0.30    0.63
   4  19 -17   -0.17    0.71
   4  19 -16    1.74    0.71
   4  19 -16    0.94    0.75
   4  19 -15    2.61    0.76
   4  19 -15    3.64    0.83
   4  19 -14    7.76    0.98
   4  19 -14    6.77    1.04
   4  19 -13    1.10    0.67
   4  19 -13    3.29    0.86
   4  19 -12    8.66    1.01
   4  19 -12    9.77    1.15
   4  19 -11    5.58    1.01
   4  19 -11    3.42    0.81
   4  19 -10   10.72    1.14
   4  19 -10   11.51    1.13
   4  19  -9    3.95    0.86
   4  19  -9    3.11    0.83
   4  19  -8    2.34    0.82
   4  19  -8    2.38    0.74
   4  19  -7    2.61    0.81
   4  19  -7    2.33    0.73
   4  19  -6    0.45    0.72
   4  19  -6    0.39    0.64
   4  19  -5    0.63    0.69
   4  19  -5    1.69    0.73
   4  19  -4    2.50    0.75
   4  19  -4    1.15    0.76
   4  19  -3    5.53    0.89
   4  19  -3    6.15    1.00
   4  19  -2    1.24    0.65
  -4  19   2    1.33    0.65
   4  19  -2    0.78    0.75
   4  19  -1    1.46    0.68
  -4  19   1    0.95    0.68
   4  19  -1   -0.17    0.80
   4  19   0   -0.26    0.72
  -4  19   0   -0.40    0.69
   4  19   0    0.23    0.64
   4  19   1    1.02    0.69
  -4  19  -1    0.64    0.65
   4  19   1    0.99    0.62
   4  19   2    0.25    0.70
  -4  19  -2    0.40    0.65
  -4  19  -3    6.21    0.93
  -4  19  -4    1.21    0.67
  -4  19  -5   -0.65    0.70
  -4  19  -6    0.48    0.68
  -4  19  -7    1.61    0.71
  -4  19  -8    1.82    0.76
  -4  19  -9    2.82    0.88
  -4  19 -10    9.47    1.07
  -4  19 -11    4.07    0.89
  -4  19 -12    8.21    1.02
  -4  19 -13    3.77    0.84
  -4  19 -14    6.34    0.96
  -4  19 -15    3.07    0.81
  -4  19 -16    0.79    0.66
  -4  19 -17    0.23    0.70
   4  20 -13    5.33    0.91
   4  20 -13    5.60    0.87
   4  20 -12   10.84    1.09
   4  20 -12    8.79    0.98
   4  20 -11   11.17    1.09
   4  20 -11   11.92    1.20
   4  20 -10    3.61    0.85
   4  20 -10    4.01    0.78
   4  20  -9    0.58    0.63
   4  20  -9    0.89    0.76
   4  20  -8    1.25    0.70
   4  20  -8    2.44    0.79
   4  20  -7   10.23    1.04
   4  20  -7    8.02    1.01
   4  20  -6    1.33    0.70
   4  20  -6   -0.16    0.71
   4  20  -5    4.93    0.89
   4  20  -5    4.75    0.86
   4  20  -4    2.89    0.76
   4  20  -4    1.21    0.71
   4  20  -3   11.39    1.11
   4  20  -3   11.03    1.12
   4  20  -2    5.58    0.94
   4  20  -2    4.72    0.86
   4  20  -1   11.43    1.15
   4  20  -1    8.54    1.01
   4  20   0    1.73    0.79
  -4  20   0    1.74    0.72
   4  20   0    0.95    0.75
  -4  20  -1   11.14    1.12
  -4  20  -2    3.70    0.83
  -4  20  -3    8.91    1.02
  -4  20  -4    1.62    0.70
  -4  20  -5    5.01    0.85
  -4  20  -6   -0.31    0.77
  -4  20  -7   11.06    1.08
  -4  20  -8    0.69    0.67
  -4  20  -9    0.30    0.61
  -4  20 -10    4.47    0.85
  -4  20 -11   10.55    1.13
  -4  20 -12    9.66    1.07
  -4  20 -13    3.96    0.84
   4  21  -7    2.11    0.71
   4  21  -6    1.95    0.67
   4  21  -6    3.93    0.76
   4  21  -5    2.68    0.76
   4  21  -5    1.83    0.67
   4  21  -4    2.12    0.71
   4  21  -4    3.92    0.80
   4  21  -3    7.50    0.94
   4  21  -3    8.08    0.93
   4  21  -2   12.54    1.11
   4  21  -2   11.46    1.12
  -4  21  -2   11.65    1.11
  -4  21  -3    5.73    0.88
  -4  21  -4    2.85    0.72
  -4  21  -5    1.48    0.73
  -4  21  -6    2.25    0.69
  -4  21  -7    1.47    0.66
  -5   0   0    0.28    0.26
   5   0   0   -0.04    0.20
  -5   0  -1   31.36    1.28
   5   0   1   30.88    1.03
  -5   0  -2    2.70    0.41
   5   0  -2    2.81    0.38
   5   0   2    2.44    0.29
  -5   0  -3    2.32    0.41
   5   0  -3    3.32    0.39
   5   0   3    2.88    0.31
   5   0  -4   14.00    0.72
  -5   0  -4   12.96    0.84
   5   0  -4   13.82    0.71
   5   0   4   14.70    0.62
   5   0  -5    1.77    0.33
   5   0   5    0.82    0.38
  -5   0  -5    1.29    0.37
   5   0  -5    1.00    0.28
   5   0  -6    4.69    0.46
   5   0   6    4.63    0.57
   5   0  -6    4.44    0.41
  -5   0  -6    4.89    0.55
   5   0  -7    3.85    0.44
   5   0  -7    3.30    0.37
   5   0   7    3.67    0.51
   5   0  -8   29.78    1.05
   5   0   8   27.56    1.26
   5   0  -8   28.42    1.18
   5   0   9   33.78    1.39
   5   0  -9   29.65    1.28
   5   0 -10   27.28    0.99
   5   0  10   28.63    1.26
   5   0 -10   24.04    1.17
   5   0 -11   16.85    0.77
   5   0  11   18.57    1.01
   5   0 -11   18.50    1.00
   5   0  12    0.42    0.43
   5   0  13    4.39    0.60
   5   0 -13    4.84    0.51
   5   0 -14   57.53    1.86
   5   0  14   61.65    2.10
   5   0 -14   56.64    1.79
   5   0 -15   18.21    0.89
   5   0  15   18.84    1.08
   5   0 -15   17.11    0.85
   5   0 -16   47.52    1.64
   5   0  16   55.06    1.96
   5   0 -17   16.01    0.82
   5   0  17   16.81    1.06
   5   0  18    1.46    0.53
   5   0 -18    1.44    0.40
   5   0  19   33.40    1.56
   5   0  20    0.41    0.51
   5   0  21   13.62    1.06
   5   0  22    3.19    0.70
   5   0  23    0.67    0.60
   5   0  24    4.38    0.83
   5   0  25    3.70    0.81
   5   0  26   -0.45    0.71
   5   0  27    0.61    0.69
   5   0  28    1.85    0.81
   5   0  29    2.61    0.87
   5   0  30    9.19    1.21
   5   0  31    1.47    0.83
   5   0  32    9.27    1.18
   5   0  33   -0.26    0.83
   5   0  34    1.42    0.82
   5   0 -35    5.71    0.95
   5   0 -36    0.08    0.71
   5   1 -36    0.55    0.75
   5   1 -36    0.90    0.75
   5   1 -35   12.30    1.20
   5   1 -35    7.42    1.17
   5  -1  34    3.67    0.98
   5  -1  33    0.51    0.82
   5  -1  32    0.94    0.77
   5  -1  31    0.86    0.77
   5  -1  30    0.64    0.85
   5  -1  29    8.41    1.10
   5  -1  28    7.40    1.03
   5  -1  27    1.31    0.73
   5  -1  26    8.32    1.03
   5  -1  25    0.80    0.71
   5  -1  24   31.12    1.68
   5  -1  23   14.23    1.13
   5  -1  22    3.44    0.75
   5  -1  21    3.74    0.74
   5  -1  20   23.89    1.34
   5  -1  19    1.97    0.59
   5   1 -18   20.18    0.99
   5  -1  18   20.81    1.18
   5   1 -17   29.46    1.24
   5  -1  17   32.15    1.46
   5  -1  16    5.46    0.67
   5   1 -16    4.75    0.56
   5   1 -15    6.26    0.59
   5  -1  15    7.10    0.70
   5   1 -15    4.84    0.38
   5   1 -14    9.94    0.70
   5  -1  14   10.46    0.81
   5   1 -14    9.00    0.49
   5  -1  13   36.20    1.51
   5   1 -13   37.85    1.45
   5   1 -13   34.04    1.07
   5   1 -12    2.32    0.50
   5  -1  12    2.87    0.50
   5  -1  11   51.68    1.85
   5   1 -11   48.46    1.86
   5  -1  10   17.16    0.98
   5   1 -10   15.90    0.95
   5   1  -9   15.82    0.78
   5  -1   9   16.97    0.97
   5   1  -9   15.46    0.92
   5   1  -8   14.30    0.87
   5  -1   8   16.34    0.94
   5   1  -8   16.73    0.80
   5   1  -7    8.01    0.64
   5  -1   7    8.16    0.70
   5   1  -7    6.71    0.53
   5   1  -6    2.23    0.38
   5  -1   6    1.54    0.44
   5   1  -6    1.91    0.35
   5   1  -5   98.05    2.79
   5   1  -5  101.55    2.77
   5  -1   5   99.37    2.96
   5   1  -4   35.87    1.33
  -5  -1  -4   35.70    1.42
   5   1  -3   34.28    1.32
  -5  -1  -3   38.44    1.44
   5  -1   3   35.89    1.05
   5   1  -2   46.61    1.61
  -5  -1  -2   47.22    1.64
   5  -1   2   46.67    1.29
  -5  -1  -1   45.01    1.54
   5  -1   1   43.40    1.24
  -5   1   0   20.80    1.05
  -5  -1   0   19.06    0.89
   5   1   0   20.17    0.84
   5  -1   0   19.85    0.71
  -5   1  -1   44.33    1.68
   5  -1  -1   43.85    1.28
   5   1   1   43.67    1.41
  -5   1  -2   46.68    1.76
   5   1   2   46.54    1.45
   5  -1  -3   35.09    1.23
  -5   1  -3   38.38    1.56
   5   1   3   35.49    1.19
   5  -1  -4   35.69    1.21
  -5   1  -4   38.94    1.59
   5   1   4   36.55    1.22
  -5   1  -5  103.34    3.09
   5  -1  -5   97.83    2.57
   5  -1  -5   95.09    2.59
   5   1   5   98.17    2.59
  -5   1  -6    1.97    0.43
   5  -1  -6    2.35    0.31
   5  -1  -6    1.72    0.31
   5  -1  -7    7.54    0.45
  -5   1  -7    6.81    0.69
   5  -1  -7    7.17    0.53
   5  -1  -8   15.75    0.65
  -5   1  -8   13.12    0.98
   5  -1  -8   15.54    0.80
   5  -1  -9   16.48    0.82
   5  -1  -9   16.32    0.85
   5  -1 -10   18.69    0.88
   5  -1 -10   14.77    0.85
   5  -1 -11   46.51    1.60
   5  -1 -12    2.43    0.37
   5  -1 -13   37.49    1.34
   5  -1 -13   37.54    1.42
   5  -1 -14   10.14    0.63
   5  -1 -14    8.39    0.65
   5  -1 -15    6.80    0.52
   5  -1 -15    5.89    0.56
   5  -1 -16    5.50    0.47
   5  -1 -16    5.73    0.56
   5  -1 -35    8.00    1.07
   5  -1 -36    0.95    0.75
   5   2 -36    4.12    0.94
   5   2 -36    3.73    0.96
   5   2 -35    1.53    0.83
   5   2 -35    2.44    0.91
   5   2 -35    1.58    0.75
   5   2 -34    2.12    0.89
   5   2 -34    4.29    0.97
   5  -2  34    3.54    0.91
   5   2 -33    1.58    0.84
   5  -2  33    3.02    0.91
   5  -2  32   -0.51    0.85
   5  -2  31   -0.09    0.78
   5  -2  30    4.92    1.02
   5  -2  29   22.24    1.57
   5  -2  28   -0.16    0.72
   5  -2  27    3.75    0.85
   5  -2  26   10.44    1.07
  -5  -2 -25   17.48    1.28
   5  -2  25   16.34    1.29
  -5  -2 -24   19.13    1.36
   5  -2  24   20.77    1.36
  -5  -2 -23    7.32    0.90
   5  -2  23    9.70    1.02
  -5  -2 -22   32.03    1.69
   5  -2  22   37.46    1.76
  -5  -2 -21   73.06    2.67
   5  -2  21   75.55    2.65
   5  -2  20   56.20    2.18
   5  -2  19   53.86    2.08
   5   2 -18   55.00    1.94
   5  -2  18   59.50    2.16
   5   2 -17   60.29    2.04
   5  -2  17   62.81    2.21
   5   2 -16   30.92    1.36
   5  -2  16   34.36    1.51
   5   2 -15   33.77    1.41
   5  -2  15   34.05    1.48
   5   2 -14   24.97    1.18
   5  -2  14   25.06    1.25
   5   2 -14   24.29    1.37
   5   2 -13   57.59    1.96
   5  -2  13   52.12    1.92
   5   2 -13   51.98    2.07
   5  -2  12   12.45    0.87
   5   2 -12   11.55    0.91
   5  -2  11   17.21    0.98
   5   2 -11   15.71    1.02
   5   2 -10    0.52    0.40
   5  -2  10    0.23    0.38
   5   2  -9   31.59    1.40
   5  -2   9   30.78    1.34
   5   2  -9   29.39    1.20
   5   2  -8   24.03    1.16
   5  -2   8   22.18    1.12
   5   2  -8   22.67    1.03
   5   2  -7   93.42    2.84
   5  -2   7   96.78    2.87
   5   2  -7   97.11    2.74
   5   2  -6  381.10    9.13
   5  -2   6  380.38    9.19
   5   2  -6  390.87    9.06
   5   2  -5   64.30    2.09
   5   2  -5   67.01    2.08
   5  -2   5   62.37    2.15
   5   2  -4  118.33    3.27
   5   2  -3    5.98    0.56
  -5  -2  -3    5.77    0.51
   5   2  -2  183.88    4.80
  -5  -2  -2  188.48    4.68
   5   2  -1  267.11    6.70
  -5  -2  -1  268.98    6.48
   5  -2   1  275.07    6.10
  -5  -2   0    2.54    0.34
   5   2   0    2.17    0.40
   5  -2   0    3.00    0.24
  -5   2  -1  261.63    6.86
   5   2   1  265.02    6.46
   5  -2  -1  275.04    6.11
  -5   2  -2  188.05    5.00
   5   2   2  181.09    4.56
   5  -2  -3    6.34    0.45
  -5   2  -3    6.91    0.71
   5   2   3    7.28    0.54
   5  -2  -4  116.41    2.95
  -5   2  -4  123.33    3.59
   5   2   4  117.25    3.11
  -5   2  -5   61.53    2.29
   5  -2  -5   64.16    1.72
   5  -2  -5   63.03    1.75
   5   2   5   61.20    1.88
   5  -2  -6  379.23    8.75
  -5   2  -6  390.91    9.49
   5  -2  -6  386.64    8.63
  -5   2  -6  381.30    8.44
   5   2   6  383.90    8.87
  -5   2  -7   94.96    3.12
   5  -2  -7   96.63    2.37
   5  -2  -7   97.10    2.81
   5  -2  -7   94.49    2.56
   5  -2  -8   24.02    1.10
  -5   2  -8   23.08    1.29
   5  -2  -8   21.29    0.92
   5  -2  -9   30.20    1.28
  -5   2  -9   30.93    1.55
   5  -2  -9   28.92    1.15
   5  -2 -10    0.31    0.31
  -5   2 -10    0.42    0.42
   5  -2 -11   14.26    0.86
   5  -2 -12   13.05    0.84
   5  -2 -13   50.58    1.87
   5  -2 -13   53.55    1.62
   5  -2 -14   25.52    0.94
   5  -2 -14   21.65    1.14
   5  -2 -15   33.07    1.44
   5  -2 -16   30.49    1.39
   5  -2 -17   58.61    2.13
   5   2  33    1.75    0.83
   5   2  34    2.05    0.82
   5  -2 -35    2.69    0.81
   5   3 -36    2.96    0.84
   5   3 -35    2.15    0.89
   5   3 -35    2.82    0.85
   5   3 -35    3.62    0.95
   5   3 -34    4.74    1.00
   5   3 -34    5.10    0.87
   5   3 -34    2.65    0.90
   5   3 -33    2.62    1.03
   5   3 -33    3.85    0.82
   5  -3  33    0.91    0.77
   5   3 -32    1.51    0.87
   5  -3  32    2.00    0.84
   5   3 -31   11.36    1.38
   5  -3  31   14.37    1.29
   5   3 -30    2.46    0.96
   5  -3  30    2.99    0.95
   5  -3  29   11.91    1.24
   5  -3  28    9.82    1.15
  -5  -3 -27    1.55    0.68
   5  -3  27    2.14    0.74
  -5  -3 -26   12.27    1.09
   5  -3  26   11.58    1.13
  -5  -3 -25   11.69    1.09
   5  -3  25   10.39    1.05
  -5  -3 -24   10.39    0.98
   5  -3  24   11.78    1.08
  -5  -3 -23   18.07    1.24
   5  -3  23   18.29    1.28
  -5  -3 -22   20.82    1.28
   5  -3  22   21.10    1.33
  -5  -3 -21   82.22    2.83
   5  -3  21   86.11    2.88
  -5  -3 -20    4.83    0.67
   5  -3  20    3.77    0.71
   5   3 -19   59.76    2.12
   5  -3  19   61.78    2.24
   5   3 -18    9.83    0.81
   5  -3  18   10.19    0.91
   5   3 -18   10.04    1.05
   5   3 -17    7.26    0.93
   5   3 -17    9.43    0.77
   5  -3  17    8.09    0.80
   5   3 -16   24.30    1.23
   5  -3  16   25.91    1.28
   5   3 -16   24.72    1.50
   5   3 -15   54.90    1.98
   5  -3  15   53.29    1.96
   5   3 -15   52.51    2.23
   5   3 -14   90.17    2.81
   5  -3  14   91.44    2.82
   5   3 -14   90.00    3.10
   5   3 -13    8.40    0.74
   5  -3  13    7.70    0.72
   5   3 -13    8.06    0.83
   5   3 -12   37.45    1.59
   5  -3  12   38.76    1.55
   5   3 -12   38.23    1.74
   5  -3  11  120.25    3.39
   5   3 -11  115.91    3.58
   5   3 -10    2.80    0.52
   5  -3  10    2.95    0.52
   5   3  -9   42.29    1.74
   5  -3   9   41.29    1.62
   5   3  -9   44.58    1.61
   5   3  -8   29.06    1.35
   5  -3   8   27.60    1.26
   5   3  -8   29.54    1.25
   5   3  -7   87.17    2.71
   5  -3   7   86.57    2.65
   5   3  -7   85.00    2.59
   5   3  -6    3.34    0.50
   5  -3   6    4.70    0.58
   5   3  -6    3.96    0.50
   5   3  -5   17.72    1.00
   5   3  -5   17.78    0.97
   5  -3   5   19.13    1.03
   5   3  -4    4.34    0.53
   5  -3   4    5.48    0.62
   5   3  -3  219.82    5.60
   5   3  -2  293.34    7.32
  -5  -3  -2  301.69    7.04
   5   3  -1  552.12   13.25
  -5  -3  -1  582.14   12.88
   5   3   0  150.77    4.13
  -5  -3   0  152.16    3.66
   5   3   0  146.17    3.93
  -5   3  -1  570.43   13.54
   5   3   1  571.89   13.09
  -5   3  -2  304.83    7.64
   5   3   2  294.56    7.14
   5  -3  -3  224.06    5.21
  -5   3  -3  228.56    6.01
   5   3   3  219.05    5.50
   5  -3  -4    5.56    0.36
  -5   3  -4    6.44    0.70
   5   3   4    5.63    0.61
   5   3   4    5.13    0.52
   5  -3  -5   18.48    0.68
  -5   3  -5   17.90    1.16
   5  -3  -5   17.69    0.63
   5   3   5   21.02    1.04
   5   3   5   17.75    0.89
  -5   3  -5   18.42    0.56
   5  -3  -6    3.70    0.33
  -5   3  -6    4.43    0.61
   5  -3  -6    4.36    0.52
  -5   3  -6    3.75    0.27
   5   3   6    4.51    0.55
   5   3   6    3.66    0.47
   5  -3  -7   86.45    2.68
  -5   3  -7   87.01    2.95
  -5   3  -7   84.51    2.14
   5   3   7   84.73    2.61
   5   3   7   85.44    2.48
   5  -3  -7   84.43    2.25
  -5   3  -8   26.33    1.47
   5  -3  -8   28.10    1.30
   5   3   8   28.63    1.27
   5  -3  -8   29.77    1.05
   5  -3  -9   36.36    1.56
  -5   3  -9   37.54    1.81
   5   3  10    3.78    0.54
   5  -3 -10    2.10    0.44
  -5   3 -10    2.79    0.61
   5   3  11  120.78    3.36
   5  -3 -11  112.15    3.42
  -5   3 -11  118.66    3.82
   5   3  12   35.35    1.48
   5  -3 -12   35.21    1.53
  -5   3 -12   35.12    1.79
   5   3  13    6.80    0.70
   5  -3 -13    8.73    0.73
   5   3  14   93.49    2.82
   5  -3 -14   88.15    2.89
   5   3  15   53.10    1.93
   5  -3 -15   51.12    2.00
   5   3  16   22.96    1.21
   5  -3 -16   20.56    1.22
   5   3  17    9.71    0.84
   5  -3 -17    7.49    0.76
   5   3  18    9.58    0.88
   5   3  19   61.05    2.26
   5   3  20    3.12    0.69
   5   3  21   84.22    2.87
   5   3  22   22.53    1.36
   5   3  23   20.74    1.35
   5   3  24    9.86    1.01
   5   3  25   10.54    1.06
   5   3  26    9.89    1.06
   5   3  27    1.52    0.68
   5   3  28   10.79    1.17
   5   3  29   11.09    1.19
   5   3  30    3.03    0.92
   5   3  31   15.86    1.35
   5   3  32    2.48    0.87
   5   3  33    2.46    0.83
   5  -3 -35    4.26    0.79
   5   4 -35    3.02    0.87
   5   4 -35    2.35    0.85
   5   4 -34    1.17    0.86
   5   4 -34    1.28    0.70
   5   4 -34    0.33    0.79
   5   4 -33    0.92    0.85
   5   4 -33    2.07    0.78
   5   4 -33    2.29    0.92
   5  -4  33    2.24    0.83
   5   4 -32    1.63    0.69
   5   4 -32    0.35    0.85
   5  -4  32    1.05    0.80
   5   4 -31    3.42    0.81
   5   4 -31    1.42    0.90
   5  -4  31    3.42    0.83
   5   4 -30    1.31    0.81
   5  -4  30    2.79    0.86
   5   4 -29    1.54    0.89
   5  -4  29    1.98    0.91
   5   4 -28    6.22    1.10
   5  -4  28    5.88    0.95
   5   4 -27    3.70    1.02
   5  -4  27    5.61    0.90
   5   4 -26    4.87    1.00
   5  -4  26    4.04    0.84
   5   4 -25    2.88    0.84
   5  -4  25    2.76    0.79
  -5  -4 -24    1.99    0.60
   5   4 -24    1.94    0.83
   5  -4  24    1.50    0.70
  -5  -4 -23   11.82    0.98
   5  -4  23   13.73    1.13
   5   4 -23   12.09    1.31
  -5  -4 -22   12.62    1.00
   5  -4  22   13.14    1.09
   5   4 -22   12.47    1.29
  -5  -4 -21   12.43    0.94
   5  -4  21   11.75    1.00
   5   4 -21   10.48    1.19
  -5  -4 -20   16.40    1.05
   5  -4  20   18.05    1.18
   5   4 -20   16.42    1.40
  -5  -4 -19    2.78    0.52
   5   4 -19    1.70    0.70
   5   4 -19    3.07    0.62
   5  -4  19    2.65    0.65
   5   4 -18   21.09    1.18
   5  -4  18   20.67    1.21
   5   4 -18   19.29    1.40
   5   4 -17    2.96    0.71
   5  -4  17    4.34    0.66
   5   4 -17    4.73    0.65
   5   4 -16    7.08    0.73
   5  -4  16    7.94    0.77
   5   4 -15   11.41    0.90
   5  -4  15   11.49    0.87
   5   4 -15   11.04    1.02
   5   4 -14    1.31    0.55
   5   4 -14    2.19    0.54
   5  -4  14    1.59    0.51
   5   4 -13   50.95    1.96
   5  -4  13   53.52    1.90
   5   4 -13   50.50    2.16
  -5   4  12    6.83    0.74
   5   4 -12    7.41    0.74
   5  -4  12    7.51    0.69
   5   4 -12    7.98    0.85
   5   4 -11   21.49    1.26
   5  -4  11   22.51    1.13
   5   4 -10    3.43    0.61
   5  -4  10    3.94    0.55
   5   4 -10    3.93    0.54
   5   4  -9   10.86    0.88
   5  -4   9   11.89    0.81
   5   4  -9    9.94    0.77
   5   4  -8    3.43    0.57
   5   4  -8    4.24    0.37
   5  -4   8    4.13    0.56
   5   4  -8    4.24    0.54
   5   4  -7  120.94    3.54
   5  -4   7  116.13    3.35
   5   4  -7  116.78    3.39
   5   4  -6   75.94    2.54
   5   4  -6   78.27    2.48
   5  -4   6   75.20    2.42
   5   4  -5   36.79    1.54
   5  -4   5   38.55    1.52
   5   4  -4   30.32    1.37
   5  -4   4   29.04    1.31
   5   4  -3   31.96    1.42
   5   4  -2   30.89    1.40
   5   4  -1   16.31    1.01
  -5  -4  -1   16.79    0.69
   5   4   0   52.91    1.99
  -5  -4   0   54.04    1.43
   5   4   0   51.63    1.84
   5   4   1   15.69    1.00
   5   4   1   15.15    0.89
  -5   4  -2   32.18    1.59
  -5   4  -2   31.17    0.82
   5   4   2   29.94    1.29
  -5   4  -3   31.81    1.61
  -5   4  -3   33.42    0.90
   5   4   3   32.23    1.33
  -5   4  -4   30.65    1.57
   5   4   4   29.46    1.32
  -5   4  -4   30.89    0.88
   5   4   4   30.50    1.27
  -5   4  -5   38.55    1.80
   5  -4  -5   39.35    1.65
   5   4   5   37.08    1.52
   5   4   5   38.87    1.49
  -5   4  -5   40.20    1.12
  -5   4  -6   77.43    2.79
   5  -4  -6   80.45    2.59
  -5   4  -6   75.88    1.97
   5   4   6   74.57    2.39
   5   4   6   73.28    2.33
  -5   4  -7  119.32    3.80
   5  -4  -7  119.55    3.54
   5   4   7  118.88    3.35
   5   4   7  116.05    3.28
  -5   4  -8    3.88    0.66
   5  -4  -8    3.90    0.56
   5   4   8    4.48    0.56
   5   4   8    4.42    0.51
   5  -4  -8    3.61    0.35
   5   4   9    9.62    0.74
   5  -4  -9   10.62    0.83
  -5   4  -9   10.18    0.97
   5   4  10    2.85    0.51
   5  -4 -10    4.37    0.58
  -5   4 -10    4.64    0.72
   5   4  11   20.21    1.06
   5  -4 -11   20.85    1.21
  -5   4 -11   20.95    1.36
   5   4  12    7.23    0.69
   5  -4 -12    7.18    0.73
   5   4  13   51.00    1.84
   5  -4 -13   47.82    1.98
   5   4  14    0.88    0.44
   5  -4 -14    1.19    0.47
   5   4  15   12.23    0.89
   5  -4 -15   11.19    0.93
   5   4  16    6.39    0.71
   5  -4 -16    5.84    0.71
   5   4  17    5.25    0.68
   5  -4 -17    4.21    0.65
   5   4  18   19.46    1.16
   5   4  19    2.40    0.59
   5   4  20   17.39    1.15
   5   4  21   11.95    1.04
   5   4  22   13.02    1.07
   5   4  23   11.82    1.06
   5   4  24    2.64    0.73
   5   4  25    3.01    0.75
   5   4  26    4.53    0.85
   5   4  27    4.51    0.90
   5   4  28    5.52    0.94
   5   4  29    1.70    0.82
   5   4  30    2.11    0.81
   5   4  31    2.50    0.80
   5   4  32   -0.24    0.76
   5   4  33    2.22    0.86
   5  -4 -34    2.03    0.70
   5   5 -35    0.64    0.82
   5   5 -35    1.20    0.79
   5   5 -34    2.32    0.88
   5   5 -34    2.82    0.73
   5   5 -34    2.11    0.85
   5   5 -33   -0.37    0.86
   5   5 -33    0.37    0.60
   5   5 -33    0.11    0.78
   5   5 -32    1.50    0.68
   5   5 -32    1.88    0.87
   5  -5  32    1.87    0.82
   5   5 -31    4.54    0.83
   5   5 -31    3.93    1.03
   5  -5  31    4.96    0.95
   5   5 -30    0.59    0.62
   5   5 -30   -0.12    0.78
   5  -5  30    1.18    0.76
   5   5 -29    5.78    0.88
   5   5 -29    6.11    1.13
   5  -5  29    7.33    1.04
   5   5 -28    5.09    0.86
   5   5 -28    3.33    0.98
   5  -5  28    5.84    0.93
   5   5 -27    4.47    1.01
   5  -5  27    5.62    0.96
   5   5 -26    1.04    0.81
   5  -5  26    1.50    0.73
   5   5 -25    3.74    1.00
   5  -5  25    4.77    0.85
   5  -5  24   42.01    1.91
   5   5 -24   35.95    2.22
   5   5 -23    3.22    0.88
   5  -5  23    4.71    0.82
   5   5 -22    5.32    0.98
   5  -5  22    6.49    0.81
   5   5 -21    2.82    0.79
   5  -5  21    2.60    0.69
   5   5 -20    5.94    0.94
   5  -5  20    5.73    0.76
   5   5 -19    7.42    1.01
   5  -5  19    6.93    0.78
   5   5 -19    7.18    0.80
   5   5 -18    3.35    0.81
   5  -5  18    5.49    0.70
   5   5 -18    4.52    0.69
   5   5 -17    1.83    0.66
   5   5 -17    2.88    0.62
   5  -5  17    2.57    0.58
   5   5 -16   18.20    1.16
   5  -5  16   16.03    1.02
   5   5 -16   16.89    1.32
   5   5 -15   40.98    1.74
   5  -5  15   40.20    1.62
   5   5 -15   34.89    1.87
   5   5 -14   11.28    0.91
   5  -5  14   11.05    0.83
   5   5 -14   10.01    1.01
   5   5 -13   11.84    1.04
   5   5 -13    9.31    0.86
   5  -5  13   10.85    0.82
   5   5 -12   61.66    2.27
   5   5 -12   57.31    2.37
   5  -5  12   61.00    2.05
  -5   5  12   59.27    2.24
   5   5 -11   71.47    2.67
   5  -5  11   70.18    2.29
   5   5 -11   71.66    2.52
  -5   5  11   71.58    2.47
   5   5 -10    0.40    0.46
   5  -5  10    0.64    0.40
   5   5 -10    0.78    0.46
   5   5  -9   23.89    1.32
   5   5  -9   20.69    0.90
   5  -5   9   22.49    1.11
   5   5  -9   21.97    1.18
   5   5  -8   31.11    1.54
   5  -5   8   31.41    1.33
   5   5  -8   31.54    1.11
   5   5  -8   31.17    1.44
   5   5  -7    7.55    0.79
   5   5  -7    8.30    0.50
   5  -5   7    8.77    0.71
   5   5  -7    7.42    0.73
   5   5  -6   27.63    1.38
   5   5  -6   25.06    1.29
   5  -5   6   25.46    1.21
   5   5  -6   25.92    0.91
   5   5  -5  110.87    3.29
   5  -5   5  104.02    3.10
   5   5  -4   52.22    1.97
   5  -5   4   50.62    1.83
   5   5  -3   17.94    1.08
   5  -5   3   18.84    1.03
   5   5  -2  138.53    4.00
  -5  -5  -1    0.24    0.17
   5   5  -1    0.56    0.40
   5   5   0   35.08    1.52
   5   5   0   32.17    1.37
   5   5   1    0.17    0.44
  -5   5  -1    0.16    0.17
   5   5   1    0.47    0.36
   5   5   2  131.41    3.87
   5   5   2  132.38    3.67
  -5   5  -2  128.32    3.06
  -5   5  -3   20.80    1.31
   5   5   3   17.90    0.99
  -5   5  -3   19.64    0.69
   5   5   3   20.84    1.08
  -5   5  -4   46.92    2.11
   5   5   4   47.86    1.74
  -5   5  -4   49.09    1.37
   5   5   4   47.82    1.78
  -5   5  -5  107.58    3.57
   5  -5  -5  108.69    3.37
   5   5   5  107.26    3.09
   5   5   5  105.66    3.12
  -5   5  -6   26.87    1.52
   5  -5  -6   25.14    1.35
   5   5   6   25.54    1.18
   5   5   6   26.09    1.22
  -5   5  -7    8.39    0.90
   5  -5  -7    6.82    0.73
  -5   5  -7    8.07    0.51
   5   5   7    8.79    0.70
   5   5   7    8.49    0.70
  -5   5  -8   29.31    1.64
   5  -5  -8   29.49    1.48
  -5   5  -8   31.14    1.12
   5   5   8   29.68    1.28
   5   5   8   31.87    1.38
  -5   5  -9   20.04    0.90
   5   5   9   20.64    1.05
   5  -5  -9   18.70    1.19
  -5   5  -9   23.01    1.43
   5   5  10    0.13    0.37
   5  -5 -10    0.13    0.39
  -5   5 -10    0.08    0.50
   5   5  11   68.34    2.21
   5  -5 -11   67.62    2.52
   5   5  12   58.38    1.98
   5  -5 -12   54.80    2.22
   5   5  13    9.91    0.77
   5  -5 -13    8.13    0.84
   5   5  14   12.08    0.86
   5  -5 -14   12.67    1.00
   5   5  15   40.42    1.58
   5  -5 -15   33.45    1.71
   5   5  16   16.89    1.03
   5   5  17    2.73    0.60
   5   5  18    3.25    0.61
   5   5  19    7.43    0.79
   5   5  20    7.41    0.80
   5   5  21    2.46    0.65
   5   5  22    6.87    0.84
   5   5  23    5.29    0.83
   5   5  24   40.22    1.87
   5   5  25    3.48    0.76
   5   5  26    1.56    0.69
   5   5  27    5.85    0.92
   5   5  28    4.76    0.91
   5   5  29    8.67    1.10
   5   5  30    0.62    0.72
   5   5  31    6.15    0.96
   5   5  32    1.78    0.76
   5   6 -34    1.06    0.82
   5   6 -34    0.55    0.73
   5   6 -33   -0.80    0.81
   5   6 -32   11.91    1.10
   5  -6  32   11.05    1.13
   5   6 -31   -0.71    0.68
   5   6 -31    0.36    0.88
   5  -6  31    0.60    0.74
   5   6 -30    4.12    0.78
   5   6 -30    3.03    1.04
   5  -6  30    3.85    0.88
   5   6 -29   10.13    1.02
   5   6 -29    7.31    1.22
   5  -6  29    8.70    1.05
   5   6 -28    7.29    0.92
   5   6 -28    5.95    1.10
   5  -6  28    7.84    1.05
   5   6 -27   10.59    1.02
   5   6 -27   11.21    1.37
   5  -6  27   10.26    1.12
   5   6 -26   21.07    1.33
   5   6 -26   19.51    1.72
   5   6 -25   24.80    1.42
   5  -6  25   26.60    1.54
   5   6 -25   22.55    1.81
   5   6 -24    1.01    0.57
   5   6 -24    1.03    0.84
   5  -6  24    1.18    0.64
   5  -6  23   17.35    1.24
   5   6 -23   14.52    1.43
   5  -6  22   23.96    1.37
   5   6 -22   20.01    1.68
   5   6 -21    1.58    0.77
   5  -6  21    4.08    0.73
   5  -6  20   24.46    1.34
   5   6 -20   28.43    1.82
   5   6 -19   24.52    1.42
   5  -6  19   26.75    1.36
   5   6 -19   23.18    1.65
   5  -6  18    2.56    0.60
   5   6 -18    1.83    0.57
   5   6 -17    6.91    0.98
   5  -6  17    6.90    0.75
   5   6 -17    6.99    0.82
   5   6 -16  129.08    3.86
   5   6 -16  119.57    4.19
   5  -6  16  127.59    3.61
   5   6 -15   20.23    1.27
   5   6 -15   18.61    1.40
   5  -6  15   21.97    1.14
   5   6 -14   60.88    2.59
   5   6 -14   61.31    2.37
   5  -6  14   65.21    2.16
   5   6 -13   72.42    2.56
   5   6 -13   65.93    2.68
   5  -6  13   66.98    2.23
   5   6 -12    8.48    0.87
   5   6 -12    7.25    0.88
   5  -6  12    7.01    0.69
  -5   6  12    6.46    0.72
   5   6 -11    0.67    0.53
   5  -6  11    0.67    0.41
   5   6 -11    1.21    0.55
  -5   6  11    0.88    0.44
   5   6 -10    4.89    0.75
   5  -6  10    4.65    0.57
   5   6 -10    3.71    0.49
   5   6 -10    4.65    0.71
  -5   6  10    3.87    0.59
   5   6  -9   67.90    2.65
   5   6  -9   76.11    2.58
  -5   6   9   73.78    2.44
   5   6  -9   73.43    2.18
   5  -6   9   75.48    2.34
   5   6  -8    3.18    0.65
   5   6  -8    4.40    0.68
   5  -6   8    3.29    0.51
   5   6  -8    3.87    0.43
   5   6  -7   69.49    2.54
   5   6  -7   65.80    2.39
   5  -6   7   68.00    2.19
   5   6  -7   67.79    1.96
   5   6  -6   47.06    1.91
   5  -6   6   46.84    1.70
   5   6  -6   45.09    1.43
   5   6  -5  159.78    4.49
   5  -6   5  156.51    4.17
   5   6  -5  154.92    3.82
   5   6  -4  109.78    3.34
   5  -6   4  101.88    3.04
   5   6  -4  104.30    2.65
   5   6  -3  185.65    5.07
   5  -6   3  187.24    4.78
   5   6  -3  179.28    4.29
   5   6  -2    8.24    0.83
   5   6  -1   18.03    1.15
  -5  -6  -1   17.95    0.62
   5   6   0   44.60    1.92
   5   6   0   50.43    1.91
   5   6   1   19.47    1.20
   5   6   1   18.74    1.10
   5   6   2    9.06    0.87
   5   6   2    9.45    0.81
  -5   6  -2    9.11    0.49
   5   6   3  177.84    5.07
   5   6   3  181.14    4.70
  -5   6  -3  179.27    4.30
   5   6   3  183.02    4.88
  -5   6  -4  107.28    3.63
   5   6   4  104.25    3.41
   5  -6  -4  108.11    3.44
   5   6   4  103.52    3.04
  -5   6  -4  104.94    2.73
   5   6   4  110.95    3.24
  -5   6  -5  164.85    4.85
   5  -6  -5  157.94    4.56
   5   6   5  150.89    4.10
   5   6   5  152.85    4.28
  -5   6  -5  154.80    3.84
  -5   6  -6   46.53    2.16
   5  -6  -6   46.61    2.01
   5   6   6   45.70    1.67
   5   6   6   49.11    1.84
  -5   6  -6   46.39    1.49
  -5   6  -7   68.00    2.71
   5  -6  -7   64.82    2.49
   5   6   7   68.59    2.16
  -5   6  -7   66.75    1.98
   5   6   7   65.77    2.28
  -5   6  -8    2.30    0.61
   5  -6  -8    2.57    0.60
   5   6   8    4.23    0.55
   5   6   8    4.00    0.59
  -5   6  -8    3.26    0.42
   5  -6  -9   73.05    2.70
  -5   6  -9   73.07    2.21
   5   6   9   74.73    2.31
   5   6   9   73.33    2.46
   5  -6 -10    4.70    0.70
   5   6  10    4.45    0.54
  -5   6 -10    3.64    0.49
   5   6  11    0.41    0.39
   5  -6 -11    0.72    0.44
   5   6  12    6.53    0.66
   5  -6 -12    5.70    0.75
   5   6  13   68.55    2.23
   5   6  14   57.22    2.00
   5   6  15   20.49    1.10
   5   6  16  123.49    3.54
   5   6  17    6.25    0.71
   5   6  18    2.32    0.59
   5   6  19   26.66    1.36
   5   6  20   26.30    1.38
   5   6  21    1.50    0.64
   5   6  22   21.68    1.30
   5   6  23   15.52    1.16
   5   6  24    0.06    0.64
   5   6  25   30.17    1.62
   5   6  26   25.28    1.52
   5   6  27   10.66    1.09
   5   6  28    5.30    0.95
   5   6  29    9.17    1.06
   5   6  30    3.42    0.88
   5   6  31   -0.59    0.77
   5   6  32    9.85    1.07
   5   7 -34    2.47    0.87
   5   7 -33    1.01    0.90
   5   7 -32    0.81    0.84
   5   7 -31    5.59    1.08
   5   7 -31    3.92    1.02
   5  -7  31    4.82    0.85
   5   7 -30   13.64    1.49
   5  -7  30   13.38    1.16
   5   7 -29    4.88    1.04
   5  -7  29    5.66    0.96
   5   7 -28    9.04    0.94
   5   7 -28    6.37    1.18
   5  -7  28    9.74    1.08
   5   7 -27    6.81    0.88
   5   7 -27    5.13    1.08
   5  -7  27    6.67    0.99
   5   7 -26   14.16    1.09
   5  -7  26   13.39    1.19
   5   7 -26   15.28    1.57
   5   7 -25   17.29    1.18
   5  -7  25   19.00    1.30
   5   7 -25   20.11    1.75
   5   7 -24   50.68    1.99
   5  -7  24   48.96    2.07
   5   7 -24   46.72    2.61
   5   7 -23   12.05    0.95
   5   7 -23   12.77    1.41
   5  -7  23   10.93    1.02
   5   7 -22    2.59    0.55
   5   7 -22    2.59    0.82
   5  -7  22    2.61    0.65
   5   7 -21   18.15    1.05
   5  -7  21   19.45    1.21
   5   7 -20    8.76    0.75
   5   7 -20    8.19    1.15
   5  -7  20    9.65    0.89
   5   7 -19   22.43    1.10
   5   7 -19   20.15    1.61
   5  -7  19   23.30    1.26
   5   7 -18    6.85    0.62
   5   7 -18    7.23    1.03
   5  -7  18    5.46    0.72
   5   7 -18    5.52    0.82
   5   7 -17   23.64    1.06
   5   7 -17   23.54    1.67
   5   7 -17   24.37    1.43
   5  -7  17   25.46    1.27
   5   7 -16   37.19    1.33
   5   7 -16   35.44    2.00
   5   7 -16   36.98    1.79
   5  -7  16   36.15    1.54
   5   7 -15    4.42    0.47
   5   7 -15    3.83    0.83
   5  -7  15    4.10    0.61
   5   7 -15    5.24    0.78
   5   7 -14   29.60    1.74
   5   7 -14   29.62    1.57
   5  -7  14   30.28    1.34
   5   7 -13   20.03    1.43
   5   7 -13   20.46    1.31
   5  -7  13   21.03    1.09
   5   7 -12  143.55    4.24
   5   7 -12  143.87    3.88
   5  -7  12  142.70    3.81
  -5   7  12  137.87    4.01
   5   7 -11  102.03    3.61
   5   7 -11  107.78    3.46
   5  -7  11  104.50    3.04
   5   7 -11  106.46    3.07
  -5   7  11  107.94    3.24
   5   7 -10   19.47    1.37
   5   7 -10   20.01    1.03
   5  -7  10   21.02    1.05
   5   7 -10   20.11    1.31
  -5   7  10   23.28    1.19
   5   7  -9   18.79    1.33
   5  -7   9   21.79    1.05
   5   7  -9   20.62    0.99
   5   7  -9   19.61    1.28
   5   7  -9   20.38    1.27
  -5   7   9   20.91    1.11
   5   7  -8  106.85    3.54
  -5   7   8  102.28    3.09
   5   7  -8  106.50    3.38
   5   7  -8  103.10    2.89
   5  -7   8  105.47    2.99
  -5   7   7   38.24    1.53
   5   7  -7   40.52    1.80
   5   7  -7   40.75    1.42
   5  -7   7   40.00    1.51
   5   7  -6   35.58    1.70
   5  -7   6   37.95    1.47
   5   7  -6   39.55    1.35
   5   7  -5   24.18    1.37
   5  -7   5   23.85    1.12
   5   7  -5   23.08    0.96
   5   7  -4   74.77    2.66
   5  -7   4   73.54    2.30
   5   7  -4   71.59    2.04
   5   7  -3   53.24    2.15
   5  -7   3   56.16    1.90
   5   7  -3   52.77    1.59
   5   7  -2   85.44    2.97
   5  -7   2   79.89    2.57
  -5   7   2   88.78    2.29
   5   7  -2   86.32    2.28
   5   7  -1  130.49    3.87
  -5   7   1  129.74    3.10
   5   7  -1  123.00    3.71
   5   7   0   97.85    3.29
  -5   7   0   98.68    2.60
   5   7   0  101.47    2.56
   5   7   0  101.79    3.21
   5   7   1  119.78    3.79
   5   7   1  118.90    3.00
   5   7   1  128.06    3.71
  -5   7  -1  120.41    3.05
   5   7   2   89.50    3.01
   5   7   2   81.21    2.53
   5   7   2   83.86    2.80
  -5   7  -2   83.88    2.28
   5   7   3   54.69    2.22
   5   7   3   51.56    1.80
  -5   7  -3   51.42    1.59
   5   7   3   49.98    2.00
   5   7   4   74.48    2.74
   5  -7  -4   77.97    2.78
   5   7   4   72.14    2.27
  -5   7  -4   72.94    2.10
   5   7   4   70.09    2.49
  -5   7  -5   24.74    1.55
   5   7   5   21.22    1.35
   5  -7  -5   20.92    1.33
   5   7   5   22.68    1.07
   5   7   5   20.55    1.20
  -5   7  -5   22.87    0.97
   5   7   6   35.82    1.80
   5  -7  -6   40.44    1.87
   5   7   6   37.29    1.43
   5   7   6   39.82    1.68
  -5   7  -6   35.39    1.33
   5  -7  -7   35.76    1.80
   5   7   7   38.65    1.44
  -5   7  -7   37.82    1.39
   5   7   7   36.88    1.64
   5  -7  -8  101.49    3.48
  -5   7  -8  103.24    2.92
   5   7   8  106.42    2.95
   5   7   8  102.33    3.22
   5  -7  -9   20.08    1.32
  -5   7  -9   18.98    0.99
   5   7   9   20.34    1.00
   5   7   9   19.26    1.17
  -5   7 -10   21.22    1.07
   5   7  10   21.35    1.05
  -5   7 -11   98.30    3.01
   5   7  11  108.76    2.99
  -5   7 -12  135.08    3.86
   5   7  12  141.34    3.76
   5   7  13   20.34    1.06
   5   7  14   30.12    1.31
   5   7  15    4.80    0.64
   5   7  16   36.22    1.52
   5   7  17   23.06    1.21
   5   7  18    6.29    0.74
   5   7  19   23.83    1.26
   5   7  20   10.72    0.90
   5   7  21   17.57    1.15
   5   7  22    2.51    0.67
   5   7  23   15.15    1.11
   5   7  24   50.57    2.12
   5   7  25   20.05    1.36
   5   7  26   14.11    1.18
   5   7  27    7.06    0.95
   5   7  28    9.57    1.02
   5   7  29    3.59    0.81
   5   7  30   13.98    1.22
   5   7  31    7.31    1.00
   5   8 -33   -0.11    0.77
   5   8 -33    0.69    0.80
   5   8 -32    1.42    0.79
   5   8 -32    2.61    0.87
   5   8 -31    0.81    0.79
   5   8 -31    1.52    0.83
   5   8 -30    3.86    1.02
   5   8 -30    4.44    1.13
   5  -8  30    5.27    0.90
   5   8 -29   19.63    1.73
   5  -8  29   21.56    1.40
   5   8 -28    3.32    1.00
   5  -8  28    5.38    0.86
   5   8 -27    1.72    0.89
   5  -8  27    2.01    0.72
   5   8 -26    6.51    1.18
   5  -8  26    7.67    0.96
   5   8 -25    3.17    1.00
   5  -8  25    2.87    0.76
   5   8 -24    7.94    1.23
   5  -8  24    9.22    0.98
   5   8 -23   16.10    1.57
   5  -8  23   17.88    1.20
   5   8 -22    3.02    0.93
   5  -8  22    2.46    0.69
   5   8 -21   11.02    1.30
   5  -8  21   11.64    0.98
   5   8 -20   13.76    1.44
   5  -8  20   15.29    1.05
   5   8 -19   16.77    1.51
   5  -8  19   18.99    1.13
   5   8 -18   21.74    1.43
   5   8 -18   21.57    1.65
   5  -8  18   22.25    1.20
   5   8 -17    3.07    0.81
   5  -8  17    3.02    0.58
   5   8 -17    2.77    0.70
   5   8 -16   14.49    1.30
   5   8 -16   15.45    1.16
   5  -8  16   15.48    0.98
   5   8 -15    4.24    0.86
   5  -8  15    3.69    0.57
   5   8 -15    4.74    0.76
   5   8 -14    5.90    0.90
   5  -8  14    7.88    0.70
   5   8 -14    5.35    0.69
   5   8 -14    6.66    0.86
   5   8 -13   21.95    1.55
   5   8 -13   24.39    1.46
   5  -8  13   23.38    1.12
   5   8 -13   21.27    1.20
   5   8 -12   11.78    1.05
   5   8 -12   11.69    1.14
   5  -8  12   11.90    0.82
   5   8 -12   12.78    0.91
   5   8 -11    8.30    0.98
   5   8 -11    9.95    0.95
   5   8 -11    8.64    0.75
   5  -8  11    6.87    0.65
  -5   8  11    6.82    0.71
   5   8 -10   14.85    1.21
   5   8 -10   14.85    1.15
  -5   8  10   14.60    0.92
   5   8 -10   13.51    0.88
   5  -8  10   14.35    0.87
  -5   8   9   44.53    1.70
   5   8  -9   43.00    1.99
   5   8  -9   48.69    2.04
   5   8  -9   42.67    1.63
   5  -8   9   42.57    1.58
  -5   8   8   15.08    0.91
   5   8  -8   18.20    1.22
   5   8  -8   18.52    1.24
   5  -8   8   15.69    0.88
   5   8  -8   14.21    0.87
  -5   8   7   23.36    1.09
   5   8  -7   23.17    1.39
   5  -8   7   23.43    1.07
   5   8  -7   21.00    1.03
   5   8  -6   17.48    1.21
  -5   8   6   17.79    0.94
   5  -8   6   18.82    0.95
   5   8  -6   19.03    0.92
  -5   8   5   28.02    1.19
   5   8  -5   29.38    1.56
   5  -8   5   30.61    1.25
   5   8  -5   28.17    1.14
  -5   8   4   13.33    0.77
   5   8  -4   13.55    1.07
   5  -8   4   13.56    0.81
   5   8  -4   13.83    0.74
   5   8  -3    1.21    0.54
   5  -8   3    1.13    0.41
   5   8  -3    0.55    0.30
   5   8  -2    1.29    0.53
   5  -8   2    1.71    0.44
   5   8  -2    2.09    0.34
  -5   8   2    1.63    0.35
   5   8  -1   21.66    1.33
   5  -8   1   17.70    0.99
  -5   8   1   20.57    0.87
   5   8  -1   21.55    1.26
   5   8  -1   17.05    0.79
   5   8   0    4.22    0.69
   5   8   0    4.17    0.40
  -5   8   0    3.33    0.40
   5   8   0    4.69    0.68
   5   8   1   20.78    1.33
   5   8   1   19.82    0.98
   5   8   1   20.84    0.84
   5   8   1   18.07    1.18
  -5   8  -1   17.92    0.84
   5   8   2    1.70    0.58
   5   8   2    1.59    0.41
  -5   8  -2    1.98    0.36
   5   8   2    1.50    0.32
   5   8   2    1.52    0.53
   5   8   3    0.52    0.53
   5   8   3    0.82    0.38
   5   8   3    0.50    0.46
  -5   8  -3    0.35    0.29
   5   8   4   12.81    1.07
   5   8   4   12.99    0.78
  -5   8  -4   13.84    0.77
   5   8   4   14.74    1.05
   5   8   5   30.70    1.68
   5   8   5   30.58    1.24
   5   8   5   31.81    1.55
  -5   8  -5   30.22    1.22
   5   8   6   17.96    1.30
   5   8   6   20.13    0.96
   5   8   6   18.91    1.19
  -5   8  -6   18.33    0.94
   5   8   7   20.69    1.39
   5   8   7   23.96    1.04
   5   8   7   21.81    1.30
  -5   8  -7   21.00    1.05
  -5   8  -8   15.98    0.94
   5   8   8   16.00    0.87
   5   8   8   17.81    1.15
  -5   8  -9   43.49    1.66
   5   8   9   44.11    1.55
   5   8   9   43.05    1.87
  -5   8 -10   13.60    0.91
   5   8  10   14.67    0.85
  -5   8 -11    8.63    0.75
   5   8  11    7.39    0.65
   5   8  12   12.16    0.79
  -5   8 -12   12.17    0.90
  -5   8 -13   23.51    1.26
   5   8  13   24.04    1.12
  -5   8 -14    6.19    0.75
   5   8  14    5.37    0.62
   5   8  15    2.47    0.53
   5   8  16   15.22    0.95
   5   8  17    2.91    0.57
   5   8  18   20.41    1.14
   5   8  19   18.96    1.13
   5   8  20   16.15    1.07
   5   8  21   13.15    1.00
   5   8  22    3.07    0.70
   5   8  23   17.97    1.18
   5   8  24    7.45    0.84
   5   8  25    2.39    0.73
   5   8  26    5.63    0.85
   5   8  27    2.55    0.72
   5   8  28    4.27    0.83
   5   8  29   19.37    1.31
   5   8  30    4.63    0.82
   5   9 -32    1.10    0.82
   5   9 -32    0.17    0.74
   5   9 -31   -0.23    0.79
   5   9 -31    0.09    0.73
   5   9 -30    6.38    1.06
   5   9 -30    3.88    0.98
   5   9 -29   -0.18    0.83
   5   9 -29   -0.24    0.84
   5   9 -28    0.54    0.76
   5   9 -28    1.71    0.87
   5  -9  28    0.93    0.63
   5   9 -27    3.69    1.02
   5  -9  27    4.04    0.79
   5   9 -26    2.71    0.95
   5  -9  26    1.85    0.73
   5   9 -25    6.40    1.14
   5  -9  25    5.86    0.83
   5   9 -24    4.28    1.06
   5  -9  24    7.09    0.85
   5   9 -23    2.18    0.92
   5  -9  23    1.20    0.62
   5   9 -22    3.21    0.95
   5  -9  22    5.06    0.76
   5   9 -21    8.06    1.18
   5  -9  21    7.80    0.82
   5   9 -20   11.10    1.36
   5  -9  20   12.19    0.95
   5   9 -19   -0.22    0.75
   5  -9  19    0.29    0.51
   5   9 -18    8.11    1.14
   5  -9  18    5.65    0.72
   5   9 -17    4.92    0.97
   5  -9  17    5.03    0.67
   5   9 -17    4.90    0.77
   5   9 -17    4.49    0.79
   5   9 -16    8.85    0.97
   5   9 -16    7.00    1.02
   5  -9  16    8.51    0.75
   5   9 -16    5.72    0.77
   5   9 -15    5.60    0.94
   5   9 -15    5.34    0.88
   5  -9  15    5.22    0.61
   5   9 -15    5.22    0.74
   5   9 -14   16.98    1.25
   5   9 -14   17.61    1.43
   5   9 -14   14.78    1.07
   5  -9  14   17.99    0.97
   5   9 -13    3.30    0.84
   5   9 -13    3.41    0.77
   5  -9  13    3.16    0.51
   5   9 -13    3.16    0.60
   5   9 -12   10.60    1.10
   5   9 -12   10.25    1.01
   5  -9  12    8.75    0.70
   5   9 -12    9.30    0.83
   5   9 -11    1.94    0.68
   5   9 -11    1.66    0.67
   5  -9  11    1.69    0.45
   5   9 -11    1.83    0.52
   5   9 -10   11.75    1.06
   5   9 -10    9.85    0.81
   5  -9  10    9.04    0.68
   5   9  -9    1.71    0.63
   5  -9   9    1.95    0.45
   5   9  -9    1.71    0.48
   5   9  -8   36.96    1.79
   5  -9   8   34.93    1.31
   5   9  -8   32.18    1.39
   5   9  -7   -0.08    0.53
   5   9  -7    0.37    0.54
   5  -9   7    0.38    0.37
   5   9  -7    0.09    0.37
   5   9  -6   12.19    1.07
   5  -9   6    9.98    0.68
   5   9  -6   10.10    0.73
   5   9  -5    1.29    0.61
  -5   9   5    1.59    0.37
   5  -9   5    0.66    0.36
   5   9  -5    1.19    0.39
  -5   9   4   16.70    0.81
   5   9  -4   16.29    1.23
   5  -9   4   17.88    0.90
   5   9  -4   15.99    0.86
   5   9  -3    3.75    0.70
  -5   9   3    3.05    0.39
   5  -9   3    3.04    0.47
   5   9  -3    2.67    0.43
  -5   9   3    3.84    0.47
  -5   9   2   28.61    1.07
   5   9  -2   29.20    1.63
   5  -9   2   30.14    1.23
  -5   9   2   28.75    1.16
   5   9  -2   27.58    1.56
   5   9  -2   28.25    1.14
   5   9  -1    4.28    0.75
  -5   9   1    4.24    0.39
   5  -9   1    4.03    0.51
   5   9  -1    3.29    0.42
  -5   9   1    3.54    0.45
   5   9  -1    3.88    0.68
   5   9   0    8.24    0.91
   5  -9   0    7.75    0.65
   5   9   0    7.67    0.63
  -5   9   0    8.88    0.64
   5   9   0    8.11    0.57
   5   9   0    6.98    0.83
   5   9   1    5.38    0.79
   5   9   1    3.72    0.48
   5   9   1    4.54    0.48
  -5   9  -1    3.94    0.46
   5   9   1    4.61    0.73
   5   9   2   27.00    1.59
   5   9   2   29.90    1.16
   5   9   2   25.09    1.05
   5   9   2   30.94    1.57
  -5   9  -2   24.57    1.11
   5   9   3    4.65    0.76
   5   9   3    3.99    0.48
   5   9   3    4.77    0.72
  -5   9  -3    4.04    0.51
   5   9   4   15.28    1.19
   5   9   4   14.41    0.80
  -5   9  -4   15.83    0.88
   5   9   4   17.84    1.18
   5   9   5    1.97    0.71
   5   9   5    1.64    0.38
   5   9   5    1.61    0.57
  -5   9  -5    1.07    0.39
   5   9   6    9.90    0.66
   5   9   6    8.43    0.88
  -5   9  -6    8.73    0.71
   5   9   7    0.16    0.34
  -5   9  -7   -0.14    0.40
   5   9   7   -0.13    0.52
   5   9   8   34.68    1.30
   5   9   8   33.92    1.66
  -5   9  -8   33.61    1.46
   5   9   9    2.02    0.41
   5   9   9    1.85    0.61
  -5   9  -9    1.30    0.49
  -5   9 -10    8.75    0.80
   5   9  10   10.44    0.68
   5   9  11    1.07    0.65
   5   9  11    2.21    0.44
  -5   9 -11    2.83    0.55
   5   9  12    9.07    0.69
  -5   9 -12    8.70    0.82
   5   9  13    2.76    0.49
  -5   9 -13    2.93    0.61
  -5   9 -14   15.88    1.12
   5   9  14   15.10    0.89
   5   9  15    4.84    0.59
  -5   9 -15    5.37    0.78
   5   9  16    6.95    0.70
  -5   9 -16    7.35    0.87
  -5   9 -17    3.84    0.73
   5   9  17    4.34    0.61
   5   9  18    7.10    0.73
   5   9  19   -0.14    0.52
   5   9  20   10.98    0.90
   5   9  21    9.87    0.87
   5   9  22    4.27    0.71
   5   9  23    1.18    0.63
   5   9  24    6.97    0.87
   5   9  25    6.37    0.84
   5   9  26    3.48    0.73
   5   9  27    3.58    0.72
   5   9  28    1.15    0.62
   5  10 -31    3.09    0.95
   5  10 -31    1.43    0.76
   5  10 -30    1.26    0.80
   5  10 -30    1.28    0.81
   5  10 -29    9.12    1.20
   5  10 -29    8.59    1.23
   5  10 -28    0.43    0.72
   5  10 -28    0.60    0.83
   5  10 -27   -0.09    0.83
   5  10 -27   -0.12    0.88
   5  10 -26    1.46    0.78
   5  10 -26    2.09    0.91
   5  10 -25    6.05    1.15
   5  10 -24    6.77    1.14
   5 -10  24    5.51    0.78
   5  10 -23    5.76    1.13
   5 -10  23    8.40    0.89
   5  10 -23    5.89    0.95
   5  10 -22    6.31    1.15
   5 -10  22    7.86    0.83
   5  10 -22    8.02    1.00
   5  10 -21    3.12    0.94
   5 -10  21    3.40    0.62
   5  10 -21    3.13    0.73
   5  10 -20    9.10    1.29
   5 -10  20    8.46    0.81
   5  10 -20    6.45    0.95
   5  10 -19    5.11    1.07
   5 -10  19    5.82    0.70
   5  10 -19    5.66    0.87
   5  10 -18   10.61    1.28
   5 -10  18    9.89    0.83
   5  10 -18   10.70    1.07
   5  10 -17    6.61    1.10
   5  10 -17    7.34    0.98
   5 -10  17    7.90    0.72
   5  10 -17    6.84    0.87
   5  10 -16    1.98    0.85
   5  10 -16    1.55    0.71
   5 -10  16    2.18    0.53
   5  10 -16    1.74    0.65
   5  10 -15   22.99    1.74
   5  10 -15   27.56    1.64
   5  10 -15   24.10    1.40
   5 -10  15   25.56    1.17
   5  10 -14    1.57    0.78
   5  10 -14    3.36    0.80
   5 -10  14    2.63    0.49
   5  10 -14    3.04    0.68
   5  10 -13   11.38    1.10
   5 -10  13    8.95    0.70
   5  10 -13   10.95    0.93
   5  10 -12    0.24    0.61
   5 -10  12    1.10    0.41
   5  10 -12    0.06    0.52
   5  10 -11   14.83    1.22
   5 -10  11   13.64    0.78
   5  10 -11   12.20    0.96
   5  10 -10    9.79    1.04
   5 -10  10   10.98    0.71
   5  10 -10    8.11    0.79
   5  10  -9    5.88    0.86
   5 -10   9    6.32    0.56
   5  10  -9    7.57    0.76
   5  10  -8    3.84    0.77
   5  10  -8    4.65    0.77
   5 -10   8    3.75    0.48
   5  10  -8    2.54    0.54
   5  10  -7   46.83    2.15
   5  10  -7   46.16    2.16
   5 -10   7   47.43    1.55
   5  10  -7   43.66    1.74
   5  10  -6   10.01    1.03
   5 -10   6    9.34    0.66
   5  10  -6   10.96    0.80
   5  10  -5   11.11    1.06
   5 -10   5   11.43    0.70
   5  10  -5   10.05    0.77
   5  10  -4    5.25    0.83
   5 -10   4    4.08    0.47
   5  10  -4    4.33    0.56
   5  10  -3   10.35    1.09
   5 -10   3   13.17    0.74
  -5  10   3   12.87    0.79
   5  10  -3   12.51    1.11
   5  10  -3   11.14    0.76
   5  10  -2   15.52    1.24
   5  10  -2   13.86    0.80
   5 -10   2   15.27    0.80
  -5  10   2   15.11    0.86
   5  10  -2   13.85    1.16
   5  10  -2   12.40    0.80
   5  10  -1    6.69    0.88
   5 -10   1    4.99    0.53
   5  10  -1    5.06    0.53
  -5  10   1    4.76    0.55
   5  10  -1    6.25    0.84
   5  10  -1    5.41    0.54
   5  10   0    0.34    0.56
   5  10   0    0.22    0.32
   5 -10   0    0.42    0.36
  -5  10   0   -0.04    0.36
   5  10   0    0.50    0.35
   5  10   0   -0.15    0.57
   5  10   1    4.22    0.78
   5  10   1    5.41    0.50
   5 -10  -1    6.84    0.59
   5  10   1    5.29    0.53
  -5  10  -1    5.19    0.55
   5  10   1    5.15    0.78
   5  10   2   14.28    1.23
   5  10   2   13.71    0.75
   5 -10  -2   13.81    0.82
   5  10   2   14.12    0.81
  -5  10  -2   13.94    0.87
   5  10   2   14.68    1.14
   5  10   3   12.43    1.14
   5  10   3   10.49    0.66
   5  10   3   11.25    0.73
  -5  10  -3   11.21    0.78
   5  10   3   10.66    0.99
   5  10   4    4.38    0.48
  -5  10  -4    4.62    0.58
   5  10   4    4.67    0.77
   5  10   5   10.50    0.65
   5  10   5   12.60    1.08
  -5  10  -5   10.01    0.80
   5  10   6    9.46    0.62
   5  10   6   10.00    0.96
  -5  10  -6    9.79    0.80
   5  10   7   48.63    1.58
   5  10   7   49.32    2.13
  -5  10  -7   48.97    1.87
   5  10   8    3.02    0.42
   5  10   8    2.85    0.67
  -5  10  -8    3.11    0.57
   5  10   9    6.13    0.98
   5  10   9    6.59    0.56
   5  10   9    5.22    0.79
  -5  10  -9    6.13    0.72
   5  10  10   10.69    1.14
   5  10  10   10.27    0.67
  -5  10 -10   10.26    0.88
   5  10  11   13.41    1.28
   5  10  11   14.43    0.79
  -5  10 -11   12.26    0.98
   5  10  12    1.14    0.68
   5  10  12    0.79    0.40
  -5  10 -12    0.62    0.52
   5  10  13    7.58    1.05
   5  10  13   10.06    0.70
  -5  10 -13   10.05    0.94
   5  10  14    2.62    0.73
   5  10  14    3.15    0.50
  -5  10 -14    2.69    0.69
   5  10  15   22.66    1.64
  -5  10 -15   22.99    1.41
   5  10  15   23.98    1.11
   5  10  16    1.65    0.50
  -5  10 -16    1.30    0.66
   5  10  17    6.32    0.66
  -5  10 -17    7.70    0.92
  -5  10 -18   10.30    1.04
   5  10  18    9.92    0.82
   5  10  19    5.03    0.68
  -5  10 -19    4.00    0.80
   5  10  20    8.03    0.78
  -5  10 -20    6.57    0.95
   5  10  21    2.60    0.61
  -5  10 -21    3.11    0.84
  -5  10 -22    9.04    1.06
   5  10  22    7.19    0.79
   5  10  23    6.24    0.78
  -5  10 -23    5.96    0.98
   5  10  24    4.98    0.75
  -5  10 -24    3.90    0.85
   5  10  25    7.69    0.86
  -5  10 -25    7.14    1.03
   5  10  26    1.31    0.64
  -5  10 -26    0.62    0.68
   5  10  27    1.70    0.65
  -5  10 -27   -0.09    0.60
  -5  10 -28    1.05    0.75
  -5  10 -29    7.62    1.03
  -5  10 -30    0.41    0.69
   5  10  30    0.57    0.66
   5  10  31    0.76    0.64
   5  11 -30    0.32    0.69
   5  11 -29    0.74    0.80
   5  11 -28    2.11    0.95
   5  11 -28    0.66    0.75
   5  11 -27   10.87    1.20
   5  11 -27   10.91    1.43
   5  11 -26    1.97    0.82
   5  11 -26    1.46    0.86
   5  11 -25    4.63    0.96
   5  11 -25    2.21    0.94
   5  11 -25    3.60    0.87
   5  11 -24    4.09    0.93
   5  11 -24    5.19    1.08
   5  11 -24    3.94    0.89
   5  11 -23   15.33    1.54
   5  11 -23   12.80    1.20
   5  11 -22    0.99    0.92
   5  11 -22    1.00    0.68
   5  11 -21    7.47    1.23
   5  11 -21    8.43    1.01
   5  11 -20    3.64    1.01
   5  11 -20    2.58    0.78
   5  11 -19   34.84    2.25
   5  11 -19   38.21    1.93
   5  11 -18    2.95    0.98
   5  11 -18    3.23    0.76
   5  11 -17    6.96    1.18
   5  11 -17    5.26    0.84
   5  11 -16   14.36    1.30
   5  11 -16   12.09    1.09
   5  11 -15   19.70    1.46
   5  11 -15   20.05    1.33
   5  11 -14   37.77    1.99
   5  11 -14   36.37    1.77
   5  11 -13   18.72    1.44
   5  11 -13   19.37    1.27
   5  11 -12   36.13    1.88
   5  11 -12   31.75    1.61
   5  11 -11   76.73    2.94
   5  11 -11   73.93    2.64
   5  11 -10   21.23    1.45
   5  11 -10   19.48    1.21
   5  11  -9    7.57    0.97
   5  11  -9    8.28    0.84
   5  11  -8  104.01    3.60
   5  11  -8  103.59    3.23
   5  11  -7   48.04    2.29
   5  11  -7   47.69    1.87
   5  11  -6   19.30    1.46
   5  11  -6   19.69    1.13
   5  11  -5    8.63    1.04
   5  11  -5    8.31    0.75
   5  11  -4   82.36    3.08
   5  11  -4   87.67    3.21
   5  11  -4   81.12    2.36
   5  11  -4   79.83    3.10
   5  11  -4   81.46    2.58
   5  11  -3    3.34    0.80
   5  11  -3    3.57    0.80
   5  11  -3    2.93    0.46
   5  11  -3    4.08    0.59
  -5  11   3    2.74    0.55
   5  11  -3    4.11    0.82
   5  11  -2   41.75    2.06
   5  11  -2   38.53    1.34
  -5  11   2   39.49    1.55
   5  11  -2   39.49    2.01
   5  11  -2   36.80    1.51
   5  11  -1   38.36    2.00
   5  11  -1   34.38    1.22
  -5  11   1   35.54    1.45
   5  11  -1   35.61    1.87
   5  11  -1   30.76    1.37
   5  11   0   74.51    2.96
   5  11   0   74.44    2.09
  -5  11   0   70.54    2.34
   5  11   0   70.47    2.28
   5  11   0   78.53    2.93
   5  11   1   36.85    1.26
   5  11   1   36.19    1.44
   5  11   1   40.96    1.98
  -5  11  -1   33.55    1.45
   5  11   2   42.29    1.35
   5  11   2   38.41    1.53
  -5  11  -2   38.75    1.60
   5  11   2   42.63    2.03
   5  11   3    2.63    0.39
  -5  11  -3    3.24    0.57
   5  11   3    2.77    0.73
   5  11   3    2.47    0.50
   5  11   4   81.60    2.22
   5  11   4   80.94    3.02
  -5  11  -4   78.30    2.58
   5  11   5    7.74    0.56
  -5  11  -5    6.45    0.70
   5  11   5    6.52    0.90
   5  11   6   18.71    0.83
   5  11   6   20.96    1.41
  -5  11  -6   20.13    1.17
   5  11   7   41.66    2.20
   5  11   7   43.63    1.41
   5  11   7   42.72    2.04
  -5  11  -7   45.20    1.83
   5  11   8   98.54    3.72
   5  11   8  102.02    2.71
   5  11   8   99.01    3.49
  -5  11  -8  106.44    3.26
   5  11   9    6.99    1.07
   5  11   9    7.03    0.55
  -5  11  -9    9.87    0.90
   5  11   9    8.15    1.00
   5  11  10   18.62    1.53
   5  11  10   20.32    0.91
  -5  11 -10   21.23    1.29
   5  11  11   67.52    2.93
   5  11  11   68.72    2.01
  -5  11 -11   66.49    2.49
   5  11  12   29.43    1.90
   5  11  12   32.39    1.23
  -5  11 -12   33.52    1.67
   5  11  13   19.81    1.55
   5  11  13   19.25    0.91
   5  11  14   33.35    2.05
  -5  11 -14   35.17    1.76
   5  11  14   34.65    1.32
   5  11  15   20.73    1.60
  -5  11 -15   17.15    1.29
   5  11  15   20.44    0.99
   5  11  16   12.01    1.27
   5  11  16   14.41    0.86
  -5  11 -16   13.59    1.17
   5  11  17    6.28    1.05
   5  11  17    5.72    0.62
  -5  11 -17    4.15    0.87
   5  11  18    2.74    0.76
   5  11  18    3.31    0.56
  -5  11 -18    3.54    0.79
   5  11  19   30.21    2.00
  -5  11 -19   33.14    1.85
   5  11  20    2.54    0.87
   5  11  20    3.83    0.63
  -5  11 -20    2.44    0.83
   5  11  21    9.07    1.16
   5  11  21   10.72    0.86
  -5  11 -21    9.08    1.08
   5  11  22    1.50    0.81
   5  11  22    1.43    0.55
  -5  11 -22    0.96    0.70
   5  11  23   11.90    1.31
  -5  11 -23   14.80    1.31
   5  11  23   15.65    1.02
   5  11  24    3.67    0.92
  -5  11 -24    5.32    0.96
   5  11  25    2.83    0.87
  -5  11 -25    4.07    0.90
   5  11  26    0.09    0.79
  -5  11 -26    1.23    0.77
   5  11  27    7.53    1.04
  -5  11 -27    7.02    1.03
   5  11  28    0.58    0.66
  -5  11 -28    1.27    0.69
   5  11  29    1.65    0.67
  -5  11 -29    0.57    0.71
   5  11  30   -0.22    0.67
   5  12 -29    1.90    0.79
   5  12 -28    0.77    0.75
   5  12 -27    2.65    0.80
   5  12 -26    7.31    0.99
   5  12 -25    3.46    0.84
   5  12 -24   -0.30    0.75
   5  12 -23    4.91    0.85
   5  12 -23    4.22    0.83
   5  12 -22    3.36    0.82
   5  12 -22    3.73    0.87
   5  12 -21   29.27    1.64
   5  12 -21   25.92    1.65
   5  12 -20    0.73    0.66
   5  12 -19    3.13    0.79
   5  12 -18   10.34    1.06
   5  12 -17   25.84    1.58
   5  12 -16   29.52    1.67
   5  12 -15   15.85    1.39
   5  12 -15   14.58    1.21
   5  12 -14    1.32    0.79
   5  12 -14    1.29    0.66
   5  12 -13   70.63    2.86
   5  12 -13   66.43    2.57
   5  12 -12    2.50    0.76
   5  12 -12    3.20    0.70
   5  12 -11    7.54    1.03
   5  12 -11    7.26    0.84
   5  12 -10   23.35    1.53
   5  12 -10   17.94    1.22
   5  12  -9   13.93    1.05
   5  12  -8  102.01    3.23
   5  12  -7   32.17    1.55
   5  12  -6  137.68    4.48
   5  12  -6  127.68    4.38
   5  12  -6  128.24    3.81
   5  12  -5   30.02    1.84
   5  12  -5   31.12    1.79
   5  12  -5   31.79    1.87
   5  12  -5   29.33    1.45
   5  12  -4   59.58    2.66
   5  12  -4   62.87    2.59
   5  12  -4   59.05    2.62
   5  12  -4   58.03    2.13
   5  12  -3   46.23    2.27
   5  12  -3   44.68    2.13
  -5  12   3   40.34    1.73
   5  12  -3   45.79    2.25
   5  12  -3   43.21    1.75
   5  12  -2   37.21    2.02
   5  12  -2   34.49    1.86
  -5  12   2   35.75    1.54
   5  12  -2   34.59    1.93
   5  12  -2   33.54    1.48
   5  12  -1    8.20    1.03
   5  12  -1    6.73    0.70
  -5  12   1    8.24    0.77
   5  12  -1    7.64    0.99
   5  12   0   13.94    1.21
  -5  12   0   13.01    0.92
   5  12   0   11.33    0.86
   5  12   0   13.68    1.22
  -5  12  -1    8.22    0.77
   5  12   1    6.86    0.70
   5  12   2   32.95    1.43
  -5  12  -2   33.57    1.51
   5  12   2   35.32    1.90
   5  12   3   44.23    2.13
   5  12   3   40.81    1.65
  -5  12  -3   41.57    1.76
   5  12   4   52.74    2.55
  -5  12  -4   54.19    2.10
   5  12   5   31.18    1.92
   5  12   5   28.46    1.75
  -5  12  -5   30.28    1.49
   5  12   6  131.52    4.46
   5  12   6  127.49    4.17
  -5  12  -6  124.67    3.78
   5  12   7   30.21    1.89
   5  12   7   31.93    1.79
  -5  12  -7   29.69    1.53
   5  12   8   96.67    3.69
   5  12   8  102.26    3.52
  -5  12  -8   95.20    3.17
   5  12   9   14.90    1.37
   5  12   9   12.87    1.22
  -5  12  -9   15.84    1.14
   5  12  10   19.92    1.57
  -5  12 -10   21.87    1.33
   5  12  11    5.37    0.97
  -5  12 -11    5.59    0.86
   5  12  12    3.60    0.90
  -5  12 -12    2.28    0.70
   5  12  13   55.82    2.69
  -5  12 -13   65.04    2.52
   5  12  14    0.61    0.69
  -5  12 -14    1.13    0.64
   5  12  15   12.06    1.28
  -5  12 -15   12.67    1.19
   5  12  16   26.48    1.80
  -5  12 -16   27.35    1.67
   5  12  17   26.90    1.82
  -5  12 -17   25.10    1.62
   5  12  18    7.48    1.08
  -5  12 -18    7.93    1.00
   5  12  19    3.72    0.88
  -5  12 -19    3.62    0.83
   5  12  20    1.59    0.79
  -5  12 -20    1.20    0.70
   5  12  21   26.26    1.78
  -5  12 -21   23.79    1.65
   5  12  22    2.51    0.84
  -5  12 -22    3.93    0.91
   5  12  23    3.02    0.91
  -5  12 -23    3.76    0.82
   5  12  24    0.73    0.69
  -5  12 -24   -0.09    0.79
   5  12  25    2.65    0.78
  -5  12 -25    4.24    0.87
   5  12  26    4.98    0.91
  -5  12 -26    7.49    1.00
   5  12  27    1.68    0.75
  -5  12 -27    2.58    0.83
   5  12  28    0.90    0.60
  -5  12 -28    0.56    0.66
   5  13 -27    0.78    0.69
   5  13 -26   -0.07    0.68
   5  13 -25    1.44    0.72
   5  13 -24    0.93    0.68
   5  13 -23    1.33    0.69
   5  13 -22    5.67    0.83
   5  13 -21    2.45    0.73
   5  13 -21    1.87    0.76
   5  13 -20   -0.06    0.58
   5  13 -20    0.24    0.67
   5  13 -19    4.03    0.75
   5  13 -19    2.59    0.75
   5  13 -18    3.11    0.70
   5  13 -18    3.68    0.78
   5  13 -17    7.38    0.85
   5  13 -17    6.30    0.93
   5  13 -16   11.75    0.96
   5  13 -16   10.17    1.06
   5  13 -15    0.23    0.65
   5  13 -14    0.45    0.59
   5  13 -13    2.89    0.85
   5  13 -13    2.92    0.68
   5  13 -12    4.31    0.87
   5  13 -12    6.31    0.81
   5  13 -11    3.48    0.74
   5  13 -10    2.23    0.65
   5  13  -9   10.81    0.96
   5  13  -8   11.04    0.97
   5  13  -7   12.59    1.24
   5  13  -7   14.33    1.36
   5  13  -7   12.69    0.99
   5  13  -6    2.22    0.73
   5  13  -6    1.12    0.54
   5  13  -6    1.69    0.77
   5  13  -5    2.63    0.81
   5  13  -5    2.71    0.71
   5  13  -5    1.66    0.56
   5  13  -5    1.38    0.77
   5  13  -4    7.78    1.05
   5  13  -4    7.19    0.99
   5  13  -4    6.57    0.75
   5  13  -4    7.13    1.06
   5  13  -3   -0.58    0.66
   5  13  -3   -0.44    0.53
  -5  13   3    0.05    0.48
   5  13  -3    0.29    0.66
   5  13  -2    0.57    0.64
   5  13  -2    0.16    0.48
  -5  13   2    0.50    0.53
   5  13  -2    1.04    0.70
   5  13  -1   26.06    1.60
   5  13  -1   26.93    1.34
  -5  13   1   27.95    1.39
   5  13  -1   24.88    1.68
   5  13   0    1.36    0.69
   5  13   0    3.12    0.86
  -5  13   0    1.78    0.55
   5  13   0    1.91    0.54
   5  13   1   27.08    1.62
  -5  13  -1   26.66    1.38
   5  13   1   28.94    1.37
   5  13   1   28.09    1.73
   5  13   2    0.49    0.74
   5  13   2    0.31    0.61
   5  13   2    0.18    0.63
  -5  13  -2   -0.06    0.49
   5  13   2    0.26    0.45
   5  13   3   -0.30    0.69
   5  13   3    0.15    0.57
  -5  13  -3   -0.06    0.47
   5  13   3    0.62    0.68
   5  13   3    0.71    0.50
   5  13   4    6.29    1.01
   5  13   4    5.76    0.85
  -5  13  -4    6.10    0.78
   5  13   4    8.32    1.01
   5  13   5    1.90    0.81
  -5  13  -5    1.15    0.56
   5  13   5    2.25    0.75
   5  13   6    1.01    0.69
  -5  13  -6    0.25    0.53
   5  13   6    1.29    0.67
   5  13   7   12.78    1.29
   5  13   7   13.29    1.20
  -5  13  -7   10.24    0.96
   5  13   8   13.46    1.33
   5  13   8   12.43    1.20
  -5  13  -8   12.37    1.07
   5  13   9   12.52    1.29
  -5  13  -9    9.04    0.96
   5  13  10    1.83    0.80
  -5  13 -10    1.20    0.62
   5  13  11    3.45    0.86
  -5  13 -11    4.17    0.80
   5  13  12    5.69    1.00
  -5  13 -12    4.16    0.80
   5  13  13    2.54    0.81
  -5  13 -13    2.52    0.73
   5  13  14    0.20    0.72
  -5  13 -14   -0.31    0.71
   5  13  15    0.20    0.74
  -5  13 -15    0.88    0.63
   5  13  16    7.62    1.08
  -5  13 -16    8.14    1.01
   5  13  17    5.78    1.03
  -5  13 -17    4.63    0.93
   5  13  18    3.45    0.83
  -5  13 -18    3.35    0.80
   5  13  19    2.33    0.82
  -5  13 -19    3.83    0.87
   5  13  20   -0.29    0.74
  -5  13 -20   -0.34    0.65
   5  13  21    2.79    0.84
  -5  13 -21    2.32    0.80
   5  13  22    4.70    0.91
  -5  13 -22    3.95    0.89
   5  13  23    0.79    0.64
  -5  13 -23    0.94    0.73
   5  13  24    1.01    0.73
  -5  13 -24    1.77    0.73
   5  13  25    2.09    0.69
  -5  13 -25    1.74    0.70
   5  13  26   -0.15    0.66
  -5  13 -26   -0.48    0.65
   5  13  27    0.35    0.61
  -5  13 -27    0.39    0.65
   5  14 -25    0.32    0.61
   5  14 -24    0.83    0.61
   5  14 -23    2.61    0.74
   5  14 -22    1.44    0.69
   5  14 -21    0.68    0.63
   5  14 -20    0.78    0.61
   5  14 -19    3.20    0.81
   5  14 -18    4.79    0.87
   5  14 -17   18.76    1.39
   5  14 -16    4.38    0.84
   5  14 -15    5.40    0.87
   5  14 -14    8.82    1.00
   5  14 -13   11.07    1.06
   5  14 -12    0.66    0.63
   5  14 -11    2.71    0.73
   5  14 -10   27.58    1.57
   5  14  -9    3.37    0.88
   5  14  -9    2.58    0.67
   5  14  -8   18.27    1.45
   5  14  -8   20.88    1.30
   5  14  -7    1.13    0.70
   5  14  -7    1.03    0.56
   5  14  -6    2.50    0.83
   5  14  -6    1.87    0.62
   5  14  -5   16.77    1.40
   5  14  -5   17.29    1.18
   5  14  -4   10.97    1.15
   5  14  -4   12.18    0.99
   5  14  -3    5.69    0.94
   5  14  -3    4.85    0.71
  -5  14   3    6.09    0.77
   5  14  -2   16.86    1.34
   5  14  -2   19.09    1.16
  -5  14   2   18.09    1.20
   5  14  -1    6.99    0.97
   5  14  -1    9.15    0.85
  -5  14   1    8.92    0.88
   5  14   0    4.16    0.90
   5  14   0    4.08    0.81
  -5  14   0    6.03    0.76
   5  14   0    4.77    0.71
   5  14   1    7.31    1.10
   5  14   1    8.72    1.02
   5  14   1    8.24    0.83
  -5  14  -1    7.53    0.82
   5  14   2   19.25    1.55
   5  14   2   19.60    1.36
  -5  14  -2   20.09    1.22
   5  14   2   19.54    1.51
   5  14   2   16.38    1.12
   5  14   3    6.84    1.02
   5  14   3    5.44    0.85
  -5  14  -3    5.29    0.73
   5  14   3    6.64    1.03
   5  14   3    5.60    0.72
   5  14   4   11.83    1.32
   5  14   4   10.66    1.02
   5  14   4   10.65    1.18
  -5  14  -4   10.90    1.00
   5  14   5   16.65    1.46
   5  14   5   17.37    1.27
   5  14   5   15.27    1.37
  -5  14  -5   15.40    1.14
   5  14   6    1.74    0.81
   5  14   6    2.61    0.71
   5  14   6    2.33    0.82
  -5  14  -6    2.18    0.64
   5  14   7    0.93    0.76
   5  14   7    0.71    0.58
  -5  14  -7    0.20    0.55
   5  14   7    0.53    0.78
   5  14   8   17.73    1.27
   5  14   8   19.32    1.55
   5  14   8   18.81    1.48
  -5  14  -8   19.71    1.33
   5  14   9    2.26    0.84
   5  14   9    1.58    0.66
  -5  14  -9    1.93    0.66
   5  14  10   28.64    1.52
   5  14  10   25.17    1.83
  -5  14 -10   29.04    1.63
   5  14  11    3.26    0.88
   5  14  11    2.99    0.68
  -5  14 -11    1.58    0.71
   5  14  12    0.10    0.68
   5  14  12    0.76    0.55
  -5  14 -12    0.69    0.68
   5  14  13    7.62    1.08
   5  14  13    9.15    0.86
  -5  14 -13    9.00    1.05
   5  14  14   10.07    1.21
  -5  14 -14    9.51    1.04
   5  14  15    3.78    0.90
  -5  14 -15    6.05    0.88
   5  14  16    3.44    0.85
  -5  14 -16    3.37    0.81
   5  14  17   19.24    1.54
  -5  14 -17   20.93    1.47
   5  14  18    6.92    1.03
  -5  14 -18    6.38    0.97
   5  14  19    4.35    0.92
  -5  14 -19    3.05    0.78
   5  14  20    0.81    0.72
  -5  14 -20    0.76    0.72
   5  14  21   -0.09    0.70
  -5  14 -21    0.42    0.73
   5  14  22    0.50    0.70
  -5  14 -22    0.50    0.71
   5  14  23    1.76    0.68
  -5  14 -23    0.57    0.74
   5  14  24    0.08    0.60
  -5  14 -24    0.72    0.66
   5  14  25    0.72    0.61
  -5  14 -25    1.01    0.68
   5  15 -17    8.09    1.04
   5  15 -16    1.25    0.73
   5  15 -15   17.12    1.29
   5  15 -14    4.03    0.82
   5  15 -13    4.11    0.77
   5  15 -12    1.66    0.82
   5  15 -12    1.19    0.66
   5  15 -11   10.04    1.00
   5  15 -10   37.03    2.07
   5  15 -10   38.57    1.85
   5  15  -9   33.77    1.98
   5  15  -9   34.94    1.73
   5  15  -8    2.67    0.87
   5  15  -8    3.81    0.74
   5  15  -7   24.72    1.66
   5  15  -7   23.41    1.39
   5  15  -6   11.88    1.19
   5  15  -6   13.82    1.13
   5  15  -5    5.53    0.90
   5  15  -5    4.25    0.75
   5  15  -4    1.93    0.74
   5  15  -4    1.55    0.63
   5  15  -3    7.53    0.98
   5  15  -3    6.47    0.81
   5  15  -2    0.41    0.79
   5  15  -2    0.73    0.67
   5  15  -2    1.16    0.56
  -5  15   2   -0.19    0.58
   5  15  -1    1.04    0.74
   5  15  -1    2.65    0.75
   5  15  -1    0.85    0.54
  -5  15   1    2.19    0.65
   5  15   0   31.39    1.95
   5  15   0   32.84    1.78
  -5  15   0   28.63    1.53
   5  15   0   26.62    1.45
   5  15   1    1.03    0.77
   5  15   1    2.18    0.74
  -5  15  -1    1.75    0.63
   5  15   1    2.42    0.63
   5  15   2   -0.10    0.70
   5  15   2    0.30    0.66
  -5  15  -2   -0.07    0.55
   5  15   2    0.24    0.54
   5  15   3    7.74    1.14
   5  15   3    6.38    0.88
  -5  15  -3    6.16    0.79
   5  15   4    2.58    0.86
   5  15   4    2.53    0.72
  -5  15  -4    2.17    0.63
   5  15   5    4.42    0.77
  -5  15  -5    4.50    0.75
   5  15   6   11.72    1.29
   5  15   6   12.85    1.12
  -5  15  -6   14.48    1.13
   5  15   7   20.39    1.62
   5  15   7   22.51    1.36
  -5  15  -7   23.11    1.44
   5  15   8    3.78    0.95
   5  15   8    3.55    0.73
  -5  15  -8    2.80    0.71
   5  15   9   32.04    2.04
   5  15   9   31.76    1.58
  -5  15  -9   33.52    1.74
   5  15  10   35.98    2.12
   5  15  10   37.14    1.69
  -5  15 -10   34.26    1.81
   5  15  11    9.28    1.24
   5  15  11   11.72    0.95
  -5  15 -11    8.35    1.01
   5  15  12    2.00    0.84
  -5  15 -12    1.79    0.70
   5  15  13    4.24    0.95
  -5  15 -13    2.67    0.79
   5  15  14    2.92    0.86
  -5  15 -14    4.14    0.81
   5  15  15   14.73    1.35
  -5  15 -15   14.88    1.24
   5  15  16    1.22    0.83
  -5  15 -16    1.23    0.70
   5  15  17    8.87    1.16
  -5  15 -17    7.47    1.03
   5  15  18    7.74    1.04
  -5  15 -18    6.14    0.99
   5  15  19    5.07    0.94
  -5  15 -19    4.79    0.88
   5  15  20    6.87    0.96
  -5  15 -20    5.90    0.92
   5  15  21    3.48    0.81
  -5  15 -21    5.13    0.88
   5  15  22   11.81    1.12
  -5  15 -22   10.47    1.13
   5  15  23   -0.21    0.58
  -5  15 -23    0.46    0.65
  -5  15 -24    0.67    0.67
   5  16 -16   14.85    1.50
   5  16 -15    4.04    0.98
   5  16 -14   32.46    2.10
   5  16 -14   32.92    1.77
   5  16 -13    1.99    0.72
   5  16 -13    1.21    0.90
   5  16 -12   15.92    1.50
   5  16 -12   11.63    1.11
   5  16 -11   16.80    1.58
   5  16 -11   16.52    1.23
   5  16 -10    4.61    0.79
   5  16 -10    4.82    1.04
   5  16  -9    8.37    1.21
   5  16  -9   10.24    1.03
   5  16  -8   10.45    1.29
   5  16  -8   11.75    1.07
   5  16  -7   46.85    2.30
   5  16  -7   50.31    2.56
   5  16  -7   48.57    2.11
   5  16  -6    5.57    0.92
   5  16  -6    4.83    0.80
   5  16  -6    4.87    1.07
   5  16  -5   18.78    1.42
   5  16  -5   18.09    1.57
   5  16  -5   20.56    1.27
   5  16  -4    5.64    0.93
   5  16  -4    4.43    1.03
   5  16  -4    3.42    0.68
   5  16  -3   11.20    1.15
   5  16  -3   12.41    1.03
   5  16  -2    7.73    1.03
   5  16  -2    7.66    1.09
   5  16  -2    4.98    0.77
  -5  16   2    6.18    0.84
   5  16  -1    1.87    0.70
   5  16  -1    1.45    0.58
  -5  16   1    1.67    0.62
   5  16   0    2.29    0.86
   5  16   0    1.22    0.68
  -5  16   0    2.69    0.69
   5  16   0    0.95    0.58
   5  16   1    1.45    0.82
   5  16   1    0.74    0.62
  -5  16  -1    2.42    0.67
   5  16   1    1.20    0.59
   5  16   2    5.67    1.04
   5  16   2    4.14    0.79
  -5  16  -2    6.58    0.84
   5  16   2    5.01    0.76
   5  16   3   10.57    1.26
   5  16   3    9.04    1.03
  -5  16  -3    8.19    0.91
   5  16   4    4.93    0.99
   5  16   4    3.08    0.75
  -5  16  -4    3.99    0.81
   5  16   5   19.61    1.57
   5  16   5   16.20    1.20
  -5  16  -5   16.41    1.21
   5  16   6    5.58    1.08
   5  16   6    5.99    0.85
  -5  16  -6    5.47    0.85
   5  16   7   47.56    2.41
   5  16   7   44.97    1.95
  -5  16  -7   46.60    2.08
   5  16   8   13.25    1.34
   5  16   8   11.65    0.97
  -5  16  -8   11.18    1.11
   5  16   9   10.53    1.21
   5  16   9   10.32    0.92
  -5  16  -9   10.46    1.04
   5  16  10    4.60    0.95
  -5  16 -10    3.89    0.80
   5  16  11   16.33    1.47
  -5  16 -11   18.50    1.33
   5  16  12   16.35    1.41
  -5  16 -12   13.03    1.20
   5  16  13    1.50    0.81
  -5  16 -13    1.01    0.68
   5  16  14   30.39    1.91
  -5  16 -14   31.28    1.76
   5  16  15    5.01    0.96
  -5  16 -15    4.73    0.87
   5  16  16   14.29    1.30
  -5  16 -16   15.70    1.26
   5  16  17    0.67    0.70
  -5  16 -17    0.55    0.64
   5  16  18    5.11    0.91
  -5  16 -18    7.26    0.93
   5  16  19    5.04    0.85
  -5  16 -19    5.57    0.89
   5  16  20    4.28    0.79
  -5  16 -20    2.37    0.76
   5  16  21    0.62    0.59
  -5  16 -21    0.83    0.64
   5  17 -21    1.28    0.80
   5  17 -20    3.03    0.86
   5  17 -19    2.82    0.90
   5  17 -18    1.89    0.86
   5  17 -17    3.75    0.97
   5  17 -16    3.19    0.95
   5  17 -15    0.94    0.84
   5  17 -14   18.12    1.62
   5  17 -13    3.50    0.97
   5  17 -12    1.28    0.84
   5  17 -11    1.38    0.88
   5  17 -10   14.58    1.43
   5  17  -9    8.46    0.94
   5  17  -9    9.51    1.23
   5  17  -8    2.60    0.67
   5  17  -8    5.89    1.04
   5  17  -7    2.83    0.67
   5  17  -7    0.83    0.83
   5  17  -6    7.54    1.12
   5  17  -6    6.96    0.85
   5  17  -5    7.26    1.10
   5  17  -5    8.80    0.95
   5  17  -4    7.92    1.05
   5  17  -4    9.49    0.94
   5  17  -4   10.74    1.23
   5  17  -3    4.02    0.85
   5  17  -3    4.22    0.99
   5  17  -3    4.05    0.76
   5  17  -2    2.23    0.74
   5  17  -2    3.49    0.94
   5  17  -2    3.18    0.68
   5  17  -1   17.45    1.33
   5  17  -1   21.02    1.59
   5  17  -1   17.54    1.23
  -5  17   1   17.24    1.25
   5  17   0    7.96    1.00
  -5  17   0    9.79    1.02
   5  17   0    8.80    0.96
   5  17   0    9.25    1.20
   5  17   1   19.60    1.33
   5  17   1   18.58    1.52
  -5  17  -1   16.99    1.25
   5  17   1   18.29    1.26
   5  17   2    1.64    0.71
  -5  17  -2    2.07    0.70
   5  17   2    1.23    0.72
   5  17   3    5.14    1.02
   5  17   3    4.74    0.79
   5  17   3    5.18    0.93
  -5  17  -3    2.99    0.75
   5  17   4    8.00    0.92
   5  17   4   11.30    1.25
   5  17   4    8.48    1.11
  -5  17  -4    8.03    0.92
   5  17   5    6.82    1.08
   5  17   5    7.41    0.82
  -5  17  -5    7.91    0.95
   5  17   5    7.68    1.13
   5  17   6    7.04    1.06
   5  17   6    6.73    0.81
  -5  17  -6    5.65    0.85
   5  17   7    1.84    0.83
   5  17   7    0.99    0.53
  -5  17  -7    1.50    0.66
   5  17   8    3.35    0.86
  -5  17  -8    3.70    0.80
   5  17   9   10.92    1.21
  -5  17  -9    8.00    1.01
   5  17  10   13.14    1.32
  -5  17 -10   11.86    1.14
   5  17  11    2.72    0.84
  -5  17 -11    1.69    0.69
   5  17  12    1.42    0.72
  -5  17 -12    1.48    0.67
   5  17  13    4.93    0.89
  -5  17 -13    3.05    0.81
   5  17  14   17.05    1.40
  -5  17 -14   17.94    1.33
   5  17  15    2.44    0.80
  -5  17 -15    1.62    0.70
   5  17  16    3.75    0.80
  -5  17 -16    4.21    0.82
   5  17  17    3.58    0.78
  -5  17 -17    3.44    0.81
   5  17  18    2.34    0.67
  -5  17 -18    2.17    0.74
   5  17  19    2.88    0.70
  -5  17 -19    2.70    0.72
   5  18 -18   -0.27    0.69
   5  18 -17    0.56    0.67
   5  18 -16    0.19    0.78
   5  18 -15    5.38    0.97
   5  18 -14    1.84    0.77
   5  18 -13    1.28    0.81
   5  18 -12    2.87    0.88
   5  18 -11    1.79    0.86
   5  18 -10   -0.30    0.85
   5  18  -9    1.10    0.80
   5  18  -8    2.77    0.83
   5  18  -7    1.78    0.85
   5  18  -6   -0.20    0.72
   5  18  -5    6.47    1.08
   5  18  -4    3.31    0.97
   5  18  -3    0.10    0.81
   5  18  -2    6.98    1.09
   5  18  -1    1.71    0.85
  -5  18   0    0.61    0.57
   5  18   0    0.56    0.74
   5  18   1    1.39    0.80
  -5  18  -1    1.71    0.73
   5  18   2    5.40    0.81
   5  18   2    7.17    1.04
  -5  18  -2    4.75    0.79
   5  18   3    0.55    0.58
   5  18   3    0.36    0.77
  -5  18  -3    0.48    0.60
   5  18   4    4.11    0.71
  -5  18  -4    2.55    0.71
   5  18   4    3.58    0.88
   5  18   5    6.85    0.80
  -5  18  -5    4.71    0.82
   5  18   6   -0.46    0.80
  -5  18  -6    0.14    0.56
   5  18   7    0.64    0.74
  -5  18  -7    1.59    0.59
   5  18   8    2.67    0.79
  -5  18  -8    2.13    0.69
   5  18   9    2.00    0.76
  -5  18  -9    1.47    0.69
   5  18  10    0.76    0.71
  -5  18 -10    0.28    0.63
   5  18  11    2.14    0.75
  -5  18 -11    1.55    0.66
   5  18  12    1.60    0.67
  -5  18 -12    1.62    0.71
   5  18  13    1.08    0.65
  -5  18 -13    0.84    0.63
   5  18  14    2.07    0.72
  -5  18 -14    2.88    0.74
   5  18  15    4.10    0.80
  -5  18 -15    2.46    0.69
   5  18  16    0.27    0.53
  -5  18 -16   -0.13    0.57
   5  19 -14    1.73    0.75
   5  19 -13    0.70    0.77
   5  19 -12    4.80    0.92
   5  19 -11    4.94    0.97
   5  19 -10    3.89    0.91
   5  19  -9    0.82    0.76
   5  19  -8    2.19    0.84
   5  19  -7    1.83    0.79
   5  19  -6    0.27    0.74
   5  19  -5    0.45    0.72
   5  19  -4    0.09    0.73
   5  19  -3    0.90    0.73
   5  19  -2    1.43    0.76
   5  19  -1   -0.44    0.74
   5  19   0    0.09    0.70
   5  19   1    0.52    0.73
  -5  19  -2    0.53    0.57
   5  19   2    0.95    0.71
  -5  19  -3    0.53    0.62
  -5  19  -4    0.53    0.65
  -5  19  -5    0.26    0.61
  -5  19  -6    0.79    0.61
  -5  19  -7    2.57    0.67
  -5  19  -8    2.89    0.72
  -5  19  -9    2.28    0.62
  -5  19 -10    4.71    0.80
  -5  19 -11    4.08    0.77
  -5  19 -12    4.71    0.79
   5  20  -9   12.42    1.20
   5  20  -8    4.62    0.89
   5  20  -7    4.71    0.90
   5  20  -6    3.42    0.87
   5  20  -5    5.95    0.95
   5  20  -4    0.65    0.76
   5  20  -3    7.53    1.02
   5  20  -2   14.94    1.30
   5  20  -1    3.54    0.86
   5  20   0    0.24    0.69
  -5  20  -3    6.55    0.86
  -5  20  -4    0.37    0.62
  -5  20  -5    6.90    0.87
  -5  20  -6    4.57    0.75
  -5  20  -7    4.82    0.79
   6   0   0   29.13    1.04
   6   0  -1    0.08    0.37
  -6   0  -1   -0.15    0.32
   6   0   1    0.26    0.25
   6   0  -1    0.37    0.26
  -6   0  -2    2.03    0.43
   6   0  -2    2.24    0.42
   6   0  -2    2.47    0.35
   6   0   2    1.80    0.30
   6   0  -3   22.57    1.05
  -6   0  -3   25.57    1.24
   6   0   3   22.17    0.86
   6   0   4    2.84    0.58
  -6   0  -4    3.03    0.50
   6   0  -4    2.69    0.42
   6   0   5   35.29    1.62
  -6   0  -5   38.03    1.63
   6   0  -5   34.98    1.33
   6   0   6    8.00    0.80
  -6   0  -6    9.46    0.81
   6   0  -6    7.39    0.58
   6   0  -7    0.62    0.35
   6   0   7    0.23    0.47
  -6   0  -7    0.37    0.38
   6   0  -7   -0.16    0.29
   6   0  -8   14.59    0.87
   6   0   8   15.39    1.04
   6   0  -8   15.88    0.78
  -6   0  -8   17.06    1.11
   6   0  -9   44.35    1.66
   6   0   9   41.81    1.80
   6   0  -9   47.31    1.49
  -6   0  -9   42.69    1.90
   6   0 -10    8.73    0.73
   6   0  10    8.67    0.82
  -6   0 -10    8.90    0.88
   6   0 -11   38.25    1.56
   6   0  11   37.85    1.67
   6   0 -12    0.31    0.38
   6   0  12    0.68    0.51
   6   0 -13    3.63    0.57
   6   0  13    4.05    0.65
   6   0 -14   15.81    0.94
   6   0  14   16.14    1.09
   6   0 -14   15.61    1.06
   6   0 -15   53.71    1.86
   6   0 -15   50.82    2.09
   6   0 -16    0.58    0.45
   6   0  16    0.12    0.52
   6   0 -16    0.63    0.42
   6   0 -17    1.63    0.62
   6   0  17    2.78    0.66
   6   0 -17    2.20    0.45
   6   0 -18   -0.07    0.50
   6   0  18    0.68    0.56
   6   0 -19   -0.07    0.54
   6   0  19    0.06    0.59
   6   0 -20    1.17    0.58
   6   0  20    0.13    0.56
   6   0 -21    3.16    0.76
   6   0  21    3.56    0.75
   6   0  22   13.84    1.16
   6   0  23    0.64    0.65
   6   0  24   17.91    1.34
   6   0  25    1.21    0.73
   6   0 -26    5.58    0.92
   6   0  26    5.98    0.94
   6   0 -27    1.16    0.75
   6   0  27    2.45    0.80
   6   0 -28    0.10    0.76
   6   0  28    0.32    0.73
   6   0 -29    5.38    0.95
   6   0  29    5.30    1.00
   6   0 -30   -0.10    0.69
   6   0  30    0.75    0.78
   6   0 -31    3.27    0.92
   6   0  31    7.15    1.05
   6   0 -32    1.79    0.78
   6   0  32    3.36    0.90
   6   0 -33    0.18    0.68
   6   0  33    0.16    0.74
   6   0 -34    0.44    0.70
   6   0  34   -0.61    0.77
   6   1 -34    1.28    0.76
   6  -1  34    2.60    0.81
   6   1 -33    1.04    0.76
   6  -1  33    0.48    0.73
   6   1 -32    6.53    1.02
   6  -1  32    6.44    1.06
   6   1 -31    5.18    0.99
   6  -1  31    5.24    1.03
   6   1 -30    0.70    0.69
   6  -1  30    1.50    0.79
   6   1 -29    3.24    0.88
   6  -1  29    5.37    0.96
   6   1 -28    5.46    1.02
   6  -1  28    6.35    0.99
   6   1 -27    1.40    0.74
   6  -1  27    3.94    0.83
   6   1 -26    6.02    1.02
   6  -1  26    5.50    0.94
   6   1 -25    1.16    0.73
   6  -1  25    3.93    0.83
   6   1 -24   -0.09    0.69
   6  -1  24    1.32    0.69
   6   1 -23    2.20    0.77
   6  -1  23    2.99    0.79
   6   1 -22    0.80    0.66
   6  -1  22    0.21    0.65
   6   1 -21    0.34    0.56
   6  -1  21    0.27    0.63
   6   1 -20    5.42    0.85
   6  -1  20    4.96    0.77
   6   1 -19    2.05    0.65
   6  -1  19    2.67    0.68
   6   1 -18    5.35    0.78
   6  -1  18    4.57    0.75
   6   1 -18    5.75    0.62
   6   1 -17    0.94    0.55
   6   1 -17    1.42    0.46
   6  -1  17    0.97    0.58
   6   1 -16   11.37    0.81
   6  -1  16   10.24    0.92
   6   1 -16    9.45    0.94
   6   1 -15   10.56    0.81
   6  -1  15   11.66    0.96
   6   1 -15    9.11    0.91
   6   1 -14    6.42    0.77
   6   1 -14    6.03    0.69
   6  -1  14    7.15    0.80
   6   1 -13   14.73    0.96
   6  -1  13   16.64    1.09
   6   1 -13   13.33    0.99
   6   1 -12   18.23    1.12
   6  -1  12   19.04    1.17
   6   1 -11    0.86    0.46
   6  -1  11    2.02    0.52
   6   1 -10   21.81    1.17
   6  -1  10   22.27    1.25
   6   1  -9    1.31    0.43
   6  -1   9    1.18    0.49
   6   1  -9    1.18    0.35
   6   1  -8   11.75    0.85
   6  -1   8   13.99    0.98
   6   1  -8   13.49    0.77
  -6  -1  -8   13.33    0.98
   6   1  -7    7.93    0.68
   6   1  -7    8.41    0.64
  -6  -1  -7    9.13    0.78
   6  -1   7    9.02    0.84
  -6  -1  -6   22.58    1.20
   6   1  -6   19.62    0.98
   6  -1   6   19.78    1.17
  -6  -1  -5    0.58    0.38
   6   1  -5    0.28    0.33
   6  -1   5    0.58    0.51
  -6  -1  -4   16.63    0.98
   6   1  -4   16.76    0.92
   6  -1   4   15.44    1.07
   6   1  -3   14.33    0.87
  -6  -1  -3   13.92    0.87
   6   1  -2   44.55    1.69
  -6  -1  -2   47.14    1.69
   6   1  -2   43.25    1.51
  -6  -1  -1    1.01    0.33
   6   1  -1    0.56    0.39
   6   1  -1    0.77    0.32
   6   1   0  132.86    3.78
   6   1   0  133.08    3.49
   6  -1   0  136.23    3.28
   6  -1  -1    0.23    0.31
  -6   1  -1    0.77    0.38
   6   1   1    0.47    0.29
   6  -1  -1    0.50    0.24
   6  -1  -2   44.29    1.55
  -6   1  -2   44.46    1.81
   6   1   2   44.99    1.46
   6  -1  -2   43.59    1.34
   6  -1  -3   12.69    0.73
  -6   1  -3   12.40    0.91
   6   1   3   13.45    0.70
   6  -1  -3   12.89    0.62
  -6   1  -4   14.74    1.01
   6  -1  -4   14.79    0.78
   6   1   4   15.59    0.75
  -6   1  -5    0.69    0.43
   6  -1  -5    0.15    0.28
   6   1   5    0.49    0.30
   6  -1  -6   21.00    0.87
  -6   1  -6   17.43    1.16
  -6   1  -7    8.73    0.85
   6  -1  -7    8.05    0.53
   6  -1  -7    8.87    0.62
  -6   1  -8   14.43    1.06
   6  -1  -8   12.16    0.74
  -6   1  -9    1.77    0.54
   6  -1  -9    1.57    0.39
  -6   1 -10   23.63    1.39
   6  -1 -10   22.61    1.09
   6  -1 -11    1.94    0.44
   6  -1 -12   16.69    0.99
   6  -1 -13   14.46    0.95
   6  -1 -14    4.84    0.64
   6  -1 -14    6.79    0.62
   6  -1 -15   10.82    0.71
   6  -1 -15    9.47    0.84
   6  -1 -16    9.22    0.86
   6  -1 -17    1.65    0.56
   6  -1 -30   -0.09    0.75
   6  -1 -31    3.70    0.86
   6  -1 -32    6.33    1.02
   6  -1 -33   -0.09    0.65
   6   2 -34    5.06    0.96
   6  -2  34    6.27    0.99
   6   2 -33   -0.49    0.71
   6  -2  33    0.16    0.73
   6   2 -32    0.91    0.75
   6  -2  32    0.64    0.76
   6   2 -31    2.87    0.89
   6  -2  31    2.60    0.87
   6   2 -30    2.81    0.89
   6  -2  30    4.91    1.02
   6   2 -29    5.74    1.01
   6  -2  29    5.27    0.99
   6   2 -28    2.71    0.87
   6  -2  28    4.01    0.92
   6   2 -27    5.18    1.03
   6  -2  27    8.53    1.04
   6  -2  26   22.90    1.50
   6   2 -26   19.41    1.59
   6   2 -25    0.40    0.73
   6  -2  25    1.20    0.72
   6  -2  24   18.52    1.34
   6   2 -24   14.11    1.35
   6  -2  23   20.92    1.38
   6   2 -23   14.41    1.39
   6   2 -22    3.80    0.84
   6  -2  22    1.79    0.74
   6   2 -21    3.14    0.77
   6  -2  21    4.88    0.80
   6   2 -20    2.77    0.71
   6  -2  20    3.44    0.73
   6   2 -19    7.20    0.74
   6   2 -19    6.00    0.90
   6  -2  19    6.77    0.84
   6   2 -18   23.61    1.25
   6   2 -18   23.99    1.53
   6   2 -17   36.85    1.57
   6  -2  17   37.68    1.73
   6   2 -17   35.50    1.83
   6   2 -16   75.21    2.48
   6  -2  16   72.92    2.57
   6   2 -16   71.43    2.75
   6   2 -15   26.76    1.32
   6  -2  15   26.09    1.38
   6   2 -14    9.27    0.84
   6  -2  14   10.19    0.90
   6   2 -14   10.29    0.96
   6   2 -13   16.64    1.16
   6  -2  13   18.56    1.17
   6   2 -13   20.69    1.16
   6   2 -12  138.95    4.20
   6  -2  12  147.81    4.15
   6   2 -11   19.63    1.21
   6  -2  11   20.56    1.19
   6   2 -10   54.75    2.13
   6  -2  10   61.63    2.20
   6   2  -9   36.61    1.62
   6  -2   9   40.75    1.71
   6   2  -9   37.71    1.47
   6   2  -8   71.92    2.44
   6  -2   8   74.41    2.52
   6   2  -8   70.60    2.29
   6   2  -7    3.67    0.57
  -6  -2  -7    3.36    0.54
   6   2  -7    3.66    0.52
   6  -2   7    4.50    0.67
  -6  -2  -6   10.19    0.77
   6   2  -6    9.40    0.74
   6  -2   6    8.49    0.81
  -6  -2  -5   53.52    1.92
   6   2  -5   52.03    1.87
   6  -2   5   50.90    2.03
  -6  -2  -4  169.48    4.51
   6   2  -4  168.32    4.53
   6  -2   4  169.70    4.72
   6   2  -3  195.17    5.20
  -6  -2  -3  201.08    5.10
   6   2  -2  101.98    3.08
  -6  -2  -2  102.53    2.90
   6   2  -2   99.64    2.88
  -6  -2  -1   52.56    1.70
   6   2  -1   50.72    1.93
   6   2  -1   49.24    1.72
   6   2   0  224.21    5.86
   6   2   0  224.67    5.56
   6   2   1   51.26    1.72
  -6   2  -2  100.18    3.23
   6  -2  -2   98.48    2.74
   6   2   2  102.01    2.81
   6  -2  -3  193.81    4.80
  -6   2  -3  202.91    5.46
   6   2   3  195.84    4.89
  -6   2  -4  163.57    4.81
   6  -2  -4  170.84    4.17
   6   2   4  168.97    4.29
  -6   2  -5   53.90    2.16
   6  -2  -5   51.89    1.55
   6   2   5   50.32    1.68
  -6   2  -6    9.03    0.89
   6   2   6    8.33    0.62
  -6   2  -7    3.29    0.64
   6  -2  -7    3.08    0.39
  -6   2  -8   70.01    2.68
   6  -2  -8   70.96    2.07
  -6   2  -9   37.09    1.83
   6  -2  -9   36.26    1.33
   6  -2 -10   56.65    1.86
   6  -2 -11   19.87    1.00
   6  -2 -12  138.23    3.77
   6  -2 -13   18.41    1.02
   6  -2 -14    9.00    0.77
   6  -2 -15   24.29    1.27
   6  -2 -16   64.91    2.32
   6   2  31    2.09    0.87
   6  -2 -32   -0.52    0.65
   6   2  32    1.36    0.78
   6  -2 -33   -0.67    0.67
   6   2  33   -0.78    0.77
   6   2  34    4.13    0.89
   6  -3  34    0.96    0.75
   6   3 -33    3.57    0.73
   6   3 -33    3.18    0.84
   6  -3  33    3.90    0.88
   6   3 -32    0.21    0.75
   6  -3  32    0.08    0.73
   6   3 -31    1.05    0.76
   6  -3  31    1.30    0.80
   6   3 -30    8.78    1.26
   6  -3  30   14.20    1.31
   6   3 -29    2.70    0.97
   6  -3  29    4.81    0.96
   6   3 -28    3.24    0.96
   6  -3  28    4.39    0.91
   6   3 -27    6.86    1.11
   6  -3  27    9.71    1.10
   6   3 -26    4.56    0.98
   6  -3  26    5.56    0.92
   6   3 -25    7.82    1.12
   6  -3  25    5.88    0.96
   6  -3  24   15.29    1.23
   6   3 -24   12.98    1.34
   6   3 -23    3.49    0.87
   6  -3  23    4.01    0.85
   6   3 -22    5.54    0.96
   6  -3  22    5.81    0.87
   6   3 -21    5.48    0.96
   6  -3  21    7.63    0.90
   6   3 -20    6.13    0.96
   6  -3  20    6.97    0.86
   6   3 -19   52.33    1.99
   6  -3  19   55.39    2.18
   6   3 -19   49.41    2.36
   6   3 -18   73.85    2.51
   6  -3  18   74.24    2.63
   6   3 -18   71.02    2.90
   6   3 -17   96.54    3.04
   6  -3  17   97.50    3.13
   6   3 -17   90.80    3.37
   6   3 -16   35.94    1.62
   6  -3  16   35.75    1.65
   6   3 -16   30.70    1.74
   6   3 -15   72.45    2.48
   6  -3  15   72.81    2.52
   6   3 -14   89.28    2.89
   6  -3  14   93.71    2.96
   6   3 -13    3.64    0.68
   6  -3  13    3.65    0.66
   6   3 -13    3.90    0.69
   6   3 -12   28.75    1.55
   6  -3  12   32.77    1.52
   6   3 -11    7.07    0.81
   6  -3  11    8.55    0.81
   6   3 -10    6.25    0.74
   6  -3  10    6.18    0.73
   6   3 -10    5.36    0.62
   6   3  -9   11.57    0.94
   6  -3   9   12.25    0.94
   6   3  -9   13.01    0.88
   6   3  -8   53.81    2.10
   6   3  -8   56.38    2.00
   6  -3   8   56.42    2.12
   6   3  -7   57.63    2.05
   6  -3   7   57.11    2.15
   6   3  -6   20.67    1.12
   6  -3   6   19.90    1.19
  -6  -3  -5  135.48    3.67
   6   3  -5  127.96    3.75
   6  -3   5  129.62    3.86
  -6  -3  -4  137.29    3.67
   6   3  -4  131.19    3.84
   6  -3   4  132.59    3.94
  -6  -3  -3   43.01    1.52
   6   3  -3   41.06    1.71
   6   3  -2   75.08    2.58
  -6  -3  -2   80.18    2.29
   6   3  -1   76.61    2.60
   6   3  -1   75.69    2.39
   6   3   0   42.71    1.82
   6   3   0   44.36    1.65
   6   3   1   76.33    2.64
   6   3   1   76.44    2.38
  -6   3  -2   78.62    2.83
   6  -3  -2   81.01    2.22
   6   3   2   77.44    2.42
  -6   3  -3   41.76    1.90
   6   3   3   40.54    1.53
  -6   3  -4  135.24    4.09
   6   3   4  125.10    3.81
   6   3   4  131.03    3.54
  -6   3  -5  130.08    4.02
   6   3   5  125.52    3.75
   6   3   5  126.17    3.46
  -6   3  -6   18.66    1.29
   6   3   6   21.35    1.20
   6   3   6   18.62    0.98
  -6   3  -7   56.21    2.31
   6   3   7   51.44    2.02
   6   3   7   54.56    1.83
  -6   3  -8   55.25    2.36
   6   3   8   57.01    2.12
   6   3   9   11.78    0.92
   6   3  10    6.21    0.73
   6  -3 -11    7.86    0.69
   6   3  11    8.24    0.80
   6  -3 -12   31.70    1.39
   6   3  12   31.10    1.47
   6  -3 -12   28.18    1.22
   6  -3 -13    3.31    0.51
   6   3  13    4.44    0.67
   6   3  14   92.46    2.91
   6  -3 -14   84.96    2.67
   6   3  15   73.81    2.52
   6  -3 -15   67.99    2.31
   6   3  16   38.13    1.71
   6   3  17   92.89    3.04
   6   3  18   77.39    2.71
   6   3  19   54.11    2.16
   6   3  20    6.77    0.87
   6   3  21    8.04    0.94
   6   3  22    6.23    0.90
   6   3  23    3.49    0.80
   6   3  24   13.72    1.20
   6   3  25    7.31    0.98
   6   3  26    6.20    0.95
   6   3  27   11.69    1.14
   6   3  28    4.74    0.90
   6   3  29    3.18    0.85
   6   3  30   12.57    1.27
   6   3  31    0.57    0.80
   6   3  32   -0.08    0.72
   6   3  33    3.94    0.88
   6   3  34    1.46    0.74
   6   4 -34    0.25    0.83
   6   4 -33    0.60    0.74
   6  -4  33    0.37    0.75
   6   4 -32    0.10    0.73
   6  -4  32    0.53    0.78
   6   4 -31    0.71    0.61
   6   4 -31    1.17    0.82
   6  -4  31    1.25    0.78
   6   4 -30    1.44    0.66
   6   4 -30    0.98    0.79
   6  -4  30    1.51    0.81
   6   4 -29    2.65    0.91
   6  -4  29    2.54    0.86
   6   4 -28    6.54    1.10
   6  -4  28    8.51    1.07
   6   4 -27    2.65    0.88
   6  -4  27    2.32    0.78
   6   4 -26    1.32    0.70
   6  -4  26    1.42    0.76
   6   4 -25    9.42    1.20
   6  -4  25    9.59    1.06
   6  -4  24   17.51    1.31
   6   4 -24   15.01    1.45
   6  -4  23   11.73    1.14
   6   4 -23   12.51    1.34
   6   4 -22    7.33    1.06
   6  -4  22    8.09    0.95
   6   4 -21    4.55    0.91
   6  -4  21    4.73    0.81
   6   4 -20    0.48    0.66
   6   4 -20    0.80    0.54
   6  -4  20    0.06    0.61
   6   4 -19   18.94    1.19
   6  -4  19   20.66    1.29
   6   4 -18    8.82    0.89
   6  -4  18   11.32    0.98
   6   4 -18   10.54    1.11
   6   4 -17    6.96    0.96
   6  -4  17    8.23    0.88
   6   4 -17    7.07    0.81
   6   4 -16   12.02    1.16
   6   4 -16   15.57    1.08
   6  -4  16   13.52    1.06
   6   4 -15    5.76    0.85
   6  -4  15    5.64    0.72
   6   4 -15    4.18    0.71
   6   4 -14    7.13    0.82
   6   4 -14    6.50    0.86
   6  -4  14    4.39    0.68
   6   4 -13    2.41    0.65
   6  -4  13    1.38    0.57
   6   4 -13    2.06    0.57
   6   4 -12   16.67    1.20
   6  -4  12   16.71    1.08
   6   4 -12   17.40    1.17
   6   4 -11    3.71    0.69
   6  -4  11    4.46    0.67
   6   4 -10   51.64    2.18
   6  -4  10   52.89    2.04
   6   4 -10   58.16    2.07
   6   4  -9   45.97    2.01
   6  -4   9   49.26    1.94
   6   4  -9   49.83    1.91
   6   4  -8   50.33    2.10
   6   4  -8   53.92    2.02
   6  -4   8   52.30    2.02
   6   4  -7    3.12    0.58
   6  -4   7    3.67    0.61
   6   4  -6   13.47    0.96
   6  -4   6   13.72    0.99
   6   4  -5   31.78    1.52
   6  -4   5   33.59    1.56
   6   4  -4   32.82    1.55
   6  -4   4   34.32    1.58
   6   4  -3   24.16    1.30
   6  -4   3   21.81    1.25
   6   4  -2   19.28    1.17
   6   4  -2   19.08    1.09
   6   4  -1    8.73    0.84
   6   4  -1    9.02    0.75
   6   4   0    0.81    0.51
   6   4   0    1.06    0.42
   6   4   1    8.25    0.84
   6   4   1   10.05    0.78
   6   4   2   17.70    1.19
   6   4   2   20.49    1.07
  -6   4  -3   22.68    1.41
   6   4   3   24.11    1.29
   6   4   3   22.02    1.12
  -6   4  -4   31.59    1.68
   6   4   4   30.39    1.50
   6   4   4   32.24    1.37
  -6   4  -5   31.45    1.69
   6   4   5   32.10    1.49
   6   4   5   29.54    1.32
  -6   4  -6   14.69    1.15
   6   4   6   14.53    1.02
   6   4   6   13.68    0.88
  -6   4  -7    2.36    0.61
   6   4   7    2.69    0.56
   6   4   7    3.63    0.53
   6   4   8   51.11    1.97
   6   4   9   43.93    1.79
   6   4  10   58.09    2.15
   6  -4 -10   57.38    2.14
   6   4  11    3.69    0.63
   6  -4 -11    2.78    0.52
   6   4  12   14.91    1.03
   6  -4 -12   16.26    1.05
   6   4  13    1.96    0.55
   6   4  14    6.87    0.78
   6   4  15    6.13    0.76
   6   4  16   13.73    1.03
   6   4  17    8.10    0.87
   6   4  18    9.45    0.93
   6   4  19   19.11    1.22
   6   4  20    0.31    0.63
   6   4  21    5.00    0.81
   6   4  22    6.53    0.89
   6   4  23   13.72    1.13
   6   4  24   16.18    1.26
   6   4  25   10.23    1.05
   6   4  26    0.30    0.70
   6   4  27    3.11    0.86
   6   4  28    6.35    0.98
   6   4  29    3.30    0.88
   6   4  30    0.81    0.78
   6   4  31    3.32    0.88
   6   4  32    0.68    0.70
   6   4  33    0.66    0.75
   6   5 -33    1.71    0.83
   6   5 -33    2.40    0.84
   6  -5  33    2.39    0.77
   6   5 -32    1.05    0.80
   6  -5  32    0.44    0.75
   6   5 -31    3.45    0.91
   6  -5  31    4.70    0.94
   6   5 -30    0.99    0.83
   6  -5  30    2.78    0.82
   6   5 -29    7.71    1.20
   6  -5  29    9.37    1.09
   6   5 -28    2.48    0.94
   6  -5  28    2.12    0.80
   6   5 -27   14.15    1.08
   6   5 -27   13.32    1.42
   6  -5  27   16.25    1.29
   6   5 -26    0.79    0.82
   6  -5  26    0.94    0.73
   6   5 -25    2.67    0.91
   6  -5  25    5.10    0.90
   6   5 -24    1.21    0.82
   6  -5  24    0.63    0.69
   6   5 -23    8.85    1.18
   6  -5  23    9.69    1.01
   6   5 -22    1.69    0.82
   6  -5  22    1.06    0.69
   6   5 -21   12.06    1.32
   6  -5  21   16.29    1.19
   6   5 -20   21.84    1.69
   6  -5  20   27.94    1.50
   6   5 -19   16.75    1.43
   6   5 -19   19.53    1.27
   6  -5  19   20.08    1.27
   6   5 -18    4.66    0.90
   6  -5  18    5.33    0.79
   6   5 -18    5.35    0.78
   6   5 -17   21.79    1.31
   6   5 -17   18.83    1.46
   6  -5  17   21.25    1.27
   6   5 -16    1.61    0.69
   6  -5  16    1.58    0.59
   6   5 -16    0.92    0.56
   6   5 -15    6.74    0.94
   6   5 -15    8.50    0.89
   6  -5  15    7.58    0.81
   6   5 -14    0.92    0.59
   6  -5  14    1.20    0.54
   6   5 -14    1.21    0.58
   6   5 -13    8.08    0.97
   6   5 -13    9.37    0.92
   6  -5  13    7.83    0.80
   6   5 -12   13.39    1.14
   6  -5  12   14.33    1.01
   6   5 -12   13.90    1.09
   6   5 -11   43.84    2.04
   6  -5  11   44.32    1.80
   6   5 -10   17.78    1.27
   6  -5  10   18.36    1.12
   6   5 -10   18.40    1.18
   6   5  -9   36.94    1.81
   6   5  -9   38.77    1.72
   6  -5   9   40.63    1.70
   6   5  -8    2.69    0.58
   6  -5   8    1.59    0.53
   6   5  -7   76.72    2.70
   6  -5   7   80.53    2.64
   6   5  -6    7.31    0.79
   6  -5   6    7.84    0.77
   6   5  -5   16.68    1.13
   6  -5   5   16.17    1.07
   6   5  -4   12.82    1.02
   6  -5   4   13.30    0.97
   6   5  -3   26.60    1.44
   6  -5   3   26.58    1.37
   6   5  -2   23.13    1.35
   6   5  -2   22.10    1.24
   6   5  -1   32.26    1.60
   6   5  -1   28.07    1.40
   6   5   0    0.60    0.49
   6   5   0    0.71    0.42
   6   5   1   29.21    1.59
   6   5   1   30.81    1.42
   6   5   2   21.86    1.36
   6   5   2   22.44    1.20
   6   5   3   29.27    1.58
   6   5   3   26.89    1.37
   6   5   3   27.52    1.34
  -6   5  -4   13.21    1.13
   6   5   4   13.02    1.08
   6   5   4   12.48    0.94
   6   5   4   12.96    0.91
  -6   5  -5   16.81    1.28
   6   5   5   15.14    1.01
   6   5   5   15.77    1.00
   6   5   6    6.22    0.71
   6   5   6    6.79    0.70
   6   5   7   81.91    2.64
   6   5   7   77.44    2.57
   6   5   8    1.81    0.54
   6   5   8    2.36    0.54
   6   5   9   38.19    1.61
   6  -5  -9   35.14    1.67
   6   5  10   18.17    1.09
   6  -5 -10   18.65    1.17
   6   5  11   43.70    1.76
   6  -5 -11   41.17    1.82
   6   5  12   14.68    1.00
   6  -5 -12   13.67    1.02
   6   5  13    7.62    0.78
   6   5  14   -0.05    0.49
   6   5  15    9.23    0.86
   6   5  16    1.94    0.61
   6   5  17   18.90    1.21
   6   5  18    5.94    0.78
   6   5  19   19.20    1.22
   6   5  20   26.57    1.47
   6   5  21   13.05    1.08
   6   5  22    0.98    0.68
   6   5  23    9.27    0.99
   6   5  24    1.80    0.71
   6   5  25    3.25    0.84
   6   5  26    2.07    0.76
   6   5  27   14.70    1.26
   6   5  28    2.17    0.79
   6   5  29    9.78    1.14
   6   5  30    2.59    0.88
   6   5  31    5.07    0.88
   6   5  32    0.43    0.68
   6   5  33    2.15    0.75
   6   6 -32    9.36    1.22
   6  -6  32   11.20    1.12
   6   6 -31   -0.43    0.74
   6  -6  31    0.14    0.71
   6   6 -30   -0.11    0.77
   6  -6  30   -0.22    0.75
   6   6 -29    0.68    0.79
   6  -6  29    0.91    0.74
   6   6 -28    2.06    0.91
   6  -6  28    1.34    0.77
   6   6 -27    5.06    1.04
   6  -6  27    5.34    0.88
   6   6 -26    3.79    0.94
   6  -6  26    3.64    0.83
   6   6 -25    0.23    0.75
   6  -6  25   -0.21    0.67
   6   6 -24   49.05    2.63
   6  -6  24   54.02    2.25
   6   6 -23   22.46    1.77
   6  -6  23   22.21    1.44
   6   6 -22   48.61    2.55
   6  -6  22   47.54    2.07
   6   6 -21   18.31    1.57
   6  -6  21   16.89    1.24
   6   6 -20   64.60    2.92
   6  -6  20   64.08    2.41
   6   6 -19   21.87    1.66
   6   6 -19   24.69    1.46
   6  -6  19   22.06    1.35
   6   6 -18   20.00    1.59
   6   6 -18   22.39    1.40
   6  -6  18   24.13    1.33
   6   6 -17   -0.10    0.69
   6  -6  17    0.56    0.56
   6   6 -17    0.21    0.57
   6   6 -16    5.38    0.90
   6  -6  16    6.47    0.77
   6   6 -16    6.40    0.86
   6   6 -15   18.37    1.43
   6   6 -15   17.13    1.25
   6  -6  15   18.42    1.16
   6   6 -14   17.21    1.25
   6   6 -14   15.89    1.32
   6  -6  14   15.76    1.06
   6   6 -13   20.72    1.47
   6   6 -13   22.69    1.42
   6  -6  13   21.44    1.21
   6   6 -12   11.99    1.14
   6   6 -12   11.85    1.08
   6  -6  12   13.22    0.96
   6   6 -11   28.58    1.69
   6  -6  11   31.24    1.47
   6   6 -11   32.80    1.72
   6   6 -10   57.47    2.49
   6   6 -10   61.86    2.36
   6  -6  10   59.13    2.15
   6   6  -9    0.26    0.51
   6  -6   9   -0.56    0.56
   6   6  -8  158.61    4.61
   6  -6   8  155.35    4.34
   6   6  -7   21.10    1.31
   6  -6   7   21.27    1.19
   6   6  -6   52.79    2.14
   6  -6   6   48.07    1.91
   6   6  -5    7.24    0.86
   6  -6   5    9.16    0.83
   6   6  -4   24.06    1.43
   6  -6   4   27.07    1.35
   6   6  -3    0.56    0.55
   6  -6   3    0.22    0.46
   6   6  -2    4.20    0.71
   6  -6   2    5.61    0.70
   6   6  -2    5.27    0.71
   6   6  -1   56.89    2.34
   6   6  -1   55.94    2.18
   6   6   0   91.37    3.17
   6   6   0   88.89    2.97
   6   6   1   57.74    2.37
   6   6   1   57.81    2.20
   6   6   2    5.57    0.81
   6   6   2    5.52    0.68
   6   6   2    5.45    0.71
   6   6   3    1.00    0.59
   6   6   3    0.42    0.44
   6   6   3   -0.17    0.46
   6   6   4   24.83    1.51
   6   6   4   22.73    1.23
   6   6   4   25.21    1.31
   6   6   5    9.70    0.99
   6   6   5    9.67    0.82
   6   6   5    8.56    0.81
   6   6   6   45.58    1.81
   6   6   6   46.27    1.88
   6   6   7   18.50    1.11
   6   6   7   17.19    1.11
   6   6   8  148.77    4.11
   6   6   8  145.76    4.20
   6   6   9    1.15    0.51
   6   6  10   62.67    2.20
   6   6  11   30.77    1.43
   6   6  12   12.06    0.93
   6   6  13   19.53    1.15
   6   6  14   16.15    1.04
   6   6  15   18.09    1.14
  -6   6 -15   18.77    1.00
   6   6  16    4.88    0.70
   6   6  17   -0.11    0.55
   6   6  18   26.40    1.40
   6   6  19   21.61    1.31
   6   6  20   66.49    2.47
   6   6  21   17.43    1.23
   6   6  22   49.46    2.10
   6   6  23   20.90    1.36
   6   6  24   53.38    2.22
   6   6  25    0.27    0.69
   6   6  26    3.86    0.86
   6   6  27    5.17    0.91
   6   6  28    1.46    0.77
   6   6  29    1.11    0.73
   6   6  30    0.36    0.72
   6   6  31    0.76    0.68
   6   6  32   10.39    1.06
   6   7 -32    0.34    0.80
   6   7 -32    1.43    0.80
   6   7 -31    8.64    1.16
   6  -7  31   10.33    1.04
   6   7 -30    7.59    1.13
   6  -7  30    5.68    0.90
   6   7 -29    2.48    0.89
   6  -7  29    1.80    0.76
   6   7 -28    0.80    0.83
   6  -7  28    0.72    0.73
   6   7 -27    7.78    1.17
   6  -7  27    9.86    1.07
   6   7 -26    0.93    0.81
   6  -7  26    1.16    0.71
   6   7 -25    0.23    0.69
   6  -7  25    0.79    0.74
   6   7 -24   15.07    1.48
   6  -7  24   14.94    1.18
   6   7 -23    5.86    1.07
   6  -7  23    6.95    0.91
   6   7 -22   37.83    2.27
   6  -7  22   39.58    1.84
   6   7 -21   33.68    2.14
   6  -7  21   37.67    1.77
   6   7 -20   17.28    1.57
   6  -7  20   18.95    1.23
   6   7 -19   18.55    1.35
   6   7 -19   17.00    1.52
   6  -7  19   17.22    1.18
   6   7 -18   65.78    2.99
   6   7 -18   68.71    2.68
   6  -7  18   71.51    2.49
   6   7 -17   22.83    1.68
   6   7 -17   23.68    1.48
   6  -7  17   22.80    1.31
   6   7 -16    9.42    1.00
   6   7 -16    9.00    1.11
   6  -7  16    9.95    0.90
   6   7 -15   22.31    1.41
   6   7 -15   19.79    1.53
   6  -7  15   19.52    1.19
   6   7 -14   15.99    1.36
   6   7 -14   15.76    1.23
   6  -7  14   15.90    1.06
   6   7 -13    6.78    1.00
   6  -7  13    6.80    0.75
   6   7 -13    7.82    0.96
   6   7 -12   17.70    1.32
   6   7 -12   15.54    1.34
   6  -7  12   16.47    1.04
   6   7 -11   21.61    1.44
   6  -7  11   22.80    1.21
   6   7 -10   24.80    1.51
   6  -7  10   20.52    1.18
   6   7  -9   24.42    1.46
   6  -7   9   23.62    1.25
   6   7  -8   74.53    2.77
   6  -7   8   72.42    2.45
   6   7  -7   57.31    2.37
   6  -7   7   57.78    2.09
   6   7  -6  170.66    4.91
   6  -7   6  158.99    4.46
   6   7  -5   66.54    2.62
   6  -7   5   66.55    2.31
   6   7  -4   10.14    1.01
   6  -7   4    9.71    0.84
   6   7  -3    4.64    0.78
   6  -7   3    5.47    0.70
   6   7  -3    6.50    0.81
   6   7  -2   44.14    2.07
   6  -7   2   46.39    1.85
   6   7  -2   47.91    2.04
   6   7  -1    3.57    0.72
   6  -7   1    3.32    0.60
   6   7  -1    4.59    0.75
   6   7   0    5.80    0.81
   6   7   0    3.78    0.67
   6   7   1    2.53    0.67
   6   7   1    3.74    0.59
   6   7   1    3.98    0.70
   6   7   2   45.14    2.12
   6   7   2   48.64    1.86
   6   7   2   47.31    2.01
   6   7   3    4.90    0.79
   6   7   3    5.27    0.67
   6   7   3    4.39    0.70
   6   7   4    9.22    1.04
   6   7   4   10.95    0.85
   6   7   4   12.06    0.97
   6   7   5   67.93    2.77
   6   7   5   67.48    2.30
   6   7   5   68.70    2.50
   6   7   6  163.31    5.01
   6   7   6  159.22    4.36
   6   7   6  158.25    4.58
   6   7   7   53.19    2.45
   6   7   7   57.59    2.03
   6   7   7   54.55    2.18
   6   7   8   68.73    2.32
   6   7   8   69.78    2.53
   6   7   9   22.35    1.19
   6   7  10   22.66    1.19
   6   7  11   25.28    1.26
   6   7  12   16.59    1.03
  -6   7 -13    6.47    0.62
   6   7  13    6.75    0.72
   6   7  14   15.74    1.03
  -6   7 -14   15.30    0.90
   6   7  15   19.44    1.14
  -6   7 -15   18.41    1.05
  -6   7 -16    8.28    0.77
   6   7  16    8.80    0.83
   6   7  17   25.00    1.29
  -6   7 -17   18.73    1.14
   6   7  18   68.45    2.40
  -6   7 -18   64.20    2.35
   6   7  19   17.59    1.20
   6   7  20   15.36    1.12
   6   7  21   34.40    1.67
   6   7  22   39.57    1.83
   6   7  23    6.87    0.88
   6   7  24   14.48    1.14
   6   7  25    1.03    0.64
   6   7  26    0.33    0.66
   6   7  27    9.53    1.06
   6   7  28    1.84    0.80
   6   7  29    2.23    0.73
   6   7  30    7.54    0.95
   6   7  31    9.52    1.00
   6   8 -31    4.41    0.92
   6   8 -31    2.83    0.92
   6   8 -30    2.14    0.84
   6   8 -30    2.07    0.87
   6  -8  30    2.36    0.74
   6   8 -29    0.56    0.76
   6  -8  29   -0.45    0.64
   6   8 -28   -1.15    0.94
   6  -8  28    0.20    0.65
   6   8 -27    4.19    1.08
   6  -8  27    4.83    0.88
   6   8 -26   13.27    1.46
   6  -8  26   12.26    1.13
   6   8 -25   10.03    1.31
   6  -8  25   10.50    1.03
   6   8 -24    1.53    0.86
   6  -8  24    1.24    0.68
   6   8 -23   11.62    1.41
   6  -8  23    9.87    0.99
   6   8 -22    6.40    1.11
   6  -8  22    5.83    0.85
   6   8 -21    0.80    0.76
   6  -8  21    2.93    0.67
   6   8 -20    2.38    0.89
   6  -8  20    1.42    0.63
   6   8 -19    2.68    0.88
   6  -8  19    1.38    0.62
   6   8 -19    1.10    0.71
   6   8 -18   15.45    1.44
   6   8 -18   15.21    1.24
   6  -8  18   14.95    1.05
   6   8 -17    5.06    1.03
   6  -8  17    6.28    0.75
   6   8 -17    6.68    0.91
   6   8 -16    5.38    1.00
   6  -8  16    6.27    0.76
   6   8 -16    5.23    0.87
   6   8 -15   -0.10    0.69
   6  -8  15    1.29    0.53
   6   8 -15    0.80    0.63
   6   8 -14    6.46    1.02
   6  -8  14    7.74    0.76
   6   8 -14    8.47    1.00
   6   8 -13    5.23    0.93
   6  -8  13    6.72    0.71
   6   8 -13    7.55    0.96
   6   8 -12   28.87    1.67
   6  -8  12   23.44    1.23
   6   8 -11    2.43    0.73
   6  -8  11    2.26    0.55
   6   8 -10    4.77    0.84
   6  -8  10    4.82    0.66
   6   8  -9   25.57    1.62
   6  -8   9   28.42    1.33
   6   8  -8    1.09    0.63
   6  -8   8    1.78    0.55
   6   8  -7   28.56    1.65
   6  -8   7   26.38    1.28
   6   8  -6   21.41    1.43
   6  -8   6   22.66    1.17
   6   8  -5   10.07    1.03
   6  -8   5    9.22    0.80
   6   8  -4    0.97    0.61
   6  -8   4    0.92    0.46
   6   8  -3    9.50    1.03
   6  -8   3   10.20    0.82
   6   8  -3   11.63    1.06
   6  -8   2    3.81    0.61
   6   8  -2    4.25    0.73
   6   8  -1    0.92    0.58
   6  -8   1    1.51    0.51
   6   8  -1    1.55    0.62
   6   8   0   17.70    1.34
   6  -8   0   18.08    1.09
   6   8   0   19.16    1.09
   6   8   0   18.83    1.29
   6   8   1    1.02    0.58
   6   8   1    1.99    0.53
   6   8   1    0.93    0.53
   6   8   2    5.74    0.86
   6   8   2    4.81    0.62
   6   8   2    4.81    0.79
   6   8   3    9.53    1.04
   6   8   3   10.27    0.80
   6   8   3   11.62    1.01
   6   8   4    0.61    0.56
   6   8   4    0.70    0.46
   6   8   4    1.23    0.59
   6   8   5    9.01    1.02
   6   8   5   11.08    0.81
   6   8   5    8.13    0.89
   6   8   6   22.51    1.55
   6   8   6   22.97    1.16
   6   8   6   23.16    1.38
   6   8   7   23.70    1.61
   6   8   7   26.67    1.24
   6   8   7   23.68    1.39
   6   8   8    1.21    0.66
   6   8   8    1.25    0.49
   6   8   8    1.59    0.56
   6   8   9   25.73    1.68
   6   8   9   25.67    1.23
   6   8   9   24.85    1.45
   6   8  10    5.43    0.90
   6   8  10    5.06    0.64
  -6   8 -10    5.65    0.55
   6   8  11    2.39    0.53
  -6   8 -11    1.90    0.47
  -6   8 -12   22.48    1.10
   6   8  12   23.05    1.18
   6   8  13    4.77    0.65
  -6   8 -13    5.82    0.63
   6   8  14    8.17    0.77
  -6   8 -14    7.25    0.69
   6   8  15    1.06    0.51
  -6   8 -15    0.20    0.45
  -6   8 -16    6.38    0.74
   6   8  16    5.23    0.68
   6   8  17    6.44    0.76
  -6   8 -17    6.29    0.74
  -6   8 -18   12.79    1.00
   6   8  18   14.31    1.01
   6   8  19    0.75    0.54
  -6   8 -19    1.07    0.58
   6   8  20    2.71    0.65
   6   8  21    2.05    0.66
   6   8  22    5.27    0.76
   6   8  23   10.72    1.01
   6   8  24    0.97    0.62
   6   8  25   10.33    0.99
   6   8  26   15.65    1.18
   6   8  27    5.10    0.83
   6   8  28   -0.25    0.67
   6   8  29    0.31    0.66
   6   8  30    2.31    0.73
   6   9 -30    2.11    0.80
   6   9 -30    2.45    0.81
   6   9 -29    1.75    0.81
   6   9 -29    1.55    0.91
   6   9 -28    0.57    0.80
   6  -9  28    1.36    0.64
   6   9 -27    0.70    0.79
   6  -9  27    3.06    0.71
   6   9 -26    1.41    0.85
   6  -9  26    1.30    0.71
   6   9 -25    0.12    0.76
   6  -9  25    0.06    0.62
   6   9 -24    1.43    0.87
   6  -9  24    2.66    0.70
   6   9 -23    0.12    0.78
   6  -9  23    1.15    0.63
   6   9 -22    2.50    0.89
   6  -9  22    4.57    0.71
   6   9 -21    2.01    0.87
   6  -9  21    2.33    0.63
   6   9 -20   11.96    1.37
   6  -9  20   13.57    1.00
   6   9 -19    8.70    1.26
   6  -9  19   11.24    0.93
   6   9 -18    7.32    1.09
   6  -9  18    8.11    0.83
   6   9 -18    8.44    1.05
   6   9 -17   13.26    1.40
   6   9 -17   11.65    1.16
   6  -9  17   13.12    0.96
   6   9 -16   15.24    1.50
   6   9 -16   16.18    1.34
   6  -9  16   16.40    1.04
   6   9 -15    1.42    0.77
   6  -9  15    1.65    0.54
   6   9 -14    4.63    0.89
   6  -9  14    4.93    0.68
   6   9 -13    6.54    0.97
   6  -9  13    6.52    0.70
   6   9 -12    5.90    0.93
   6  -9  12    6.27    0.67
   6   9 -11    3.25    0.78
   6  -9  11    2.95    0.54
   6   9 -10    6.90    0.96
   6  -9  10    5.32    0.65
   6   9  -9    6.77    0.97
   6  -9   9    5.95    0.65
   6   9  -8    2.69    0.75
   6   9  -8    1.04    0.64
   6  -9   8    2.57    0.55
   6   9  -7    1.10    0.64
   6   9  -7    1.81    0.68
   6  -9   7    1.09    0.47
   6   9  -6    3.74    0.83
   6  -9   6    2.64    0.53
   6   9  -5   11.76    1.15
   6  -9   5    9.51    0.79
   6   9  -4    8.98    1.05
   6  -9   4    8.19    0.75
   6   9  -4    8.46    1.00
   6   9  -3   29.22    1.75
   6  -9   3   28.54    1.34
   6   9  -3   32.53    1.77
   6   9  -2    4.33    0.82
   6  -9   2    4.38    0.61
   6   9  -2    4.70    0.79
   6   9  -1    0.53    0.63
   6   9  -1    1.88    0.51
   6  -9   1    1.55    0.52
   6   9  -1    1.43    0.66
   6   9   0   43.31    2.18
   6  -9   0   48.20    1.82
   6   9   0   43.78    1.71
   6   9   0   44.99    2.10
   6   9   1    1.00    0.66
   6  -9  -1    0.97    0.50
   6   9   1    1.65    0.51
   6   9   1    1.85    0.63
   6   9   2    4.29    0.80
   6   9   2    3.68    0.57
   6   9   2    4.84    0.78
   6   9   3   28.28    1.75
   6   9   3   28.54    1.29
   6   9   3   33.21    1.72
   6   9   4    8.26    1.04
   6   9   4    8.29    0.71
   6   9   4    8.21    0.93
   6   9   5    8.14    1.05
   6   9   5    8.52    0.71
   6   9   5    9.40    0.95
  -6   9  -5    8.93    0.61
   6   9   6    1.71    0.70
   6   9   6    2.62    0.54
  -6   9  -6    2.37    0.40
   6   9   6    3.33    0.69
   6   9   7    1.83    0.73
   6   9   7    1.57    0.45
  -6   9  -7    1.53    0.40
   6   9   7    2.58    0.70
   6   9   8    1.57    0.69
   6   9   8    1.16    0.47
   6   9   8    2.79    0.69
  -6   9  -8    2.08    0.44
   6   9   9    6.95    1.00
   6   9   9    7.27    0.68
  -6   9  -9    6.39    0.60
   6   9   9    5.89    0.83
   6   9  10    6.06    0.63
  -6   9 -10    6.22    0.62
   6   9  11    3.32    0.55
  -6   9 -11    1.96    0.47
   6   9  12    5.87    0.65
  -6   9 -12    4.11    0.57
   6   9  13    5.74    0.65
  -6   9 -13    5.23    0.66
   6   9  14    3.81    0.62
  -6   9 -14    3.56    0.61
   6   9  15    1.50    0.52
  -6   9 -15    1.01    0.50
  -6   9 -16   17.57    1.10
   6   9  16   16.44    1.03
   6   9  17   13.32    0.95
  -6   9 -17   10.38    0.90
  -6   9 -18    8.50    0.87
   6   9  18    8.98    0.82
  -6   9 -19    9.04    0.91
   6   9  19   11.19    0.92
   6   9  20   13.50    1.00
   6   9  21    2.15    0.62
   6   9  22    3.93    0.71
   6   9  23    0.28    0.59
   6   9  24    1.27    0.69
   6   9  25    1.08    0.61
   6   9  26    1.61    0.62
   6   9  27    2.03    0.68
   6   9  28   -0.06    0.58
   6   9  29    1.23    0.62
   6  10 -30    2.78    0.90
   6  10 -29    4.37    0.94
   6  10 -29    3.11    0.98
   6  10 -28    0.32    0.76
   6  10 -28    1.45    0.85
   6  10 -27    0.32    0.73
   6  10 -27    0.92    0.88
   6  10 -26   -0.35    0.83
   6  10 -25    0.59    0.84
   6  10 -24    3.12    0.99
   6  10 -23    2.54    0.93
   6  10 -22    0.60    0.83
   6  10 -21    0.72    0.78
   6 -10  21    1.42    0.57
   6  10 -20    3.72    0.99
   6 -10  20    5.39    0.71
   6  10 -19    0.36    0.82
   6 -10  19    1.13    0.58
   6 -10  18    0.86    0.53
   6 -10  17    3.38    0.63
   6  10 -17    3.22    0.85
   6 -10  16    1.76    0.54
   6  10 -16    3.05    0.82
   6 -10  15    3.70    0.58
   6  10 -15    3.23    0.83
   6 -10  14    0.04    0.50
   6  10 -14   -0.09    0.69
   6 -10  13    3.38    0.57
   6  10 -13    2.29    0.79
   6  10 -12   28.35    1.75
   6 -10  12   27.41    1.25
   6 -10  11    5.24    0.64
   6  10 -11    7.13    1.02
   6 -10  10    2.45    0.52
   6  10 -10    1.34    0.71
   6 -10   9    1.86    0.50
   6  10  -9    2.13    0.77
   6  10  -8    9.85    1.14
   6  10  -8    9.79    1.09
   6 -10   8    9.37    0.73
   6  10  -7    7.02    0.97
   6  10  -7    7.36    0.99
   6 -10   7    5.95    0.65
   6  10  -6   10.94    1.14
   6  10  -6   10.69    1.14
   6 -10   6   10.20    0.76
   6  10  -5    0.27    0.60
   6 -10   5    0.40    0.42
   6  10  -5   -0.09    0.65
   6  10  -4    6.72    0.96
   6 -10   4    5.42    0.63
   6  10  -4    6.68    0.95
   6  10  -3   18.22    1.43
   6  10  -3   16.99    1.03
   6 -10   3   18.65    1.01
   6  10  -3   19.13    1.40
   6  10  -2    9.05    1.06
   6  10  -2    8.37    0.74
   6 -10   2    9.56    0.76
   6  10  -2    9.15    1.06
   6  10  -1   10.67    1.15
   6 -10   1   11.56    0.82
   6  10  -1   11.16    1.13
   6  10   0   -0.29    0.70
   6 -10   0    0.27    0.43
   6  10   0    0.88    0.46
  -6  10   0    0.30    0.34
   6  10   0    0.67    0.63
   6  10   1   10.06    1.12
   6 -10  -1    9.17    0.77
   6  10   1    8.96    0.72
  -6  10  -1    9.93    0.65
   6  10   1    9.14    1.01
   6  10   2    9.95    1.11
   6 -10  -2    8.52    0.76
   6  10   2    9.09    0.71
  -6  10  -2    9.37    0.65
   6  10   2    8.94    0.98
   6  10   3   16.78    1.41
   6  10   3   18.90    0.98
   6  10   3   18.07    1.36
  -6  10  -3   17.00    0.86
   6  10   4    5.88    0.94
   6  10   4    5.45    0.61
   6  10   4    5.00    0.82
  -6  10  -4    6.47    0.55
   6  10   5    0.59    0.68
   6  10   5    0.23    0.38
  -6  10  -5   -0.32    0.39
   6  10   5    0.08    0.66
   6  10   6   12.65    1.25
   6  10   6    9.93    0.72
   6  10   6   10.88    1.05
  -6  10  -6   10.40    0.72
   6  10   7    5.43    0.96
   6  10   7    6.21    0.62
   6  10   7    6.78    0.94
  -6  10  -7    6.55    0.62
   6  10   8    8.21    0.70
   6  10   8    9.61    1.03
  -6  10  -8    7.38    0.65
   6  10   9    2.89    0.49
   6  10   9    3.66    0.78
  -6  10  -9    3.00    0.50
   6  10  10    1.88    0.47
  -6  10 -10    0.73    0.44
   6  10  11    5.04    0.61
  -6  10 -11    4.66    0.63
   6  10  12   27.35    1.22
  -6  10 -12   26.44    1.31
   6  10  13    3.11    0.90
   6  10  13    2.55    0.53
  -6  10 -13    2.20    0.55
   6  10  14    0.22    0.72
   6  10  14    0.08    0.44
  -6  10 -14    0.27    0.49
   6  10  15    1.74    0.84
   6  10  15    3.08    0.57
  -6  10 -15    2.14    0.57
   6  10  16    2.62    0.88
   6  10  16    1.21    0.50
  -6  10 -16    2.28    0.58
   6  10  17    3.88    0.63
  -6  10 -17    3.49    0.66
   6  10  18    1.56    0.52
   6  10  18    0.44    0.73
   6  10  19   -0.05    0.53
   6  10  19    0.44    0.69
   6  10  20    5.28    0.68
   6  10  20    4.15    0.98
   6  10  21    1.82    0.58
   6  10  21    2.83    0.92
   6  10  22    1.62    0.57
   6  10  22    1.83    0.81
   6  10  23    1.63    0.60
   6  10  23    1.59    0.80
   6  10  24    5.88    0.76
   6  10  24    4.06    0.98
   6  10  25    2.86    0.65
   6  10  25    2.44    0.85
   6  10  26   -0.10    0.55
   6  10  26    0.59    0.73
   6  10  27    0.77    0.55
   6  10  27    0.48    0.69
   6  10  28    0.18    0.71
   6  10  29    3.78    0.84
   6  11 -28    4.67    0.92
   6  11 -27    4.51    0.89
   6  11 -26    2.74    0.83
   6  11 -25   -0.15    0.71
   6  11 -17    8.51    1.11
   6  11 -16    1.72    0.74
   6  11 -15    7.81    1.04
   6  11 -14   36.99    2.07
   6  11 -13    6.10    0.98
   6  11 -12    8.12    1.09
   6  11 -11    5.50    1.04
   6  11 -10   61.13    2.70
   6  11  -9    7.55    1.05
   6  11  -8   14.98    1.34
   6  11  -7   24.51    1.66
   6  11  -7   22.54    1.62
   6  11  -6   65.10    2.79
   6  11  -6   57.00    2.67
   6  11  -5   41.07    2.20
   6  11  -5   38.54    2.13
   6  11  -4    5.28    0.64
   6  11  -4    4.47    0.96
   6  11  -3  100.10    3.69
   6  11  -3   96.07    2.81
   6  11  -3   91.77    3.53
   6  11  -2  166.06    5.23
   6  11  -2  158.66    4.20
   6  11  -2  159.67    5.07
   6  11  -1    4.74    1.03
   6  11  -1    6.21    0.65
   6  11  -1    6.54    1.04
   6  11   0   39.46    2.17
   6  11   0   38.59    1.44
  -6  11   0   36.61    1.42
   6  11   0   40.24    2.07
   6  11   1    4.14    0.96
   6  11   1    3.22    0.52
   6  11   1    3.25    0.83
  -6  11  -1    5.95    0.61
   6  11   2  157.44    5.16
   6  11   2  156.57    4.06
  -6  11  -2  158.09    4.11
   6  11   2  156.31    4.93
   6  11   3   96.70    3.67
   6  11   3   94.70    2.67
   6  11   3   89.50    3.40
  -6  11  -3   93.24    2.72
   6  11   4    4.02    0.95
   6  11   4    5.21    0.58
  -6  11  -4    5.04    0.59
   6  11   4    6.08    0.94
   6  11   5   39.53    2.23
   6  11   5   38.83    1.42
   6  11   5   41.23    2.09
  -6  11  -5   39.61    1.53
   6  11   6   59.04    1.87
   6  11   6   59.26    2.54
  -6  11  -6   57.76    1.99
   6  11   7   22.73    1.04
   6  11   7   25.66    1.62
  -6  11  -7   22.33    1.13
   6  11   8   13.19    0.78
   6  11   8   14.07    1.26
  -6  11  -8   12.19    0.86
   6  11   9    5.63    0.57
  -6  11  -9    3.86    0.59
   6  11  10   59.81    1.89
  -6  11 -10   56.94    2.08
   6  11  11    7.40    1.14
   6  11  11    7.07    0.63
  -6  11 -11    5.91    0.73
   6  11  12    5.43    1.09
   6  11  12    6.80    0.65
  -6  11 -12    7.33    0.78
   6  11  13    5.03    0.95
   6  11  13    4.44    0.58
  -6  11 -13    5.37    0.73
   6  11  14   34.46    2.10
   6  11  14   32.46    1.34
  -6  11 -14   31.39    1.53
   6  11  15    5.18    1.04
   6  11  15    5.54    0.62
  -6  11 -15    4.86    0.73
   6  11  16    0.66    0.78
   6  11  16    2.13    0.52
  -6  11 -16    1.46    0.61
   6  11  17    8.26    0.73
   6  11  17    8.29    1.18
   6  11  18    6.47    0.71
   6  11  18    6.06    1.11
   6  11  19    6.04    0.70
   6  11  19    5.36    1.06
   6  11  20    3.80    0.60
   6  11  20    3.47    0.89
   6  11  21    6.21    1.11
   6  11  22    0.74    0.78
   6  11  23    1.75    0.82
   6  11  24    0.50    0.71
   6  11  25    0.29    0.71
   6  11  26    1.21    0.69
   6  11  27    0.09    0.75
   6  11  28    4.85    0.89
   6  12 -26    3.98    0.82
   6  12 -25    6.66    0.94
   6  12 -24    0.35    0.64
   6  12 -23    5.54    0.91
   6  12 -22    4.45    0.82
   6  12 -15    2.14    0.87
   6  12 -14    8.42    1.11
   6  12 -13   37.35    2.10
   6  12 -12   56.72    2.62
   6  12 -11   28.94    1.84
   6  12 -10   13.22    1.30
   6  12  -9   47.31    2.36
   6  12  -8   12.64    1.33
   6  12  -8   12.22    1.31
   6  12  -7   16.34    1.44
   6  12  -6    2.42    0.86
   6  12  -6    1.84    0.83
   6  12  -5   10.40    1.20
   6  12  -5    9.84    1.19
   6  12  -4   37.53    2.16
   6  12  -4   35.50    2.13
   6  12  -3   33.57    1.98
   6  12  -3   34.73    2.06
   6  12  -3   31.05    1.95
   6  12  -2   33.07    1.97
   6  12  -2   34.91    2.09
   6  12  -2   34.73    2.02
   6  12  -1   31.79    1.91
   6  12  -1   30.92    1.99
   6  12  -1   31.20    1.93
   6  12   0  112.23    4.13
  -6  12   0  113.26    3.20
   6  12   0  108.20    3.95
   6  12   1   29.91    1.94
  -6  12  -1   30.52    1.33
   6  12   1   29.10    1.84
   6  12   2   34.51    2.09
   6  12   2   34.66    1.95
  -6  12  -2   31.83    1.38
   6  12   3   35.34    1.96
  -6  12  -3   29.81    1.34
  -6  12  -4   39.01    1.55
   6  12   4   40.24    2.09
   6  12   5   10.77    1.19
  -6  12  -5    9.67    0.79
  -6  12  -6    2.21    0.52
   6  12   6    0.78    0.74
   6  12   7   19.26    1.45
  -6  12  -7   17.45    1.06
   6  12   8   15.29    1.32
  -6  12  -8   13.18    0.93
   6  12   9   38.75    2.28
  -6  12  -9   39.41    1.65
   6  12  10   12.92    1.39
  -6  12 -10   12.79    0.95
   6  12  11   28.30    1.95
  -6  12 -11   27.16    1.41
   6  12  12   46.85    2.51
  -6  12 -12   45.90    1.88
   6  12  13   30.77    2.06
  -6  12 -13   35.42    1.63
   6  12  14    6.13    1.08
  -6  12 -14    7.48    0.84
   6  12  15    2.29    0.89
   6  12  16   12.19    1.36
   6  12  17    1.63    0.87
   6  12  18   10.68    1.30
   6  12  19    2.99    0.90
   6  12  20    0.42    0.80
   6  12  21    1.85    0.85
   6  12  22    2.51    0.85
   6  12  23    4.28    0.92
   6  12  24    0.47    0.75
   6  12  25    6.27    0.96
   6  12  26    3.66    0.83
   6  12  27   -0.24    0.63
   6  13 -25    1.59    0.71
   6  13 -24    2.73    0.73
   6  13 -23    1.71    0.66
   6  13 -22    4.31    0.79
   6  13 -21    1.05    0.60
   6  13 -20    1.64    0.65
   6  13 -19    0.83    0.58
   6  13 -14    4.75    1.01
   6  13 -13   30.79    1.93
   6  13 -12    8.36    1.14
   6  13 -11    2.28    0.87
   6  13 -10    2.66    0.87
   6  13 -10    1.65    0.85
   6  13  -9    5.90    1.05
   6  13  -8    0.54    0.76
   6  13  -7    3.23    0.89
   6  13  -6    5.66    1.04
   6  13  -5    8.20    1.13
   6  13  -5    7.64    1.10
   6  13  -5    7.48    1.12
   6  13  -4    7.17    1.12
   6  13  -4    7.68    1.08
   6  13  -4    5.59    1.00
   6  13  -3   19.44    1.63
   6  13  -3   16.29    1.41
   6  13  -3   21.92    1.64
   6  13  -2   17.27    1.51
   6  13  -2   18.74    1.47
   6  13  -2   17.83    1.51
   6  13  -1    2.24    0.87
   6  13  -1    3.16    0.89
   6  13  -1    1.59    0.80
   6  13   0    6.57    1.07
   6  13   0    6.39    1.02
   6  13   0    6.64    1.00
  -6  13   0    6.53    0.68
   6  13   1    2.64    0.81
   6  13   1    1.06    0.77
  -6  13  -1    1.79    0.53
   6  13   2   17.91    1.50
   6  13   2   19.31    1.50
  -6  13  -2   16.30    1.01
   6  13   3   19.60    1.47
   6  13   3   17.95    1.47
  -6  13  -3   18.52    1.05
  -6  13  -4    7.68    0.74
   6  13   4    8.19    1.08
  -6  13  -5    8.51    0.76
   6  13   5    7.87    1.07
   6  13   6    3.97    1.02
   6  13   6    4.83    0.91
  -6  13  -6    5.06    0.67
   6  13   7    1.44    0.87
  -6  13  -7    3.75    0.60
   6  13   7    3.25    0.86
   6  13   8    1.55    0.78
  -6  13  -8    1.20    0.52
   6  13   8    1.43    0.75
   6  13   9    6.87    1.11
  -6  13  -9    4.15    0.65
   6  13  10    1.89    0.90
  -6  13 -10    1.31    0.54
   6  13  11    1.88    0.82
  -6  13 -11    1.34    0.56
   6  13  12    7.17    1.16
   6  13  13   25.40    1.84
   6  13  14    5.35    1.09
   6  13  15    0.11    0.82
   6  13  16    2.79    0.95
   6  13  17    0.95    0.81
   6  13  18   -0.42    0.76
   6  13  19   -0.10    0.71
   6  13  20    0.30    0.76
   6  13  21   -0.19    0.71
   6  13  22    3.27    0.86
   6  13  23    0.99    0.78
   6  13  24    0.94    0.68
   6  13  25    1.95    0.74
   6  14 -13   14.00    1.39
   6  14 -12    2.49    0.88
   6  14 -12    2.83    0.97
   6  14 -11    6.54    1.15
   6  14 -10    5.72    1.10
   6  14  -9   -0.11    0.75
   6  14  -8    4.00    0.98
   6  14  -7    0.19    0.72
   6  14  -7    0.77    0.82
   6  14  -6   10.35    1.19
   6  14  -6    9.34    1.23
   6  14  -5    1.13    0.76
   6  14  -5    0.22    0.79
   6  14  -4    5.64    1.04
   6  14  -4    4.13    0.95
   6  14  -4    5.96    1.05
   6  14  -3   11.96    1.36
   6  14  -3   11.13    1.23
   6  14  -3   10.34    1.24
   6  14  -2    8.27    1.20
   6  14  -2    6.69    1.02
   6  14  -2    7.83    1.10
   6  14  -1   21.50    1.56
   6  14  -1   20.65    1.62
   6  14   0    1.43    0.82
   6  14   0    2.51    0.83
   6  14   1   20.58    1.50
   6  14   1   18.81    1.55
  -6  14  -1   20.72    1.14
   6  14   2    7.31    1.04
  -6  14  -2    7.54    0.79
   6  14   2    8.14    1.11
   6  14   3   12.79    1.24
   6  14   3   12.80    1.30
  -6  14  -3   12.26    0.91
   6  14   4    4.65    0.98
   6  14   4    5.01    0.94
  -6  14  -4    5.10    0.67
   6  14   4    4.96    0.94
   6  14   5    1.11    0.75
   6  14   5    1.01    0.75
   6  14   5    0.85    0.76
  -6  14  -5    0.71    0.50
   6  14   6    9.78    1.22
   6  14   6   10.66    1.14
  -6  14  -6   10.50    0.87
   6  14   6    8.25    1.15
   6  14   7    0.11    0.72
   6  14   7    0.08    0.62
  -6  14  -7    0.37    0.50
   6  14   7    0.19    0.75
   6  14   8    1.44    0.83
   6  14   8    3.19    0.77
  -6  14  -8    3.26    0.60
   6  14   9   -0.11    0.75
   6  14   9   -0.38    0.62
   6  14  10    5.96    1.11
   6  14  10    5.69    0.88
   6  14  11    7.13    1.15
   6  14  11    5.41    0.84
   6  14  12    4.13    0.95
   6  14  13   10.16    1.26
   6  14  14   11.46    1.32
   6  14  14   10.77    0.96
   6  14  15    8.89    1.23
   6  14  16    4.88    1.03
   6  14  17    0.10    0.81
   6  14  18    9.83    1.21
   6  14  19    1.16    0.73
   6  14  20    0.09    0.74
   6  14  21    2.24    0.76
   6  14  22    4.64    0.91
   6  14  23    3.18    0.81
   6  15 -12    9.45    1.37
   6  15 -11    4.84    1.08
   6  15 -10   17.11    1.60
   6  15  -9    3.77    0.95
   6  15  -9    6.05    1.06
   6  15  -8    2.90    0.86
   6  15  -8    0.22    0.79
   6  15  -7    1.02    0.75
   6  15  -7    0.33    0.77
   6  15  -6    4.81    0.92
   6  15  -6    4.59    0.99
   6  15  -5   13.02    1.32
   6  15  -5   13.94    1.39
   6  15  -4    0.27    0.72
   6  15  -4    0.75    0.72
   6  15  -3    4.07    0.93
   6  15  -3    5.16    1.05
   6  15  -2   11.50    1.22
   6  15  -2   12.08    1.31
   6  15  -1    4.55    0.90
   6  15  -1    3.30    0.92
   6  15   0   -0.26    0.74
   6  15   0   -0.61    0.77
   6  15   1    3.78    0.86
   6  15   1    3.11    0.85
   6  15   2   12.61    1.34
   6  15   2   11.37    1.22
   6  15   2   12.82    1.33
   6  15   3    4.64    1.01
   6  15   3    5.30    0.92
   6  15   3    5.77    0.98
   6  15   4    0.55    0.76
   6  15   4   -0.08    0.69
   6  15   4    0.48    0.75
   6  15   5   15.12    1.47
   6  15   5   14.44    1.23
   6  15   5   13.79    1.37
   6  15   6    2.20    0.97
   6  15   6    2.74    0.76
   6  15   6    3.22    0.86
   6  15   7    1.10    0.81
   6  15   7    0.07    0.61
   6  15   8    1.52    0.86
   6  15   8    1.50    0.68
   6  15   9    4.01    0.98
   6  15   9    4.42    0.78
   6  15  10   17.47    1.57
   6  15  10   17.54    1.27
   6  15  11    2.71    0.70
   6  15  11    3.63    0.96
   6  15  12   11.40    1.33
   6  15  12   11.11    1.00
   6  15  13   21.00    1.69
   6  15  14    8.28    1.20
   6  15  15    4.81    1.00
   6  15  16    8.60    1.17
   6  15  17    9.02    1.14
   6  15  18    0.83    0.75
   6  15  19    4.07    0.88
   6  15  20    1.44    0.72
   6  15  21    8.22    1.01
   6  16  -9    0.92    0.81
   6  16  -8    3.93    0.94
   6  16  -7    6.52    1.03
   6  16  -6    0.81    0.77
   6  16  -5    2.22    0.82
   6  16  -4    7.02    1.05
   6  16  -3    7.45    1.04
   6  16  -2    4.36    0.92
   6  16  -2    5.17    1.04
   6  16  -1    4.63    0.92
   6  16  -1    3.27    1.00
   6  16   0   11.78    1.33
   6  16   0   14.59    1.29
   6  16   0   15.02    1.43
   6  16   1    3.70    0.98
   6  16   1    4.30    0.90
   6  16   1    3.59    0.94
   6  16   2    4.44    1.04
   6  16   2    6.28    0.98
   6  16   2    4.92    1.01
   6  16   3    8.88    1.24
   6  16   3    6.85    1.02
   6  16   3    4.76    1.00
   6  16   4    8.43    1.23
   6  16   4    7.81    1.00
   6  16   4    7.99    1.12
   6  16   5    1.18    0.82
   6  16   5    1.62    0.71
   6  16   5    0.95    0.77
   6  16   6    0.21    0.78
   6  16   6    0.35    0.66
   6  16   7    3.50    0.98
   6  16   7    6.62    0.88
   6  16   8    3.26    0.94
   6  16   8    3.72    0.80
   6  16   9    0.21    0.77
   6  16   9    1.80    0.62
   6  16  10   22.37    1.71
   6  16  10   22.31    1.34
   6  16  11   19.15    1.61
   6  16  12   15.06    1.43
   6  16  13    7.96    1.14
   6  16  14    1.51    0.74
   6  16  15    2.30    0.89
   6  16  16   22.70    1.60
   6  16  17    2.84    0.82
   6  16  18    1.98    0.75
   6  16  19    3.54    0.80
   6  17 -18   -0.09    0.73
   6  17 -17    5.55    1.02
   6  17 -16    3.82    0.94
   6  17 -15    0.90    0.81
   6  17 -14    4.95    0.96
   6  17 -13    0.71    0.87
   6  17  -6    2.75    0.85
   6  17  -5   -0.17    0.75
   6  17  -4    6.75    1.00
   6  17  -3    9.53    1.08
   6  17  -2    6.68    0.96
   6  17  -1    2.05    0.76
   6  17   0    0.38    0.64
   6  17   1    3.98    0.82
   6  17   2    9.27    1.02
   6  17   3    8.33    1.15
   6  17   3    8.56    1.01
   6  17   4    4.13    1.00
   6  17   4    4.85    0.85
   6  17   5    1.33    0.79
   6  17   5    0.20    0.60
   6  17   6    2.73    0.92
   6  17   6    3.20    0.71
   6  17   7   10.80    1.29
   6  17   7   10.02    0.95
   6  17   8    7.12    1.09
   6  17   8    6.76    0.77
   6  17   9    3.79    0.94
   6  17  10    0.86    0.74
   6  17  11    2.23    0.82
   6  17  12    3.64    0.89
   6  17  13    1.24    0.71
   6  17  14    4.27    0.81
   6  17  15    1.07    0.66
   6  17  16    3.41    0.79
   6  18 -14    1.10    0.75
   6  18 -13    2.13    0.82
   6  18 -12    0.75    0.77
   6  18 -11    2.27    0.85
   6  18 -10    1.43    0.79
   6  18  -9    4.12    0.92
   6  18  -8    0.29    0.76
   6  18  -7    2.41    0.84
   6  18  -6    3.47    0.89
   6  18  -5    1.64    0.83
   6  18  -4    0.67    0.74
   6  18  -3    1.52    0.77
   6  18  -2    1.19    0.74
   6  18  -2    0.57    0.78
   6  18  -1    0.80    0.65
   6  18   0    2.46    0.73
   6  18   1    2.18    0.72
   6  18   2   -0.07    0.64
   6  18   3    1.77    0.64
   6  18   4    0.12    0.52
   6  18   5    1.15    0.56
   6  18   6    3.09    0.91
   6  18   7    2.76    0.83
   6  18   8    0.81    0.70
   6  18   9    5.88    0.95
   6  18  10    1.97    0.74
   6  18  11    4.98    0.91
   6  18  12    1.45    0.69
   6  18  13    2.56    0.73
   6  19 -10    1.02    0.71
   6  19  -9    0.17    0.65
   6  19  -8    3.57    0.86
   6  19  -7    2.87    0.84
   6  19  -6    4.28    0.90
   6  19  -5    1.14    0.75
   6  19  -4    1.92    0.79
   6  19  -3    0.43    0.70
   6  19  -2    0.26    0.74
   6  19  -1   -0.09    0.73
   6  19   0    0.60    0.71
   6  19   1   -0.51    0.69
   7   0   0    0.05    0.39
   7   0  -1   20.93    1.13
   7   0   1   20.36    1.16
   7   0  -2   13.87    0.90
   7   0   3   23.32    1.40
   7   0  -3   23.76    1.16
   7   0   4   50.92    2.16
   7   0  -4   49.08    1.78
   7   0   5    6.87    0.88
   7   0  -5    6.29    0.61
   7   0   6   56.93    2.31
   7   0  -6   56.63    1.88
   7   0   7    3.29    0.70
   7   0  -7    2.86    0.45
   7   0   8    1.08    0.55
   7   0   9    1.21    0.58
   7   0  10    7.42    0.87
   7   0 -11    0.05    0.40
   7   0  11   -0.07    0.54
   7   0 -12    2.68    0.56
   7   0  12    2.41    0.66
   7   0 -13    6.73    0.73
   7   0  13    9.77    0.94
   7   0 -14    2.49    0.58
   7   0  14    1.68    0.61
   7   0 -14    1.62    0.51
   7   0 -15    8.56    0.85
   7   0 -15    9.20    0.77
   7   0  15    9.41    0.98
   7   0 -16    1.27    0.52
   7   0  16    0.88    0.59
   7   0 -17   -0.27    0.51
   7   0  17    0.89    0.62
   7   0 -18    1.45    0.60
   7   0  18    2.15    0.73
   7   0 -19    0.29    0.54
   7   0  19    0.35    0.64
   7   0  20   26.09    1.53
   7   0 -20   23.79    1.46
   7   0 -21    1.53    0.61
   7   0  21    0.94    0.67
   7   0 -22   -0.63    0.58
   7   0  22    1.55    0.72
   7   0 -23    1.61    0.73
   7   0  23    1.72    0.79
   7   0 -24    0.25    0.61
   7   0  24    0.08    0.71
   7   0 -25    7.49    1.00
   7   0  25    8.41    1.03
   7   0 -26    9.39    1.07
   7   0  26   10.97    1.14
   7   0 -27    0.76    0.67
   7   0  27    2.98    0.83
   7   0 -28    1.25    0.66
   7   0  28    1.87    0.83
   7   0 -29    7.31    0.95
   7   0  29    7.36    1.04
   7   0  30    0.62    0.83
   7   0  31    1.33    0.74
   7   0  32    1.88    0.82
   7  -1  32    2.63    0.82
   7   1 -31    2.13    0.73
   7  -1  31    3.96    0.90
   7   1 -30    2.96    0.81
   7  -1  30    3.48    0.87
   7   1 -29   -0.17    0.68
   7  -1  29    0.31    0.73
   7   1 -28    1.49    0.70
   7  -1  28    0.31    0.74
   7   1 -27    3.45    0.81
   7  -1  27    3.36    0.89
   7   1 -26   -0.53    0.72
   7  -1  26    0.23    0.73
   7   1 -25    5.54    0.91
   7  -1  25    5.08    0.92
   7   1 -24    2.26    0.77
   7  -1  24    3.95    0.88
   7   1 -23    2.65    0.74
   7  -1  23    7.72    0.98
   7   1 -22   16.42    1.34
   7  -1  22   16.70    1.29
   7   1 -21    6.62    0.94
   7  -1  21    8.42    0.98
   7   1 -20    3.58    0.77
   7  -1  20    3.00    0.81
   7   1 -19    2.39    0.68
   7  -1  19    3.58    0.77
   7   1 -18    1.94    0.66
   7  -1  18    1.53    0.67
   7   1 -17    1.15    0.60
   7  -1  17    0.95    0.63
   7   1 -17    0.63    0.49
   7   1 -16    8.24    0.89
   7  -1  16    5.90    0.83
   7   1 -16    6.70    0.75
   7   1 -15    6.17    0.78
   7  -1  15    7.32    0.87
   7   1 -15    5.79    0.69
   7   1 -14    1.97    0.55
   7  -1  14    1.07    0.60
   7   1 -14    1.58    0.55
   7   1 -13    5.20    0.72
   7  -1  13    4.94    0.78
   7   1 -12    8.32    0.83
   7  -1  12   10.25    0.98
   7   1 -11   16.65    1.08
   7  -1  11   17.85    1.22
   7  -1  10   14.31    1.11
   7   1  -9    1.85    0.43
   7  -1   9    2.22    0.64
   7   1  -8   60.54    2.01
   7  -1   8   61.72    2.40
   7   1  -7    2.63    0.50
   7  -1   7    4.10    0.74
   7   1  -6    9.97    0.75
   7  -1   6    9.17    0.92
   7   1  -5   48.41    1.79
   7  -1   5   46.03    2.05
   7   1  -4   26.65    1.27
   7  -1   4   27.90    1.55
   7   1  -4   24.58    1.12
   7   1  -3   17.38    1.03
   7  -1   3   16.74    1.24
   7   1  -3   17.00    0.89
   7   1  -2    2.63    0.56
   7   1  -2    3.44    0.46
   7   1  -1    2.85    0.54
   7   1  -1    2.45    0.42
   7   1   0    0.57    0.46
   7  -1   0   -0.05    0.38
   7   1   0    0.22    0.31
   7  -1  -1    2.60    0.48
   7   1   1    2.36    0.56
   7   1   1    2.01    0.38
   7  -1  -2    2.21    0.46
   7   1   2    2.98    0.41
   7  -1  -3   16.79    0.92
   7   1   3   16.44    0.80
   7  -1  -4   26.68    1.14
   7  -1 -13    4.68    0.62
   7  -1 -14    1.92    0.50
   7  -1 -15    6.33    0.72
   7  -1 -16    6.89    0.75
   7  -1 -17    1.03    0.51
   7  -1 -18    1.33    0.56
   7  -1 -19    1.79    0.59
   7  -1 -20    2.82    0.68
   7  -1 -21    7.62    0.89
   7  -1 -22   14.81    1.17
   7  -1 -23    4.97    0.83
   7  -1 -24    2.69    0.70
   7  -1 -25    4.91    0.81
   7  -1 -26   -0.31    0.53
   7  -2  32    5.07    0.97
   7   2 -31   -0.43    0.67
   7  -2  31    0.55    0.75
   7   2 -30    0.35    0.74
   7  -2  30    1.00    0.80
   7   2 -29    5.88    0.96
   7  -2  29    6.59    0.97
   7   2 -28    0.64    0.68
   7  -2  28    2.07    0.77
   7   2 -27    1.95    0.76
   7  -2  27    2.25    0.78
   7   2 -26    0.65    0.66
   7  -2  26    1.00    0.74
   7   2 -25    1.67    0.75
   7  -2  25    0.54    0.70
   7   2 -24    3.30    0.82
   7  -2  24    6.25    0.93
   7   2 -23    2.71    0.75
   7  -2  23    3.79    0.85
   7   2 -22    9.07    1.08
   7  -2  22   10.42    1.09
   7   2 -21    6.87    0.94
   7  -2  21    7.80    0.98
   7   2 -20   13.15    1.20
   7  -2  20   13.69    1.17
   7   2 -19   30.98    1.74
   7  -2  19   33.96    1.74
   7   2 -18    0.16    0.58
   7  -2  18    0.28    0.63
   7   2 -18    0.46    0.49
   7   2 -17    6.19    0.85
   7  -2  17    6.39    0.89
   7   2 -17    6.54    0.76
   7   2 -16   16.51    1.25
   7   2 -16   20.13    1.20
   7  -2  16   20.50    1.33
   7   2 -15    6.35    0.84
   7  -2  15    5.33    0.84
   7   2 -15    6.23    0.77
   7   2 -14   16.15    1.19
   7   2 -14   16.01    1.13
   7  -2  14   14.75    1.17
   7   2 -13   39.99    1.83
   7  -2  13   38.93    1.84
   7   2 -13   41.18    1.84
   7   2 -12    9.51    0.93
   7  -2  12   11.94    1.06
   7   2 -11    1.62    0.56
   7  -2  11    0.93    0.60
   7  -2  10   80.86    2.86
   7   2  -9   83.23    2.60
   7  -2   9   82.98    2.92
   7   2  -8   21.11    1.12
   7  -2   8   19.58    1.30
   7   2  -7  112.80    3.37
   7  -2   7  119.16    3.72
   7   2  -6   89.99    2.80
   7  -2   6   86.52    3.06
   7   2  -5    0.69    0.44
   7  -2   5    0.42    0.51
   7   2  -4   18.37    1.11
   7  -2   4   19.33    1.31
   7   2  -4   18.91    1.04
   7   2  -3  127.94    3.74
   7  -2   3  123.28    3.95
   7   2  -3  124.55    3.50
   7   2  -2    2.55    0.56
   7   2  -2    1.50    0.45
   7   2  -1    6.32    0.74
   7   2  -1    7.85    0.65
   7   2   0    0.87    0.49
   7  -2   0    0.89    0.40
   7   2   0    0.89    0.39
   7  -2  -1    7.83    0.66
   7   2   1    7.84    0.83
   7   2   1    8.27    0.65
   7  -2  -2    2.30    0.44
   7   2   2    0.79    0.51
   7   2   2    1.49    0.40
   7   2   3  128.61    3.46
   7   2   4   20.45    0.98
   7   2  28    2.06    0.82
   7   2  29    6.41    0.99
   7   2  30    1.38    0.84
   7   2  31    0.64    0.76
   7   2  32    4.38    0.91
   7  -3  32    1.71    0.79
   7   3 -31    0.70    0.71
   7  -3  31    0.46    0.72
   7   3 -30    1.73    0.72
   7  -3  30    3.34    0.88
   7   3 -29    0.47    0.68
   7  -3  29    0.91    0.76
   7   3 -28   11.36    1.26
   7  -3  28   10.62    1.11
   7   3 -27    5.50    0.94
   7  -3  27    4.87    0.94
   7   3 -26    1.94    0.76
   7  -3  26    1.90    0.80
   7   3 -25    6.68    1.02
   7  -3  25    6.18    1.00
   7   3 -24   12.02    1.30
   7  -3  24   18.25    1.34
   7   3 -23    1.90    0.80
   7  -3  23    2.57    0.80
   7   3 -22    1.22    0.75
   7  -3  22   -0.65    0.74
   7   3 -21    2.95    0.80
   7  -3  21    2.35    0.74
   7   3 -20    1.98    0.71
   7  -3  20    1.47    0.70
   7   3 -20    3.38    0.62
   7  -3  19    4.28    0.80
   7   3 -19    4.77    0.72
   7   3 -18    6.23    0.95
   7  -3  18    6.25    0.87
   7   3 -18    6.49    0.79
   7   3 -17    4.88    0.83
   7  -3  17    6.60    0.87
   7   3 -17    6.34    0.81
   7   3 -16    7.64    0.94
   7   3 -16    8.56    0.89
   7  -3  16    8.36    0.96
   7   3 -15   45.88    2.17
   7   3 -15   52.72    2.12
   7  -3  15   51.11    2.14
   7   3 -14   55.29    2.25
   7   3 -14   54.83    2.33
   7  -3  14   57.29    2.31
   7   3 -13   25.80    1.53
   7  -3  13   26.45    1.52
   7   3 -13   29.76    1.60
   7   3 -12  102.50    3.42
   7  -3  12  102.99    3.38
   7  -3  11   92.29    3.12
   7  -3  10   38.70    1.83
   7   3  -9   37.06    1.59
   7  -3   9   35.75    1.77
   7   3  -8   43.67    1.77
   7  -3   8   41.03    1.90
   7   3  -7    9.34    0.83
   7  -3   7    8.20    0.92
   7   3  -6    0.79    0.48
   7  -3   6    0.48    0.60
   7   3  -5   25.49    1.35
   7  -3   5   26.88    1.52
   7   3  -4   20.85    1.23
   7  -3   4   19.15    1.30
   7   3  -4   18.90    1.10
   7   3  -3   40.32    1.78
   7  -3   3   38.58    1.85
   7   3  -3   36.80    1.58
   7   3  -2   68.39    2.50
   7   3  -2   67.77    2.29
   7   3  -1   28.93    1.51
   7   3  -1   25.24    1.24
   7  -3   0    6.78    0.60
   7   3   0    6.89    0.82
   7   3   0    8.77    0.74
   7   3   1   24.63    1.44
   7   3   1   24.55    1.18
   7   3   2   67.08    2.59
   7   3   2   68.54    2.22
   7   3   3   36.70    1.84
   7   3   3   38.95    1.86
   7   3   3   38.03    1.50
  -7   3  -4   23.43    1.44
   7   3   4   19.07    1.29
   7   3   4   19.63    1.03
   7   3   5   25.64    1.47
   7   3   5   25.29    1.17
   7   3   6    1.08    0.57
   7   3   7    8.65    0.92
   7   3   8   40.08    1.83
   7   3   9   37.47    1.78
   7   3  10   39.92    1.84
   7   3  11  102.20    3.34
   7   3  12  104.35    3.39
   7   3  13   25.18    1.47
   7   3  14   52.45    2.19
   7   3  15   48.19    2.07
   7   3  16    9.58    0.95
   7   3  17    6.67    0.87
   7   3  18    6.66    0.90
   7   3  19    4.99    0.84
   7   3  20    2.99    0.74
   7   3  21    2.82    0.78
   7   3  22    0.36    0.62
   7   3  23    1.82    0.75
   7   3  24   17.48    1.33
   7   3  25    8.89    1.06
   7   3  26    3.70    0.81
   7   3  27    6.48    1.00
   7   3  28   12.90    1.21
   7   3  29    1.65    0.77
   7   3  30    2.86    0.84
   7   3  31    1.14    0.78
   7   3  32    1.41    0.73
   7   4 -31    2.77    0.81
   7  -4  31    0.79    0.76
   7   4 -30    9.58    1.14
   7  -4  30   12.63    1.21
   7   4 -29    2.11    0.81
   7  -4  29    2.67    0.81
   7   4 -28    0.68    0.70
   7  -4  28   -0.07    0.75
   7   4 -27   -0.50    0.71
   7  -4  27    0.59    0.72
   7   4 -26    3.21    0.90
   7  -4  26    3.86    0.87
   7   4 -25    6.42    1.07
   7  -4  25   11.37    1.15
   7   4 -24   10.71    1.27
   7  -4  24   13.08    1.20
   7   4 -23    1.88    0.76
   7  -4  23    1.08    0.73
   7   4 -22    3.04    0.90
   7  -4  22    3.91    0.84
   7   4 -21    1.54    0.74
   7  -4  21    0.56    0.70
   7   4 -20   17.40    1.19
   7   4 -20   14.96    1.36
   7  -4  20   19.24    1.31
   7   4 -19   23.35    1.64
   7   4 -19   23.61    1.38
   7  -4  19   24.61    1.46
   7   4 -18   -0.36    0.67
   7  -4  18   -0.07    0.59
   7   4 -18   -0.13    0.54
   7   4 -17    1.06    0.66
   7  -4  17   -0.27    0.66
   7   4 -17   -0.20    0.54
   7   4 -16   18.27    1.39
   7   4 -16   18.94    1.30
   7  -4  16   17.38    1.24
   7   4 -15    7.13    0.94
   7  -4  15    7.33    0.92
   7   4 -15    8.19    0.94
   7   4 -14   61.27    2.46
   7   4 -14   60.79    2.57
   7  -4  14   63.75    2.43
   7   4 -13    3.17    0.76
   7  -4  13    2.13    0.68
   7   4 -13    0.88    0.63
   7   4 -12   60.54    2.44
   7  -4  12   58.60    2.30
   7  -4  11   24.54    1.46
   7  -4  10   14.53    1.11
   7   4  -9   10.34    0.90
   7  -4   9   12.23    1.02
   7   4  -8   24.40    1.35
   7  -4   8   25.01    1.43
   7   4  -7    1.17    0.55
   7  -4   7    1.78    0.61
   7   4  -6   27.03    1.45
   7  -4   6   26.61    1.49
   7   4  -5    8.42    0.84
   7  -4   5    6.31    0.84
   7   4  -4   19.42    1.23
   7  -4   4   16.53    1.20
   7   4  -4   16.16    1.07
   7   4  -3   16.37    1.16
   7  -4   3   16.36    1.18
   7   4  -3   14.21    1.01
   7   4  -2    1.45    0.58
   7  -4   2    0.70    0.57
   7   4  -2    0.11    0.46
   7   4  -1    2.11    0.65
   7   4  -1    2.44    0.56
   7   4   0   10.97    1.01
   7   4   0   11.86    0.89
   7   4   1    0.96    0.56
   7   4   1    2.11    0.52
   7   4   2    1.21    0.60
   7   4   2    1.46    0.62
   7   4   2    0.25    0.42
   7   4   3   13.39    1.14
   7   4   3   15.31    1.15
   7   4   3   16.45    0.98
   7   4   4   16.48    1.25
   7   4   4   17.97    1.22
   7   4   4   18.69    1.05
   7   4   5    5.70    0.83
   7   4   5    7.98    0.72
   7   4   6   28.94    1.53
   7   4   6   29.13    1.33
   7   4   7    0.84    0.55
   7   4   8   24.45    1.39
   7   4   9   11.54    1.02
   7   4  10   13.55    1.06
   7   4  11   24.99    1.43
   7   4  12   57.24    2.27
   7   4  13    2.23    0.68
   7   4  14   63.17    2.42
   7   4  15    6.20    0.82
   7   4  16   19.88    1.30
   7   4  17   -0.26    0.63
   7   4  18    0.07    0.61
   7   4  19   24.68    1.46
   7   4  20   16.75    1.25
   7   4  21    0.76    0.68
   7   4  22    2.39    0.72
   7   4  23    1.21    0.72
   7   4  24   11.64    1.17
   7   4  25   10.72    1.11
   7   4  26    6.25    0.94
   7   4  27    0.29    0.70
   7   4  28    0.58    0.72
   7   4  29    2.64    0.84
   7   4  30   13.74    1.22
   7   4  31    2.71    0.84
   7  -5  31    3.32    0.82
   7   5 -30    5.94    0.96
   7  -5  30    6.63    1.01
   7   5 -29    0.29    0.69
   7  -5  29   -0.14    0.80
   7   5 -28    3.39    0.89
   7  -5  28    3.58    0.86
   7   5 -27    3.45    0.89
   7  -5  27    5.74    0.94
   7   5 -26   -0.82    0.84
   7  -5  26    0.58    0.70
   7   5 -25   25.52    1.84
   7  -5  25   28.48    1.65
   7   5 -24    0.83    0.73
   7  -5  24    0.64    0.72
   7   5 -23    7.10    1.07
   7  -5  23    9.76    1.05
   7   5 -22    7.86    1.14
   7  -5  22   10.06    1.06
   7   5 -21    7.87    1.12
   7  -5  21    9.88    1.03
   7   5 -20    4.28    0.93
   7  -5  20    4.11    0.84
   7   5 -20    3.18    0.76
   7   5 -19   11.44    1.26
   7   5 -19   10.84    1.04
   7  -5  19   13.60    1.12
   7   5 -18   16.89    1.41
   7   5 -18   18.33    1.26
   7  -5  18   18.33    1.28
   7   5 -17   14.64    1.18
   7   5 -17   14.09    1.31
   7  -5  17   15.28    1.17
   7   5 -16    2.02    0.73
   7  -5  16    2.43    0.74
   7   5 -16    2.83    0.73
   7   5 -15   25.11    1.52
   7   5 -15   23.73    1.62
   7  -5  15   24.01    1.39
   7   5 -14    6.38    0.95
   7   5 -14    6.06    0.87
   7  -5  14    7.77    0.90
   7   5 -13    6.37    0.95
   7  -5  13    7.86    0.88
   7   5 -12    1.65    0.71
   7  -5  12    1.70    0.62
   7  -5  11   14.42    1.11
   7  -5  10    0.88    0.59
   7   5  -9   16.22    1.16
   7  -5   9   17.51    1.19
   7   5  -8    9.48    0.92
   7  -5   8    8.29    0.88
   7   5  -7   40.92    1.87
   7  -5   7   39.67    1.81
   7   5  -6    4.69    0.76
   7  -5   6    6.12    0.80
   7   5  -5   20.42    1.31
   7  -5   5   19.11    1.27
   7   5  -4    7.15    0.88
   7  -5   4    5.71    0.82
   7   5  -4    6.63    0.80
   7   5  -3   11.51    1.05
   7  -5   3   10.51    1.00
   7   5  -3   11.92    0.97
   7   5  -2   21.47    1.41
   7  -5   2   23.13    1.42
   7   5  -2   23.99    1.35
   7   5  -1    3.35    0.71
   7   5  -1    5.00    0.69
   7   5   0    2.16    0.69
   7   5   0    0.93    0.52
   7   5   1    3.52    0.70
   7   5   1    4.25    0.66
   7   5   2   19.80    1.41
   7   5   2   23.14    1.39
   7   5   2   21.48    1.22
   7   5   3   10.27    1.05
   7   5   3   11.98    1.02
   7   5   3   11.28    0.90
   7   5   4    7.02    0.93
   7   5   4    7.33    0.84
   7   5   4    6.59    0.73
   7   5   5   16.68    1.32
   7   5   5   18.71    1.23
   7   5   5   19.71    1.13
   7   5   6    4.92    0.85
   7   5   6    4.46    0.74
   7   5   6    4.14    0.64
   7   5   7   40.61    1.82
   7   5   7   38.57    1.66
   7   5   8    8.53    0.90
   7   5   9   15.87    1.12
   7   5  10    0.25    0.55
   7   5  11   13.45    1.05
   7   5  12    2.71    0.62
   7   5  13    6.71    0.84
   7   5  14    6.38    0.84
   7   5  15   22.85    1.34
   7   5  16    2.32    0.68
   7   5  17   15.05    1.16
   7   5  18   17.02    1.23
   7   5  19   11.99    1.08
   7   5  20    4.50    0.84
   7   5  21    9.18    1.00
   7   5  22    8.79    0.99
   7   5  23   10.92    1.08
   7   5  24    1.19    0.75
   7   5  25   31.53    1.69
   7   5  26   -0.50    0.72
   7   5  27    3.78    0.84
   7   5  28    3.10    0.86
   7   5  29    1.63    0.74
   7   5  30    6.16    0.96
   7   5  31    5.07    0.88
   7   6 -30    2.56    0.87
   7  -6  30    3.79    0.85
   7   6 -29   10.82    1.28
   7  -6  29   15.28    1.25
   7   6 -28    3.95    0.88
   7  -6  28    2.63    0.82
   7   6 -27    1.03    0.80
   7  -6  27    2.05    0.78
   7   6 -26    5.57    1.08
   7  -6  26    5.07    0.90
   7   6 -25    1.48    0.85
   7  -6  25    1.11    0.73
   7   6 -24   11.93    1.33
   7  -6  24   13.46    1.18
   7   6 -23    4.79    1.02
   7  -6  23    4.57    0.84
   7   6 -22   10.71    1.28
   7  -6  22   10.68    1.07
   7   6 -21    3.89    0.95
   7  -6  21    3.98    0.81
   7   6 -20   32.19    1.72
   7   6 -20   31.11    1.97
   7  -6  20   34.24    1.71
   7   6 -19   24.55    1.75
   7   6 -19   24.41    1.51
   7  -6  19   24.68    1.46
   7   6 -18   27.03    1.84
   7   6 -18   26.37    1.59
   7  -6  18   27.31    1.54
   7   6 -17   68.41    2.71
   7   6 -17   66.08    2.96
   7  -6  17   72.03    2.58
   7   6 -16   41.00    2.02
   7   6 -16   39.08    2.15
   7  -6  16   41.97    1.88
   7   6 -15    6.30    1.00
   7  -6  15    6.93    0.90
   7   6 -15    8.16    1.02
   7   6 -14   38.80    1.97
   7  -6  14   36.32    1.72
   7   6 -13   45.55    2.14
   7  -6  13   44.11    1.91
   7   6 -12    9.23    1.12
   7  -6  12    8.39    0.91
   7   6 -11   11.09    1.17
   7  -6  11   14.23    1.04
   7  -6  10    3.84    0.70
   7   6  -9    7.50    0.88
   7  -6   9    7.53    0.86
   7   6  -8    7.25    0.91
   7  -6   8    5.85    0.77
   7   6  -7    6.79    0.88
   7  -6   7    6.03    0.80
   7   6  -6    1.05    0.61
   7  -6   6    2.01    0.64
   7   6  -5    4.27    0.78
   7  -6   5    4.03    0.71
   7   6  -4   83.73    3.08
   7  -6   4   84.16    2.92
   7   6  -4   85.83    3.01
   7   6  -3   10.89    1.10
   7  -6   3    9.91    0.95
   7   6  -3   11.85    1.04
   7   6  -2   31.22    1.73
   7  -6   2   32.13    1.64
   7   6  -2   31.44    1.63
   7   6  -1   70.89    2.79
   7  -6   1   70.65    2.62
   7   6  -1   65.31    2.53
   7   6   0   10.13    1.10
   7   6   0    9.87    0.97
   7   6   1   62.88    2.69
   7   6   1   66.98    2.54
   7   6   1   69.91    2.51
   7   6   2   31.74    1.83
   7   6   2   31.37    1.62
   7   6   2   30.93    1.56
   7   6   3   12.27    1.21
   7   6   3   11.42    1.00
   7   6   3   12.98    1.00
   7   6   4   76.18    3.07
   7   6   4   79.84    2.79
   7   6   4   78.61    2.73
   7   6   5    4.42    0.86
   7   6   5    3.79    0.71
   7   6   5    4.41    0.68
   7   6   6    1.19    0.66
   7   6   6    1.35    0.58
   7   6   6    0.88    0.51
   7   6   7    8.64    1.04
   7   6   7    8.24    0.84
   7   6   7    7.36    0.82
   7   6   8    7.25    0.80
   7   6   8    4.13    0.83
   7   6   9    7.37    0.81
   7   6  10    3.37    0.68
   7   6  11   11.89    1.00
   7   6  12    8.85    0.91
   7   6  13   44.22    1.89
   7   6  14   36.96    1.71
   7   6  15    7.59    0.90
   7   6  16   40.37    1.82
   7   6  17   75.11    2.67
   7   6  18   28.58    1.53
   7   6  19   25.58    1.47
   7   6  20   30.39    1.62
   7   6  21    4.47    0.81
   7   6  22   12.10    1.08
   7   6  23    3.93    0.82
   7   6  24   12.77    1.14
   7   6  25    0.20    0.68
   7   6  26    5.70    0.88
   7   6  27    0.81    0.68
   7   6  28    1.49    0.80
   7   6  29   13.23    1.22
   7   6  30    3.13    0.85
   7   7 -29    2.36    0.88
   7  -7  29    4.05    0.85
   7   7 -28    5.70    1.03
   7  -7  28    8.30    1.01
   7   7 -27   17.87    1.53
   7  -7  27   21.47    1.38
   7   7 -26    2.24    0.88
   7  -7  26    1.37    0.72
   7   7 -25    5.73    1.10
   7  -7  25    6.86    0.95
   7   7 -24    2.18    0.88
   7  -7  24    4.01    0.78
   7   7 -23    5.92    1.07
   7  -7  23    5.85    0.89
   7   7 -22    9.75    1.26
   7  -7  22   12.90    1.10
   7   7 -21    8.08    1.22
   7  -7  21    9.52    0.99
   7   7 -20   -0.54    0.82
   7  -7  20    0.75    0.61
   7   7 -19   15.79    1.29
   7   7 -19   13.10    1.36
   7  -7  19   14.97    1.14
   7   7 -18    1.38    0.79
   7  -7  18    3.48    0.74
   7   7 -18    2.86    0.75
   7   7 -17    8.35    1.09
   7   7 -17    9.65    1.09
   7  -7  17    9.04    0.96
   7  -7  16    6.88    0.85
   7   7 -16    8.55    1.02
   7   7 -15   45.03    2.16
   7  -7  15   43.19    1.89
   7   7 -14   19.15    1.45
   7  -7  14   18.54    1.23
   7   7 -13   35.23    1.89
   7  -7  13   31.52    1.58
   7   7 -12   21.18    1.49
   7  -7  12   19.25    1.26
   7   7 -11   54.70    2.51
   7  -7  11   57.20    2.19
   7   7 -10    3.11    0.83
   7  -7  10    2.16    0.65
   7   7  -9   21.05    1.42
   7  -7   9   21.41    1.28
   7   7  -8    4.79    0.81
   7  -7   8    6.26    0.81
   7   7  -7   15.99    1.29
   7  -7   7   16.90    1.13
   7   7  -6    6.73    0.90
   7  -7   6    4.76    0.75
   7   7  -5   12.09    1.16
   7  -7   5   11.42    0.98
   7   7  -5   11.21    1.06
   7   7  -4   14.76    1.25
   7  -7   4   14.02    1.09
   7   7  -4   15.51    1.22
   7   7  -3   27.69    1.68
   7  -7   3   25.48    1.45
   7   7  -3   26.80    1.56
   7   7  -2   56.27    2.50
   7  -7   2   56.39    2.25
   7   7  -2   55.36    2.33
   7   7  -1   13.39    1.23
   7  -7   1   11.73    1.04
   7   7  -1   15.27    1.18
   7   7   0    1.60    0.70
   7  -7   0    3.48    0.69
   7   7   0    3.58    0.73
   7   7   0    2.41    0.65
   7   7   1   10.94    1.16
   7   7   1   13.42    1.06
   7   7   1   13.65    1.11
   7   7   2   57.43    2.20
   7   7   2   52.78    2.19
   7   7   3   24.18    1.65
   7   7   3   26.52    1.44
   7   7   3   26.11    1.47
   7   7   4   14.28    1.28
   7   7   4   15.58    1.11
   7   7   4   16.74    1.18
   7   7   5   12.44    1.24
   7   7   5   12.39    0.99
   7   7   5   11.43    1.00
   7   7   6    6.29    0.99
   7   7   6    6.80    0.81
   7   7   6    5.46    0.80
   7   7   7   17.62    1.42
   7   7   7   15.61    1.10
   7   7   7   17.24    1.18
   7   7   8    4.67    0.70
   7   7   8    6.15    0.97
   7   7   9   20.23    1.20
   7   7   9   18.20    1.49
   7   7  10    1.69    0.60
   7   7  10    2.54    0.81
   7   7  11   53.47    2.08
   7   7  12   22.52    1.31
   7   7  13   28.72    1.48
   7   7  14   19.16    1.23
   7   7  15   46.44    1.93
   7   7  16    6.68    0.85
   7   7  17   10.52    0.98
   7   7  18    1.01    0.64
   7   7  19   15.86    1.16
   7   7  20    1.40    0.66
   7   7  21    8.11    0.90
   7   7  22   12.55    1.07
   7   7  23    4.44    0.82
   7   7  24    2.88    0.76
   7   7  25    6.55    0.89
   7   7  26    1.84    0.76
   7   7  27   17.81    1.30
   7   7  28    8.61    1.00
   7   7  29    2.51    0.77
   7   8 -29    4.66    0.98
   7   8 -28    5.26    1.06
   7  -8  28    7.28    0.90
   7   8 -27    7.62    1.17
   7  -8  27    9.59    0.99
   7   8 -26    3.00    0.87
   7  -8  26    5.43    0.86
   7   8 -25    0.98    0.82
   7  -8  25    0.67    0.60
   7   8 -24    0.11    0.76
   7  -8  24    0.31    0.65
   7   8 -23    2.34    0.90
   7  -8  23    1.48    0.68
   7   8 -22    5.26    1.02
   7  -8  22    6.40    0.87
   7   8 -21    5.71    1.05
   7  -8  21    5.80    0.83
   7   8 -20    0.11    0.74
   7  -8  20    0.18    0.60
   7   8 -19   14.01    1.25
   7  -8  19   16.00    1.12
   7  -8  18    6.61    0.86
   7   8 -18    7.84    1.04
   7  -8  17    6.53    0.81
   7   8 -17    6.22    0.94
   7  -8  16    7.24    0.85
   7   8 -16    8.52    1.06
   7   8 -15   16.44    1.37
   7  -8  15   16.62    1.13
   7  -8  14    9.09    0.89
   7   8 -14    7.82    1.05
   7  -8  13    7.77    0.82
   7   8 -13    7.21    1.03
   7  -8  12    0.22    0.55
   7   8 -12    0.81    0.69
   7   8 -11   43.19    2.22
   7  -8  11   44.12    1.85
   7   8 -10    1.78    0.83
   7  -8  10    1.49    0.61
   7   8  -9    6.03    0.92
   7   8  -9    6.25    1.02
   7  -8   9    6.87    0.78
   7   8  -8    6.34    0.91
   7  -8   8    5.97    0.78
   7   8  -7    3.34    0.78
   7  -8   7    3.15    0.68
   7   8  -6    3.65    0.81
   7  -8   6    1.76    0.62
   7   8  -6    2.73    0.70
   7   8  -5    5.74    0.90
   7  -8   5    4.85    0.73
   7   8  -5    3.45    0.75
   7   8  -4    8.92    1.07
   7  -8   4    8.21    0.85
   7   8  -4   10.62    1.09
   7   8  -3    6.86    0.97
   7  -8   3    5.31    0.78
   7   8  -3    5.89    0.89
   7   8  -2   15.08    1.32
   7  -8   2   14.30    1.11
   7   8  -2   16.76    1.29
   7   8  -1   13.95    1.31
   7   8  -1   15.36    1.13
   7  -8   1   16.62    1.14
   7   8  -1   17.05    1.29
   7   8   0    0.47    0.67
   7  -8   0    2.16    0.65
   7   8   0    0.80    0.55
   7   8   0    0.77    0.58
   7   8   1   15.17    1.33
   7  -8  -1   16.22    1.15
   7   8   1   15.50    1.10
   7   8   1   15.84    1.21
   7   8   2   13.16    1.26
   7   8   2   15.48    1.09
   7   8   2   12.61    1.12
   7   8   3    5.64    0.97
   7   8   3    3.89    0.69
   7   8   3    4.91    0.77
   7   8   4   11.87    1.22
   7   8   4   10.50    0.90
   7   8   4   10.00    1.01
   7   8   5    6.23    1.01
   7   8   5    4.30    0.67
   7   8   5    5.67    0.79
   7   8   6    3.73    0.86
   7   8   6    2.83    0.62
   7   8   6    3.57    0.71
   7   8   7    2.77    0.77
   7   8   7    3.07    0.63
   7   8   7    2.02    0.71
   7   8   8    3.64    0.87
   7   8   8    6.02    0.73
   7   8   8    5.10    0.80
   7   8   9    4.67    0.70
   7   8   9    4.42    0.97
   7   8  10    0.37    0.55
   7   8  10    1.27    0.77
   7   8  11   42.69    1.78
   7   8  11   43.75    2.36
   7   8  12    0.05    0.55
   7   8  12    0.65    0.70
   7   8  13    7.45    0.80
   7   8  13    5.90    1.04
   7   8  14    8.63    0.86
   7   8  15   15.97    1.08
   7   8  16    8.72    0.86
   7   8  17    7.42    0.82
   7   8  18    6.12    0.81
   7   8  19   12.80    1.04
   7   8  20    1.21    0.63
   7   8  21    5.68    0.81
   7   8  22    7.68    0.88
   7   8  23    1.13    0.64
   7   8  24   -0.59    0.68
   7   8  25    2.67    0.68
   7   8  26    5.19    0.82
   7   8  27   11.33    1.07
   7   8  28    7.43    0.89
   7  -9  25    3.51    0.76
   7  -9  24    3.81    0.74
   7  -9  23    3.78    0.75
   7  -9  22   -0.28    0.59
   7  -9  21    1.80    0.65
   7  -9  20    7.60    0.88
   7  -9  19    0.55    0.59
   7  -9  18    0.27    0.53
   7   9 -18    1.10    0.75
   7  -9  17    1.40    0.63
   7   9 -17    0.69    0.76
   7  -9  16    4.19    0.71
   7   9 -16    2.63    0.81
   7  -9  15    5.23    0.74
   7   9 -15    5.16    0.94
   7   9 -14   11.52    1.20
   7  -9  14   10.50    0.91
   7  -9  13    0.21    0.54
   7   9 -13    1.39    0.75
   7  -9  12    4.03    0.66
   7   9 -12    3.17    0.87
   7  -9  11    4.98    0.69
   7   9 -11    4.04    0.89
   7  -9  10    6.86    0.78
   7   9 -10    7.36    1.05
   7   9  -9   10.84    1.20
   7  -9   9   10.28    0.91
   7   9  -8   21.47    1.60
   7   9  -8   16.63    1.41
   7  -9   8   19.89    1.17
   7   9  -7   13.01    1.31
   7   9  -7   15.31    1.34
   7  -9   7   15.33    1.04
   7   9  -7   14.72    1.29
   7   9  -6    5.74    0.95
   7  -9   6    5.44    0.73
   7   9  -6    5.39    0.90
   7   9  -5    6.35    0.98
   7  -9   5    6.47    0.76
   7   9  -5    7.13    0.99
   7   9  -4    6.17    0.97
   7  -9   4    5.49    0.73
   7   9  -4    5.53    0.93
   7   9  -3    0.38    0.65
   7  -9   3    0.06    0.52
   7   9  -3    0.96    0.64
   7   9  -2   17.31    1.45
   7  -9   2   16.96    1.13
   7   9  -2   16.69    1.13
   7   9  -2   15.38    1.30
   7   9  -1   13.96    1.30
   7   9  -1   11.04    0.95
   7  -9   1   12.24    1.00
   7   9  -1   12.09    1.19
   7   9   0   47.03    2.38
   7  -9   0   46.85    1.96
   7   9   0   47.49    1.94
   7   9   0   48.26    2.23
   7   9   1   12.31    1.28
   7  -9  -1   11.89    1.02
   7   9   1   11.39    0.96
   7   9   1   11.36    1.10
   7   9   2   16.59    1.42
   7   9   2   17.22    1.10
   7  -9  -2   14.23    1.10
   7   9   2   18.47    1.35
   7   9   3   -0.10    0.66
   7   9   3    0.58    0.54
   7   9   3    0.87    0.65
   7   9   4    6.92    1.05
   7   9   4    6.95    0.77
   7   9   4    6.99    0.90
   7   9   5    6.97    1.07
   7   9   5    6.69    0.74
   7   9   5    7.36    0.97
   7   9   6    4.52    0.93
   7   9   6    4.55    0.66
   7   9   6    4.47    0.82
   7   9   7   14.58    0.98
   7   9   7   13.32    1.15
   7   9   8   18.66    1.61
   7   9   8   21.20    1.17
   7   9   8   20.56    1.38
   7   9   9    7.18    1.13
   7   9   9    9.27    0.85
   7   9  10    6.81    1.12
   7   9  10    7.73    0.78
   7   9  11    5.67    1.05
   7   9  11    5.12    0.68
   7   9  12    3.59    0.96
   7   9  12    3.90    0.62
   7   9  13    0.79    0.77
   7   9  13    0.29    0.51
   7   9  14    9.36    0.85
   7   9  15    4.81    0.72
   7   9  16    2.79    0.62
   7   9  17    0.67    0.54
   7   9  18    0.57    0.54
   7   9  19    0.69    0.71
   7   9  19    0.26    0.56
   7   9  20    4.09    1.01
   7   9  20    7.64    0.83
   7   9  21    0.68    0.82
   7   9  21    0.92    0.61
   7   9  22    0.33    0.57
   7   9  23    3.84    0.72
   7   9  24    3.21    0.94
   7   9  24    4.65    0.76
   7   9  25    0.94    0.88
   7   9  25    3.63    0.72
   7   9  26    0.40    0.74
   7   9  26   -0.06    0.66
   7   9  27   -0.58    0.75
   7   9  27    0.86    0.56
   7   9  28   -0.28    0.68
   7  10 -18    0.53    0.70
   7 -10  18    1.85    0.62
   7  10 -17    8.55    1.12
   7 -10  17    6.81    0.77
   7  10 -16    2.26    0.76
   7 -10  16    1.71    0.60
   7  10 -15    3.76    0.88
   7 -10  15    3.17    0.61
   7  10 -14    5.86    1.02
   7 -10  14    6.08    0.74
   7  10 -13    4.34    0.94
   7 -10  13    6.40    0.72
   7  10 -12    1.15    0.77
   7 -10  12    1.49    0.55
   7  10 -11    1.06    0.76
   7 -10  11    0.28    0.51
   7  10 -10    3.31    0.91
   7 -10  10    2.43    0.59
   7  10  -9    4.10    0.89
   7 -10   9    3.18    0.61
   7  10  -8    6.93    1.05
   7 -10   8    7.60    0.77
   7  10  -8    7.45    1.04
   7  10  -7    8.35    1.14
   7  10  -7    8.79    1.14
   7 -10   7    6.54    0.72
   7  10  -7    7.85    1.10
   7  10  -6    0.19    0.67
   7  10  -6    0.50    0.77
   7 -10   6    0.33    0.48
   7  10  -6    1.16    0.71
   7  10  -5    0.20    0.71
   7 -10   5    0.48    0.49
   7  10  -5    0.29    0.67
   7  10  -4    1.49    0.71
   7  10  -4    1.51    0.59
   7 -10   4    2.17    0.60
   7  10  -4    2.55    0.85
   7  10  -3   32.40    1.95
   7  10  -3   30.19    1.48
   7 -10   3   30.91    1.45
   7  10  -3   33.37    1.91
   7  10  -2    7.32    1.08
   7  10  -2    6.90    0.79
   7 -10   2    6.65    0.76
   7  10  -2    8.95    1.07
   7  10  -1   36.78    2.11
   7  10  -1   33.58    1.54
   7 -10   1   34.66    1.57
   7  10  -1   34.83    1.96
   7  10   0    3.12    0.90
   7 -10   0    3.38    0.67
   7  10   0    3.16    0.64
   7  10   0    4.22    0.92
   7  10   1   34.15    2.09
   7 -10  -1   36.70    1.63
   7  10   1   33.62    1.53
   7  10   1   37.00    1.96
   7  10   2    5.29    1.00
   7 -10  -2    5.93    0.75
   7  10   2    6.55    0.73
   7  10   2    6.25    0.95
   7  10   3   30.26    1.94
   7 -10  -3   30.67    1.53
   7  10   3   30.75    1.39
   7  10   3   30.16    1.79
   7  10   4    2.38    0.84
   7 -10  -4    2.02    0.62
   7  10   4    2.07    0.54
   7  10   4    2.66    0.76
   7  10   5    0.65    0.75
   7  10   5    0.32    0.48
   7  10   5    0.41    0.64
   7  10   6    0.87    0.74
   7  10   6    0.85    0.49
   7  10   6    0.89    0.69
   7  10   7    6.93    1.10
   7  10   7    8.04    0.75
   7  10   7    6.74    0.96
   7  10   8    6.76    0.70
   7  10   8    6.64    1.12
   7  10   9    3.33    0.58
   7  10   9    3.11    0.86
   7  10  10    2.22    0.56
   7  10  10    3.70    0.90
   7  10  11    1.10    0.51
   7  10  11    0.34    0.75
   7  10  12    0.57    0.49
   7  10  13    5.41    0.65
   7  10  14    4.66    0.68
   7  10  15    3.07    0.62
   7  10  16    1.07    0.54
   7  10  17    5.84    0.73
   7  10  17    6.46    1.13
   7  10  18    1.05    0.56
   7  10  18    0.11    0.81
   7  10  19    1.70    0.58
   7  10  19    0.91    0.81
   7  10  20    0.88    0.55
   7  10  20    0.34    0.80
   7  10  21   -0.10    0.55
   7  10  21    1.55    0.85
   7  10  22    0.15    0.56
   7  10  22    0.65    0.81
   7  10  23   -0.35    0.53
   7  10  23    1.27    0.80
   7  10  24    0.87    0.58
   7  10  24    0.72    0.82
   7  10  25    4.57    0.96
   7  10  26    0.76    0.73
   7  10  27    2.09    0.73
   7  11 -17    6.29    1.04
   7  11 -16    3.41    0.94
   7  11 -15   20.65    1.59
   7  11 -14    8.33    1.14
   7  11 -13   25.55    1.75
   7  11 -12    3.89    0.93
   7  11 -11    5.11    1.01
   7  11 -10    2.19    0.86
   7  11  -9   29.59    1.92
   7  11  -9   28.26    1.91
   7  11  -8   -0.20    0.74
   7  11  -8    1.66    0.79
   7  11  -7   30.15    1.91
   7  11  -7   25.42    1.78
   7  11  -7   26.39    1.81
   7  11  -6   15.31    1.44
   7  11  -6   14.27    1.39
   7  11  -6   14.07    1.02
   7  11  -6   12.67    1.34
   7  11  -5   16.93    1.49
   7  11  -5   18.34    1.10
   7  11  -5   16.82    1.48
   7  11  -4   26.72    1.83
   7  11  -4   24.63    1.27
   7  11  -4   23.27    1.72
   7  11  -3   38.03    1.62
   7  11  -3   37.82    2.17
   7  11  -2   47.96    2.48
   7  11  -2   42.23    1.70
   7  11  -2   45.77    2.29
   7  11  -1   66.42    3.02
   7  11  -1   66.15    2.22
   7  11  -1   65.59    2.87
   7  11   0   21.52    1.70
   7  11   0   20.71    1.11
   7  11   0   19.58    1.55
   7  11   1   66.40    3.01
   7  11   1   64.70    2.16
   7  11   1   67.79    2.85
   7  11   2   46.50    2.48
   7  11   2   43.54    1.67
   7  11   2   46.76    2.30
   7  11   3   43.67    2.39
   7  11   3   39.69    1.57
   7  11   3   41.97    2.16
   7  11   4   26.13    1.85
   7  11   4   23.36    1.14
   7  11   4   24.26    1.63
   7  11   5   19.51    1.65
   7  11   5   16.33    0.96
   7  11   5   18.28    1.42
   7  11   6   13.01    1.42
   7  11   6   14.16    0.89
   7  11   6   13.63    1.27
   7  11   7   22.22    1.75
   7  11   7   23.88    1.14
   7  11   7   24.04    1.60
   7  11   8    0.04    0.47
   7  11   8    1.36    0.86
   7  11   9   27.71    1.23
   7  11   9   26.95    1.93
   7  11  10    1.73    0.50
   7  11  11    6.96    0.67
   7  11  12    3.77    0.59
   7  11  13   25.59    1.21
   7  11  14    8.20    0.74
   7  11  15   21.80    1.12
   7  11  15   22.14    1.78
   7  11  16    4.47    0.62
   7  11  16    3.43    1.02
   7  11  17    6.48    1.11
   7  11  18    8.90    1.23
   7  11  19    1.45    0.82
   7  11  20   -0.77    0.83
   7  11  21    0.21    0.69
   7  11  22   -0.10    0.73
   7  11  23    5.36    0.99
   7  11  24    1.07    0.75
   7  11  25    0.09    0.66
   7  11  26    2.03    0.75
   7  12 -23    4.63    0.77
   7  12 -16    4.67    0.92
   7  12 -15    1.23    0.77
   7  12 -14    3.06    0.84
   7  12 -13    1.74    0.85
   7  12 -12    1.07    0.78
   7  12 -11    5.32    1.01
   7  12 -11    4.50    1.03
   7  12 -10   15.15    1.45
   7  12 -10   15.80    1.48
   7  12  -9   58.85    2.75
   7  12  -9   54.36    2.74
   7  12  -8   13.84    1.43
   7  12  -8   14.11    1.46
   7  12  -7   53.13    2.66
   7  12  -7   57.43    2.74
   7  12  -6   23.36    1.76
   7  12  -6   21.82    1.70
   7  12  -5   36.96    2.21
   7  12  -5   37.32    2.16
   7  12  -4    0.64    0.83
   7  12  -4    0.93    0.80
   7  12  -3   32.23    2.09
   7  12  -3   35.42    2.08
   7  12  -2    4.04    0.99
   7  12  -2    3.37    0.94
   7  12  -2    2.89    0.90
   7  12  -1    2.87    0.91
   7  12  -1    1.62    0.79
   7  12  -1    3.33    0.88
   7  12   0    0.44    0.70
   7  12   0    0.68    0.68
   7  12   1    2.57    0.86
   7  12   1    2.97    0.83
   7  12   2    2.24    0.87
   7  12   2    2.54    0.79
   7  12   3   33.20    2.14
   7  12   3   36.50    2.04
   7  12   4    2.17    0.94
   7  12   4    2.28    0.82
   7  12   5   34.89    2.23
   7  12   5   35.82    1.99
   7  12   6   23.78    1.86
   7  12   6   24.34    1.69
   7  12   7   52.32    2.74
   7  12   7   49.71    2.42
   7  12  13    1.15    0.79
   7  12  14    3.54    1.08
   7  12  15    0.11    0.74
   7  12  16    2.24    0.84
   7  12  17    0.11    0.73
   7  12  18    4.24    1.07
   7  12  19    6.27    1.07
   7  12  20    0.62    0.75
   7  12  21    2.92    0.89
   7  12  22    1.36    0.75
   7  12  23    2.71    0.83
   7  12  24   -0.09    0.69
   7  13 -15    1.61    0.81
   7  13 -14    3.24    0.92
   7  13 -14    2.55    0.91
   7  13 -13    3.66    0.91
   7  13 -13    4.12    0.96
   7  13 -12    2.62    0.89
   7  13 -12    0.89    0.81
   7  13 -11    8.92    1.21
   7  13 -11    7.88    1.18
   7  13 -10    1.48    0.79
   7  13 -10   -0.44    0.80
   7  13  -9    3.28    0.97
   7  13  -9    4.21    1.01
   7  13  -8   18.05    1.55
   7  13  -7   17.71    1.58
   7  13  -6   10.33    1.26
   7  13  -5    6.28    1.08
   7  13  -4    2.20    0.82
   7  13  -4    1.51    0.83
   7  13  -4    1.47    0.80
   7  13  -3   12.35    1.34
   7  13  -3   11.98    1.35
   7  13  -3   13.57    1.38
   7  13  -2   15.91    1.57
   7  13  -2   20.32    1.59
   7  13  -2   18.84    1.58
   7  13  -1    1.23    0.83
   7  13  -1    1.42    0.80
   7  13  -1    1.82    0.86
   7  13   0   10.14    1.23
   7  13   0   13.08    1.39
   7  13   0   12.06    1.32
   7  13   1    0.57    0.80
   7  13   1    0.40    0.75
   7  13   1    1.57    0.80
   7  13   2   18.89    1.51
   7  13   2   14.48    1.49
   7  13   2   16.76    1.46
   7  13   3   10.30    1.33
   7  13   3   13.72    1.26
   7  13   4    0.57    0.79
   7  13   4    0.66    0.80
   7  13   5    4.75    0.93
   7  13   6   12.34    1.29
   7  13  10    0.12    0.83
   7  13  11    4.72    1.08
   7  13  12    0.80    0.84
   7  13  13    3.40    0.98
   7  13  14    3.80    0.96
   7  13  15    2.87    0.91
   7  13  16    0.76    0.79
   7  13  17    0.21    0.77
   7  13  18    6.86    1.10
   7  13  19    2.53    0.90
   7  13  20    9.59    1.18
   7  13  21    2.92    0.84
   7  13  22    0.72    0.71
   7  13  23    2.15    0.72
   7  14 -18    5.89    1.10
   7  14 -17    3.06    0.94
   7  14 -16    1.07    0.84
   7  14 -15    1.41    0.83
   7  14 -14    1.96    0.89
   7  14 -13    5.60    1.02
   7  14 -13    6.71    1.11
   7  14 -12    2.68    0.89
   7  14 -12    0.66    0.83
   7  14 -11    1.16    0.80
   7  14 -11    0.33    0.87
   7  14 -10    9.03    1.20
   7  14 -10    9.98    1.27
   7  14  -9    0.88    0.80
   7  14  -8    2.84    0.94
   7  14  -7    0.33    0.83
   7  14  -6    8.38    1.20
   7  14  -6    6.17    1.12
   7  14  -5    6.43    1.06
   7  14  -5    8.01    1.13
   7  14  -4    2.37    0.84
   7  14  -4    2.43    0.91
   7  14  -3    1.12    0.86
   7  14  -3    0.10    0.91
   7  14  -3    0.21    0.80
   7  14  -2    4.14    1.02
   7  14  -2    2.92    0.87
   7  14  -2    3.21    0.93
   7  14  -1    3.70    0.97
   7  14  -1    5.02    0.98
   7  14  -1    2.45    0.87
   7  14   0    6.22    1.08
   7  14   0    5.06    0.96
   7  14   0    4.64    0.97
   7  14   1    5.11    1.05
   7  14   1    3.77    0.94
   7  14   1    5.76    1.01
   7  14   2    2.51    0.90
   7  14   2    4.23    0.89
   7  14   2    1.77    0.83
   7  14   3    1.98    0.82
   7  14   3    1.25    0.85
   7  14   4    3.24    0.87
   7  14   4    4.97    0.90
   7  14   5    6.96    1.05
   7  14   5    7.37    1.10
   7  14   6    6.79    1.02
   7  14   6    6.66    1.08
   7  14   7    0.43    0.69
   7  14   8    5.93    1.13
   7  14   8    2.43    0.81
   7  14   9    0.34    0.80
   7  14   9    0.16    0.66
   7  14  10    7.33    1.17
   7  14  10    9.80    1.08
   7  14  11    1.46    0.87
   7  14  12    0.44    0.81
   7  14  13    4.90    1.01
   7  14  14    0.64    0.81
   7  14  15    0.95    0.80
   7  14  16    0.72    0.78
   7  14  17    1.70    0.83
   7  14  18    6.04    1.05
   7  14  19    8.55    1.13
   7  14  20    5.59    0.98
   7  14  21    0.60    0.71
   7  15 -19    8.83    1.19
   7  15 -18    2.93    0.90
   7  15 -17    7.22    1.14
   7  15 -16    3.17    0.91
   7  15 -15    2.19    0.87
   7  15 -14    0.11    0.83
   7  15 -13    0.86    0.78
   7  15 -12    1.93    0.90
   7  15 -11    0.43    0.77
   7  15 -10    1.40    0.93
   7  15  -9    3.98    0.98
   7  15  -8   10.35    1.25
   7  15  -8    9.57    1.28
   7  15  -7   25.17    1.77
   7  15  -7   29.43    1.95
   7  15  -6    4.25    1.01
   7  15  -6    2.54    0.92
   7  15  -5   16.17    1.45
   7  15  -5   13.66    1.35
   7  15  -4    5.84    1.05
   7  15  -4    7.19    1.13
   7  15  -3    0.56    0.74
   7  15  -3    1.97    0.79
   7  15  -2    2.99    0.87
   7  15  -2    2.57    0.91
   7  15  -1    3.45    0.96
   7  15  -1    4.44    0.96
   7  15  -1    3.04    0.87
   7  15   0    6.57    1.10
   7  15   0    6.68    1.05
   7  15   0    6.81    1.09
   7  15   1    3.51    0.91
   7  15   1    6.13    1.02
   7  15   2    1.86    0.81
   7  15   2    4.08    0.93
   7  15   3    1.30    0.80
   7  15   3    2.12    0.83
   7  15   4    7.30    1.02
   7  15   4    9.14    1.18
   7  15   5   12.32    1.23
   7  15   5   13.03    1.32
   7  15   6    3.12    0.98
   7  15   6    4.59    0.94
   7  15   7   26.22    1.89
   7  15   7   23.47    1.58
   7  15   8    7.89    1.20
   7  15   8    9.02    1.02
   7  15   9    5.65    1.09
   7  15   9    6.99    0.96
   7  15  10    3.76    0.92
   7  15  10    2.26    0.69
   7  15  11    1.27    0.84
   7  15  11    0.94    0.60
   7  15  12    1.26    0.84
   7  15  12    1.33    0.62
   7  15  13    2.06    0.85
   7  15  14    0.20    0.75
   7  15  15    1.27    0.76
   7  15  16    1.52    0.80
   7  15  17    7.07    1.07
   7  15  18    2.65    0.79
   7  16 -16    4.48    0.93
   7  16 -15    0.97    0.78
   7  16 -14    1.28    0.84
   7  16 -13    8.80    1.18
   7  16 -12    4.06    0.98
   7  16 -11    1.23    0.84
   7  16 -10    1.54    0.88
   7  16  -9    9.06    1.15
   7  16  -9    6.15    1.08
   7  16  -8    1.53    0.85
   7  16  -8    0.41    0.77
   7  16  -7    2.06    0.84
   7  16  -7    1.95    0.81
   7  16  -6    6.79    1.07
   7  16  -6    5.41    1.05
   7  16  -5   13.27    1.27
   7  16  -5   13.92    1.38
   7  16  -4    1.15    0.79
   7  16  -4    0.91    0.80
   7  16  -3   -0.53    0.85
   7  16  -3   -0.30    0.83
   7  16  -2    3.56    0.92
   7  16  -2    3.87    0.94
   7  16  -1   11.58    1.24
   7  16  -1   12.32    1.30
   7  16   0   -0.34    0.78
   7  16   0    0.29    0.78
   7  16   1   11.76    1.19
   7  16   1   12.10    1.33
   7  16   2    3.28    0.89
   7  16   2    4.94    1.00
   7  16   3   -0.11    0.78
   7  16   3    0.48    0.67
   7  16   3    0.75    0.81
   7  16   4    1.39    0.87
   7  16   4    1.17    0.72
   7  16   4    1.30    0.83
   7  16   5   14.71    1.42
   7  16   5   12.60    1.18
   7  16   6    6.56    1.11
   7  16   6    7.18    0.96
   7  16   7    0.84    0.75
   7  16   7    1.83    0.72
   7  16   8   -0.31    0.79
   7  16   8    0.88    0.62
   7  16   9    7.88    1.11
   7  16   9    7.22    0.87
   7  16  10    0.50    0.78
   7  16  10    0.31    0.59
   7  16  11    1.38    0.80
   7  16  12    5.21    1.03
   7  16  13    7.23    1.07
   7  16  14    1.64    0.74
   7  16  15    0.88    0.70
   7  16  16    5.35    0.89
   7  17 -13    5.05    0.98
   7  17 -12    0.09    0.70
   7  17 -11    6.94    1.06
   7  17 -10    6.17    1.05
   7  17  -9    2.29    0.86
   7  17  -8   -0.10    0.70
   7  17  -7    0.42    0.70
   7  17  -7    0.10    0.73
   7  17  -6    3.07    0.83
   7  17  -6    4.72    1.01
   7  17  -5    6.75    1.02
   7  17  -5    5.18    1.02
   7  17  -4    3.02    0.89
   7  17  -4    2.96    0.91
   7  17  -3    2.42    0.81
   7  17  -3    3.04    0.88
   7  17  -2    0.79    0.73
   7  17  -2   -0.28    0.73
   7  17  -1    0.47    0.71
   7  17  -1    1.02    0.77
   7  17   0    2.30    0.80
   7  17   0    0.37    0.73
   7  17   1    0.82    0.72
   7  17   1    0.83    0.76
   7  17   2    1.32    0.66
   7  17   2    1.18    0.75
   7  17   3    2.72    0.96
   7  17   3    2.98    0.73
   7  17   3    2.40    0.81
   7  17   4    5.01    1.03
   7  17   4    3.03    0.75
   7  17   5    6.54    1.09
   7  17   5    5.42    0.83
   7  17   6    3.13    0.90
   7  17   6    2.61    0.71
   7  17   7    2.41    0.85
   7  17   7    0.06    0.53
   7  17   8    0.19    0.69
   7  17   8   -0.06    0.57
   7  17   9    2.43    0.89
   7  17  10    3.29    0.89
   7  17  11    9.45    1.12
   7  17  12    0.52    0.70
   7  17  13    4.26    0.89
   7  18  -4    2.28    0.89
   7  18  -3    0.29    0.63
   7  18  -3    0.44    0.69
   7  18  -2    4.77    0.85
   7  18  -2    4.67    0.92
   7  18  -1    4.59    0.82
   7  18  -1    6.04    0.95
   7  18   0   -0.54    0.70
   7  18   0    0.43    0.78
   7  18   1    5.69    0.82
   7  18   1    5.84    0.98
   7  18   2    3.71    0.77
   7  18   3    0.86    0.59
   7  18   4    1.60    0.63
   7  18   7    0.61    0.63
   7  18   8    0.59    0.70
   8   0   0    8.29    0.80
   8   0  -1    0.82    0.49
   8   0   1    1.33    0.52
   8   0   2    8.96    1.05
   8   0   2    8.62    0.88
   8   0  -2    9.15    0.80
   8   0   3    1.68    0.68
   8   0  -3    2.01    0.49
   8   0   3    0.78    0.53
   8   0   4   18.72    1.38
   8   0   5    0.82    0.65
   8   0   6   14.95    1.23
   8   0   7    5.71    0.88
   8   0   8   18.78    1.40
   8   0   9   39.62    1.97
   8   0  10   74.97    2.89
   8   0  11   -0.15    0.65
   8   0  12    7.81    0.97
   8   0  13    0.68    0.70
   8   0 -13    0.82    0.57
   8   0  14    3.45    0.80
   8   0  15    0.61    0.67
   8   0  16    1.57    0.72
   8   0  17    1.49    0.72
   8   0  18    0.15    0.66
   8   0  19    4.05    0.87
   8   0  20    3.84    0.89
   8   0  21   17.81    1.37
   8   0  22   13.25    1.21
   8   0  23    2.65    0.81
   8   0  24    2.27    0.79
   8   0  25    7.91    1.03
   8   0  26    1.35    0.77
   8   0  27    1.18    0.79
   8   0  28    5.92    0.95
   8   0  29    0.98    0.73
   8  -1  29   13.05    1.19
   8  -1  28    4.67    0.91
   8  -1  27    0.59    0.72
   8  -1  26    3.21    0.87
   8  -1  25    1.66    0.81
   8  -1  24    0.15    0.71
   8  -1  23    0.38    0.71
   8  -1  22    6.50    0.99
   8  -1  21    1.13    0.70
   8  -1  20    6.02    0.96
   8  -1  19    3.37    0.80
   8  -1  18    6.06    0.96
   8  -1  17   25.06    1.54
   8  -1  16   14.60    1.24
   8   1 -15   12.80    0.99
   8  -1  15   12.77    1.17
   8   1 -14    8.39    0.89
   8  -1  14    8.93    1.02
   8  -1  13    9.07    1.07
   8   1 -13   11.92    1.03
   8  -1  12   25.69    1.57
   8  -1  11    4.42    0.84
   8  -1  10    3.23    0.77
   8  -1   9   21.77    1.44
   8  -1   8   38.64    1.96
   8  -1   7    5.94    0.91
   8  -1   6    3.53    0.80
   8  -1   5    9.88    1.07
   8   1  -5    8.64    0.77
   8  -1   4    4.88    0.85
   8   1  -4    6.03    0.69
   8  -1   3    8.67    1.03
   8   1  -3    8.98    0.82
   8  -1   2   13.20    1.21
   8  -1   2   12.93    0.97
   8   1  -2   14.08    1.01
   8   1  -1    3.45    0.64
   8  -1   1    3.36    0.58
   8   1   0    4.14    0.67
   8  -1   0    5.13    0.64
   8  -1  -1    2.63    0.51
   8   1   1    3.94    0.69
   8   1   2   13.46    1.07
   8   1   3    8.79    0.93
   8   1   4    5.57    0.79
   8  -2  29   -0.07    0.66
   8  -2  28    2.12    0.78
   8  -2  27    2.69    0.84
   8  -2  26    2.51    0.81
   8  -2  25    0.45    0.75
   8  -2  24   12.39    1.21
   8   2 -23    1.18    0.60
   8  -2  23    1.20    0.75
   8   2 -22    1.42    0.63
   8  -2  22    2.02    0.78
   8   2 -21    0.78    0.62
   8  -2  21    2.32    0.79
   8   2 -20    2.93    0.72
   8  -2  20    2.24    0.79
   8   2 -19    5.85    0.84
   8  -2  19    5.79    0.94
   8   2 -18   20.26    1.39
   8  -2  18   21.94    1.48
   8   2 -17    5.91    0.85
   8  -2  17    8.07    0.98
   8  -2  16    4.71    0.87
   8   2 -16    4.04    0.75
   8   2 -15   38.28    1.79
   8  -2  15   39.07    1.94
   8   2 -14   30.73    1.61
   8  -2  14   29.42    1.70
   8   2 -13   23.02    1.40
   8  -2  13   20.10    1.43
   8  -2  12   23.22    1.51
   8  -2  11    8.09    1.00
   8  -2  10    7.09    0.96
   8  -2   9    0.38    0.66
   8  -2   8   19.61    1.39
   8   2  -7    8.44    0.78
   8  -2   7    9.03    1.02
   8   2  -7    7.34    0.74
   8   2  -6    4.40    0.66
   8  -2   6    3.98    0.81
   8   2  -6    4.51    0.60
   8  -2   5    2.36    0.71
   8   2  -5    3.29    0.63
   8  -2   4    1.40    0.70
   8   2  -4    0.36    0.49
   8  -2   3   19.68    1.42
   8   2  -3   19.44    1.23
   8  -2   2   -0.68    0.69
   8   2  -2    0.32    0.54
   8  -2   2   -0.05    0.51
   8   2  -1   50.28    2.11
   8   2   0   65.79    2.53
   8   2   1   53.90    2.25
   8   2   2   -0.15    0.57
   8   2   3   17.27    1.27
   8   2   4    0.77    0.59
   8   2   5    1.98    0.66
   8   2  24   10.39    1.15
   8   2  25   -0.30    0.75
   8   2  26    1.54    0.75
   8   2  27    2.46    0.83
   8   2  28    2.04    0.81
   8   2  29   -0.07    0.68
   8  -3  29    1.16    0.71
   8  -3  28   -0.48    0.70
   8   3 -27    1.66    0.66
   8  -3  27    3.20    0.82
   8   3 -26    3.24    0.79
   8  -3  26    1.95    0.81
   8   3 -25    2.72    0.76
   8  -3  25    3.29    0.82
   8   3 -24    4.50    0.83
   8  -3  24    5.79    0.92
   8   3 -23    1.01    0.70
   8  -3  23    1.62    0.77
   8   3 -22    1.26    0.74
   8  -3  22    2.66    0.83
   8   3 -21   13.94    1.28
   8  -3  21   17.14    1.31
   8   3 -20    9.68    1.08
   8  -3  20   13.50    1.19
   8   3 -19    1.72    0.69
   8  -3  19    0.73    0.73
   8   3 -18    1.69    0.68
   8   3 -18    0.83    0.55
   8  -3  18    0.07    0.71
   8   3 -17    3.30    0.69
   8  -3  17    2.71    0.78
   8   3 -16    0.46    0.59
   8  -3  16    1.66    0.67
   8   3 -15    2.47    0.72
   8  -3  15    2.05    0.75
   8   3 -14    5.48    0.84
   8  -3  14    4.56    0.86
   8   3 -13    4.64    0.85
   8  -3  13    6.29    0.93
   8  -3  12    3.33    0.81
   8  -3  11    0.07    0.68
   8  -3  10   36.64    1.88
   8  -3   9   14.15    1.22
   8   3  -8  118.02    3.61
   8  -3   8  123.26    3.96
   8   3  -7    5.16    0.74
   8  -3   7    6.29    0.95
   8   3  -7    5.99    0.79
   8   3  -6   89.14    2.92
   8  -3   6   86.03    3.16
   8   3  -6   80.81    2.76
   8   3  -5   47.86    2.04
   8  -3   5   50.95    2.28
   8   3  -5   49.63    1.96
   8   3  -4   33.10    1.67
   8  -3   4   35.67    1.91
   8   3  -4   33.96    1.52
   8   3  -3    2.24    0.64
   8  -3   3    2.63    0.78
   8   3  -3    2.28    0.55
   8   3  -2    8.43    0.90
   8  -3   2   10.03    1.09
   8   3  -2    8.62    0.76
   8   3  -1    9.81    0.98
   8  -3   1   10.46    1.14
   8   3  -1    9.82    0.80
   8   3   0    0.59    0.56
   8   3   0    0.04    0.41
   8   3   1    9.54    0.98
   8   3   1    9.53    1.09
   8   3   1   10.96    0.79
   8   3   2    7.29    0.93
   8   3   2    7.84    0.99
   8   3   2    9.02    0.72
   8   3   3    2.09    0.67
   8   3   3    1.64    0.73
   8   3   3    2.19    0.48
   8   3   4   35.54    1.89
   8   3   4   33.04    1.84
   8   3   5   49.97    2.25
   8   3   5   44.74    2.22
   8   3   6   88.34    3.17
   8   3   6   79.48    3.14
   8   3   7    7.40    0.99
   8   3   8  124.89    4.03
   8   3   9   14.34    1.22
   8   3  10   36.37    1.86
   8   3  11    1.63    0.70
   8   3  12    3.30    0.80
   8   3  13    5.19    0.86
   8   3  14    4.37    0.86
   8   3  15    3.99    0.84
   8   3  16   -0.07    0.67
   8   3  17    2.32    0.77
   8   3  18    0.87    0.71
   8   3  19    1.38    0.72
   8   3  20   14.47    1.22
   8   3  21   17.78    1.33
   8   3  22    2.63    0.82
   8   3  23    0.88    0.77
   8   3  24    5.45    0.91
   8   3  25    2.61    0.79
   8   3  26    4.80    0.90
   8   3  27    1.91    0.75
   8   3  28   -0.61    0.72
   8   3  29    0.88    0.70
   8   4 -28    1.99    0.70
   8  -4  28    2.94    0.80
   8   4 -27    0.33    0.62
   8  -4  27    0.34    0.70
   8   4 -26    5.66    0.95
   8  -4  26    5.84    0.92
   8   4 -25    3.37    0.82
   8  -4  25    3.97    0.84
   8   4 -24    7.88    1.04
   8  -4  24    9.24    1.08
   8   4 -23    3.17    0.82
   8  -4  23    2.80    0.80
   8   4 -22    5.75    0.94
   8  -4  22    7.41    0.98
   8   4 -21   12.54    1.28
   8  -4  21   14.53    1.21
   8   4 -20    4.22    0.89
   8  -4  20    4.52    0.89
   8   4 -19   13.03    1.10
   8  -4  19   17.35    1.30
   8  -4  18    8.98    1.04
   8   4 -18    7.99    0.92
   8  -4  17    2.57    0.77
   8   4 -17    2.97    0.76
   8   4 -16   15.12    1.20
   8  -4  16   16.34    1.26
   8  -4  15    2.58    0.77
   8   4 -15    3.01    0.77
   8   4 -14   13.11    1.17
   8  -4  14   13.24    1.18
   8   4 -13    3.77    0.82
   8  -4  13    5.06    0.85
   8   4 -12    1.06    0.70
   8  -4  12    0.51    0.69
   8  -4  11   11.44    1.11
   8  -4  10   30.12    1.70
   8   4  -9   28.50    1.47
   8  -4   9   25.67    1.58
   8   4  -8   18.22    1.19
   8  -4   8   15.50    1.26
   8   4  -7   28.69    1.52
   8  -4   7   26.68    1.61
   8   4  -7   26.31    1.45
   8   4  -6   27.49    1.51
   8  -4   6   27.91    1.64
   8   4  -6   24.71    1.40
   8   4  -5    8.55    0.92
   8  -4   5    6.63    0.94
   8   4  -5    8.26    0.84
   8   4  -4    7.77    0.88
   8  -4   4    5.82    0.94
   8   4  -4    6.41    0.75
   8   4  -3    4.74    0.78
   8  -4   3    3.47    0.80
   8   4  -3    3.57    0.62
   8   4  -2    3.65    0.77
   8  -4   2    3.53    0.82
   8   4  -2    2.18    0.57
   8   4  -1   20.36    1.40
   8  -4   1   21.62    1.50
   8   4  -1   20.40    1.18
   8   4   0   20.47    1.39
   8   4   0   20.40    1.17
   8   4   1   19.58    1.41
   8   4   1   21.13    1.46
   8   4   1   20.19    1.15
   8   4   2    3.14    0.76
   8   4   2    2.68    0.74
   8   4   2    3.77    0.61
   8   4   3    3.33    0.74
   8   4   3    4.41    0.82
   8   4   3    3.97    0.61
   8   4   4    6.99    0.96
   8   4   4    7.41    0.98
   8   4   4    6.33    0.68
   8   4   5    8.12    1.00
   8   4   5    8.38    1.03
   8   4   6   26.65    1.61
   8   4   6   28.94    1.76
   8   4   7   30.66    1.69
   8   4   7   23.99    1.68
   8   4   8   17.18    1.28
   8   4   9   27.00    1.59
   8   4  10   32.04    1.71
   8   4  11   11.23    1.09
   8   4  12    1.15    0.64
   8   4  13    4.26    0.79
   8   4  14   15.13    1.23
   8   4  15    1.83    0.72
   8   4  16   16.26    1.26
   8   4  17    2.26    0.72
   8   4  18    9.64    1.06
   8   4  19   14.92    1.19
   8   4  20    3.40    0.80
   8   4  21   14.19    1.22
   8   4  22    6.89    0.95
   8   4  23    3.33    0.82
   8   4  24   10.18    1.08
   8   4  25    4.29    0.86
   8   4  26    6.53    0.93
   8   4  27   -0.20    0.69
   8   4  28    2.97    0.80
   8  -5  28    1.67    0.69
   8   5 -27    3.47    0.83
   8  -5  27    3.19    0.79
   8   5 -26    1.66    0.79
   8  -5  26    2.22    0.79
   8   5 -25    1.69    0.73
   8  -5  25    2.88    0.80
   8   5 -24    3.45    0.83
   8  -5  24    3.04    0.77
   8   5 -23    5.42    0.97
   8  -5  23    5.34    0.90
   8  -5  22    2.64    0.77
   8  -5  21    7.82    1.01
   8  -5  20    4.52    0.85
   8   5 -20    4.91    0.77
   8  -5  19    1.04    0.73
   8   5 -19    1.13    0.61
   8  -5  18    8.60    0.99
   8   5 -18    8.60    0.98
   8  -5  17    8.71    0.99
   8   5 -17    7.72    0.93
   8  -5  16    5.97    0.92
   8   5 -16    6.43    0.94
   8   5 -15   47.97    2.24
   8  -5  15   47.58    2.10
   8   5 -14   10.86    1.12
   8  -5  14   11.25    1.08
   8   5 -13   50.56    2.29
   8  -5  13   45.96    2.09
   8   5 -12   13.63    1.26
   8  -5  12   13.06    1.15
   8   5 -11   12.44    1.28
   8  -5  11   15.89    1.23
   8  -5  10    5.43    0.84
   8   5  -9   11.14    1.01
   8  -5   9    9.82    1.03
   8   5  -8    2.44    0.69
   8  -5   8    2.26    0.74
   8   5  -7    1.72    0.64
   8  -5   7    2.51    0.77
   8   5  -7    1.40    0.60
   8   5  -6    5.47    0.82
   8  -5   6    4.34    0.82
   8   5  -6    4.44    0.75
   8   5  -5    5.98    0.84
   8  -5   5    5.31    0.87
   8   5  -5    5.89    0.79
   8   5  -4    1.87    0.67
   8  -5   4    2.47    0.77
   8   5  -4    2.54    0.63
   8   5  -3    8.08    0.94
   8  -5   3    8.51    0.99
   8   5  -3    7.80    0.87
   8   5  -2   20.02    1.42
   8  -5   2   19.78    1.41
   8   5  -2   19.74    1.23
   8   5  -1    0.59    0.61
   8  -5   1    0.65    0.63
   8   5  -1    0.96    0.53
   8   5   0   10.99    1.11
   8  -5   0   12.66    1.17
   8   5   0   12.40    1.16
   8   5   0   11.74    0.95
   8   5   1    1.82    0.68
   8   5   1    0.81    0.64
   8   5   1    2.00    0.60
   8   5   2   15.17    1.35
   8   5   2   18.66    1.37
   8   5   2   17.77    1.12
   8   5   3    5.37    0.93
   8   5   3    8.47    1.00
   8   5   3    7.06    0.78
   8   5   4    3.41    0.86
   8   5   4    2.90    0.72
   8   5   4    2.15    0.59
   8   5   5    6.10    0.98
   8   5   5    7.48    0.95
   8   5   5    6.86    0.75
   8   5   6    4.04    0.81
   8   5   6    6.22    0.98
   8   5   7    2.25    0.67
   8   5   7    1.74    0.76
   8   5   8    3.58    0.76
   8   5   8    3.75    0.88
   8   5   9    9.56    0.99
   8   5   9    8.10    1.14
   8   5  10    6.46    0.89
   8   5  11   14.96    1.19
   8   5  12   13.55    1.14
   8   5  13   45.95    2.05
   8   5  14   10.46    1.06
   8   5  15   44.82    2.02
   8   5  16    6.55    0.90
   8   5  17    7.39    0.94
   8   5  18    7.56    0.93
   8   5  19    0.96    0.72
   8   5  20    5.60    0.89
   8   5  21    9.47    1.04
   8   5  22    2.12    0.79
   8   5  23    4.43    0.86
   8   5  24    2.72    0.78
   8   5  25    2.76    0.76
   8   5  26    1.46    0.74
   8   5  27    4.62    0.83
   8   5  28    1.14    0.69
   8  -6  27   11.55    1.11
   8  -6  26    1.97    0.73
   8  -6  25    4.43    0.86
   8  -6  24   -0.86    0.73
   8  -6  23    1.06    0.73
   8  -6  22    3.06    0.77
   8  -6  21    7.48    0.96
   8   6 -20    9.97    1.04
   8  -6  20    9.17    1.02
   8  -6  19   -0.20    0.71
   8   6 -19    0.36    0.64
   8  -6  18    3.27    0.74
   8   6 -18    3.01    0.77
   8  -6  17    9.11    1.03
   8   6 -17    7.48    1.00
   8  -6  16    9.65    1.02
   8   6 -16   10.49    1.12
   8  -6  15    4.00    0.79
   8   6 -15    2.97    0.86
   8   6 -14   26.53    1.67
   8  -6  14   23.70    1.46
   8   6 -13   25.71    1.70
   8  -6  13   28.07    1.60
   8   6 -12   31.95    1.86
   8  -6  12   27.09    1.57
   8   6 -11   37.25    2.09
   8  -6  11   39.28    1.88
   8  -6  10   27.48    1.57
   8  -6   9   37.52    1.84
   8   6  -8   10.41    1.06
   8  -6   8    8.71    0.97
   8   6  -8    8.69    1.01
   8   6  -7    5.14    0.83
   8  -6   7    4.68    0.80
   8   6  -6    3.91    0.84
   8  -6   6    5.12    0.84
   8   6  -6    3.97    0.80
   8   6  -5   26.88    1.66
   8  -6   5   31.77    1.69
   8   6  -5   27.98    1.60
   8   6  -4   19.11    1.40
   8  -6   4   17.63    1.31
   8   6  -4   17.86    1.27
   8   6  -3   21.23    1.49
   8  -6   3   21.08    1.42
   8   6  -3   22.35    1.40
   8   6  -2   19.68    1.47
   8  -6   2   18.36    1.35
   8   6  -2   20.01    1.30
   8   6  -1    8.08    1.04
   8  -6   1    9.31    1.04
   8   6  -1    8.07    0.99
   8   6  -1    7.64    0.88
   8   6   0   43.45    2.22
   8  -6   0   49.06    2.21
   8   6   0   44.04    2.14
   8   6   0   44.72    1.97
   8   6   1    7.46    0.99
   8   6   1    8.35    0.99
   8   6   1    9.38    0.94
   8   6   2   17.41    1.43
   8   6   2   20.33    1.41
   8   6   2   22.04    1.30
   8   6   3   21.92    1.59
   8   6   3   21.85    1.44
   8   6   3   20.61    1.27
   8   6   4   17.78    1.47
   8   6   4   17.62    1.30
   8   6   4   17.33    1.18
   8   6   5   27.45    1.58
   8   6   5   30.39    1.49
   8   6   6    2.20    0.76
   8   6   6    3.59    0.77
   8   6   7    1.83    0.77
   8   6   7    3.25    0.72
   8   6   8    8.14    1.14
   8   6   8   11.75    1.06
   8   6   9   34.92    2.10
   8   6   9   38.11    1.82
   8   6  10   19.45    1.64
   8   6  10   24.16    1.45
   8   6  11   30.02    2.00
   8   6  11   36.04    1.77
   8   6  12   26.55    1.55
   8   6  13   23.32    1.44
   8   6  14   24.77    1.45
   8   6  15    2.87    0.75
   8   6  16    8.26    0.97
   8   6  17    7.15    0.90
   8   6  18    3.06    0.74
   8   6  19   -0.07    0.62
   8   6  20    9.10    1.02
   8   6  21    7.32    0.92
   8   6  22    1.76    0.75
   8   6  23    2.27    0.73
   8   6  24   -0.06    0.67
   8   6  25    5.87    0.89
   8   6  26    2.05    0.71
   8   6  27   14.30    1.12
   8  -7  26    6.21    0.84
   8  -7  25    1.03    0.71
   8  -7  24    4.84    0.83
   8  -7  23    5.14    0.82
   8  -7  22    4.79    0.83
   8  -7  21    9.48    0.99
   8  -7  20    0.89    0.64
   8   7 -19    4.92    0.90
   8  -7  19    4.51    0.79
   8   7 -18    8.43    0.99
   8  -7  18    7.22    0.91
   8   7 -17    7.36    0.99
   8  -7  17    7.17    0.91
   8   7 -16    1.82    0.81
   8  -7  16    2.40    0.71
   8   7 -15    3.52    0.93
   8  -7  15    5.02    0.81
   8   7 -14    2.56    0.82
   8  -7  14    3.42    0.72
   8   7 -13    2.08    0.85
   8  -7  13    2.10    0.69
   8   7 -12   10.53    1.20
   8  -7  12   11.22    1.05
   8   7 -11    0.38    0.74
   8  -7  11    0.45    0.63
   8   7 -10   14.88    1.37
   8  -7  10   13.50    1.13
   8  -7   9   28.79    1.56
   8   7  -9   26.47    1.65
   8   7  -8    1.15    0.69
   8  -7   8    1.13    0.65
   8   7  -8    1.00    0.65
   8   7  -7    8.02    1.02
   8  -7   7    7.98    0.94
   8   7  -7    9.05    1.04
   8   7  -6    3.25    0.83
   8  -7   6    3.43    0.77
   8   7  -6    3.49    0.79
   8   7  -5   12.13    1.16
   8  -7   5    8.77    0.96
   8   7  -5   10.20    1.06
   8   7  -4   10.24    1.14
   8  -7   4   12.48    1.10
   8   7  -4   12.75    1.14
   8   7  -3    1.63    0.74
   8  -7   3    2.01    0.74
   8   7  -3    2.29    0.69
   8   7  -2   24.57    1.67
   8   7  -2   27.77    1.64
   8  -7   2   26.62    1.58
   8   7  -2   27.56    1.59
   8   7  -1    7.54    1.03
   8   7  -1    9.98    1.03
   8  -7   1    8.16    0.96
   8   7  -1    7.19    0.92
   8   7   0    3.25    0.80
   8  -7   0    4.56    0.82
   8   7   0    5.00    0.85
   8   7   0    3.57    0.75
   8   7   1    7.52    1.09
   8   7   1    9.22    1.02
   8  -7  -1    7.76    0.98
   8   7   1    7.36    0.90
   8   7   2   27.91    1.82
   8   7   2   29.09    1.62
   8   7   2   25.73    1.51
   8   7   3    2.10    0.77
   8   7   3    1.54    0.69
   8   7   3    1.14    0.61
   8   7   4   12.83    1.29
   8   7   4   11.97    1.07
   8   7   4   11.74    1.04
   8   7   5    9.11    1.12
   8   7   5   10.81    1.01
   8   7   5   10.31    0.99
   8   7   6    4.97    0.92
   8   7   6    3.72    0.77
   8   7   6    4.03    0.73
   8   7   7    7.87    0.90
   8   7   7    7.49    1.08
   8   7   8    0.65    0.60
   8   7   8    0.11    0.72
   8   7   9   28.32    1.52
   8   7   9   26.03    1.86
   8   7  10   14.40    1.11
   8   7  10   13.16    1.38
   8   7  11    1.57    0.65
   8   7  11    0.77    0.78
   8   7  12    9.77    0.96
   8   7  12    9.70    1.25
   8   7  13    1.85    0.65
   8   7  13    1.01    0.84
   8   7  14    4.74    0.77
   8   7  14    3.73    0.96
   8   7  15    4.79    0.78
   8   7  15    2.62    0.94
   8   7  16    3.50    0.74
   8   7  17    7.88    0.90
   8   7  18    7.89    0.92
   8   7  19    3.96    0.77
   8   7  20    0.37    0.64
   8   7  21    9.22    0.98
   8   7  22    4.18    0.82
   8   7  23    6.59    0.88
   8   7  24    6.47    0.86
   8   7  25    2.36    0.73
   8   7  26    5.74    0.81
   8  -8  25    7.73    0.89
   8  -8  24    3.82    0.73
   8  -8  23    6.11    0.84
   8  -8  22   11.52    1.03
   8  -8  21    5.85    0.85
   8  -8  20   -0.30    0.67
   8  -8  19    6.06    0.84
   8   8 -19    4.74    0.87
   8  -8  18    3.09    0.73
   8   8 -18    2.82    0.86
   8  -8  17    6.07    0.82
   8   8 -17    4.54    0.92
   8   8 -16   12.40    1.26
   8  -8  16   11.31    1.04
   8  -8  15   -0.53    0.63
   8   8 -15    0.70    0.79
   8   8 -14   24.80    1.69
   8  -8  14   28.41    1.50
   8   8 -13    5.12    0.99
   8  -8  13    5.19    0.79
   8   8 -12    8.25    1.12
   8  -8  12    7.44    0.88
   8   8 -11    6.72    1.10
   8  -8  11    6.61    0.89
   8   8 -10   15.99    1.45
   8  -8  10   13.70    1.10
   8   8 -10   14.44    1.32
   8   8  -9   12.40    1.33
   8  -8   9   12.47    1.06
   8   8  -9   10.59    1.15
   8   8  -8    1.93    0.73
   8   8  -8    3.76    0.93
   8  -8   8    2.38    0.67
   8   8  -8    2.23    0.73
   8   8  -7   17.16    1.38
   8  -8   7   15.78    1.17
   8   8  -7   14.56    1.33
   8   8  -6   15.29    1.33
   8  -8   6   16.16    1.18
   8   8  -6   14.11    1.29
   8   8  -5   -0.18    0.68
   8  -8   5    0.26    0.59
   8   8  -5    1.36    0.72
   8   8  -4   15.11    1.34
   8  -8   4   13.42    1.11
   8   8  -4   11.98    1.18
   8   8  -3   14.35    1.35
   8   8  -3   14.18    1.19
   8  -8   3   14.57    1.16
   8   8  -3   13.53    1.22
   8   8  -2    0.78    0.69
   8   8  -2    1.60    0.67
   8  -8   2    0.69    0.64
   8   8  -2    1.36    0.65
   8   8  -1    1.29    0.82
   8   8  -1    2.98    0.73
   8  -8   1    1.76    0.66
   8   8  -1    2.36    0.74
   8   8   0    1.01    0.72
   8  -8   0    1.15    0.59
   8   8   0    1.46    0.64
   8   8   0    1.08    0.65
   8   8   1    2.14    0.83
   8  -8  -1    1.17    0.66
   8   8   1    1.16    0.63
   8   8   1    1.45    0.69
   8   8   2    1.35    0.80
   8  -8  -2    0.90    0.65
   8   8   2    0.60    0.59
   8   8   2    1.26    0.64
   8   8   3   14.23    1.44
   8  -8  -3   16.73    1.29
   8   8   3   16.85    1.21
   8   8   3   15.66    1.22
   8   8   4   11.93    1.31
   8   8   4   12.03    1.07
   8   8   4   12.76    1.13
   8   8   5    1.07    0.72
   8   8   5    0.63    0.59
   8   8   5    0.21    0.62
   8   8   6   14.85    1.42
   8   8   6   13.81    1.09
   8   8   6   13.01    1.13
   8   8   7   16.57    1.19
   8   8   7   17.50    1.55
   8   8   8    2.47    0.64
   8   8   8    2.63    0.88
   8   8   9    8.58    0.88
   8   8   9    8.79    1.17
   8   8  10   15.65    1.11
   8   8  10   12.26    1.36
   8   8  11    5.57    0.81
   8   8  11    4.54    0.98
   8   8  12    7.93    0.87
   8   8  12    8.48    1.22
   8   8  13    5.24    0.78
   8   8  13    3.34    1.00
   8   8  14   24.11    1.35
   8   8  14   21.45    1.78
   8   8  15   -0.06    0.64
   8   8  15    1.62    0.83
   8   8  16   12.68    1.02
   8   8  16    7.76    1.27
   8   8  17    4.77    0.80
   8   8  17    3.93    0.98
   8   8  18    1.84    0.63
   8   8  18    1.84    0.90
   8   8  19    5.57    0.82
   8   8  19    6.17    1.16
   8   8  20   -0.69    0.62
   8   8  20   -0.23    0.85
   8   8  21    8.19    0.92
   8   8  22   12.62    1.04
   8   8  23    8.35    0.91
   8   8  24    4.69    0.76
   8   8  25    6.66    0.84
   8   8  25    7.63    1.10
   8   8  26    3.48    0.90
   8  -9  22    5.85    0.81
   8  -9  21    2.71    0.68
   8  -9  20    2.07    0.66
   8  -9  19    2.40    0.68
   8  -9  18   -0.27    0.61
   8   9 -18    0.08    0.72
   8  -9  17    0.88    0.63
   8   9 -17    2.13    0.76
   8   9 -16   14.11    1.36
   8  -9  16   15.93    1.12
   8   9 -15    2.61    0.82
   8  -9  15    3.08    0.72
   8   9 -14    3.98    0.94
   8  -9  14    4.01    0.72
   8   9 -13    6.57    1.11
   8  -9  13    5.90    0.81
   8   9 -12    2.91    0.89
   8  -9  12    2.83    0.67
   8   9 -11    0.99    0.78
   8  -9  11    0.17    0.57
   8   9 -11   -0.39    0.85
   8   9 -10    1.40    0.85
   8  -9  10    2.89    0.67
   8   9 -10    1.92    0.78
   8   9  -9    4.94    0.95
   8  -9   9    4.50    0.73
   8   9  -9    4.00    0.87
   8   9  -8    5.74    1.04
   8  -9   8    6.64    0.84
   8   9  -8    7.00    1.00
   8   9  -7    7.82    1.07
   8   9  -7    5.86    1.04
   8  -9   7    9.20    0.90
   8   9  -7    7.31    1.03
   8   9  -6    5.25    0.96
   8  -9   6    4.26    0.75
   8   9  -6    4.32    0.91
   8   9  -5   21.51    1.61
   8  -9   5   20.36    1.28
   8   9  -5   20.51    1.53
   8   9  -4   16.66    1.43
   8   9  -4   15.13    1.20
   8  -9   4   14.58    1.12
   8   9  -4   13.17    1.30
   8   9  -3   16.08    1.46
   8   9  -3   20.38    1.30
   8  -9   3   18.82    1.25
   8   9  -3   16.97    1.39
   8   9  -2   23.66    1.73
   8   9  -2   25.96    1.49
   8  -9   2   25.51    1.47
   8   9  -2   27.80    1.69
   8   9  -1    1.24    0.78
   8   9  -1    1.95    0.70
   8  -9   1    0.91    0.66
   8   9  -1    2.35    0.73
   8   9   0   -0.31    0.70
   8  -9   0    0.40    0.64
   8   9   0   -0.51    0.60
   8   9   0    0.08    0.63
   8   9   1    1.17    0.75
   8  -9  -1    1.90    0.68
   8   9   1    2.16    0.66
   8   9   1    0.24    0.66
   8   9   2   27.04    1.88
   8  -9  -2   26.33    1.53
   8   9   2   24.07    1.41
   8   9   2   26.31    1.61
   8   9   3   17.01    1.56
   8  -9  -3   16.96    1.28
   8   9   3   17.63    1.19
   8   9   3   18.09    1.36
   8   9   4   15.17    1.50
   8  -9  -4   13.77    1.20
   8   9   4   15.52    1.12
   8   9   4   13.48    1.22
   8   9   5   16.03    1.53
   8   9   5   19.31    1.22
   8   9   5   19.81    1.41
   8   9   6    6.34    1.09
   8   9   6    4.28    0.75
   8   9   6    3.83    0.83
   8   9   7    7.18    1.16
   8   9   7    8.09    0.84
   8   9   8    4.51    0.97
   8   9   8    5.55    0.76
   8   9   9    4.77    1.02
   8   9   9    5.75    0.76
   8   9  10    2.04    0.86
   8   9  10    1.29    0.59
   8   9  11   -0.57    0.81
   8   9  11    0.05    0.52
   8   9  12    1.39    0.88
   8   9  12    4.13    0.69
   8   9  13    4.06    1.04
   8   9  13    7.31    0.80
   8   9  14    4.07    1.01
   8   9  14    4.15    0.70
   8   9  15    1.98    0.87
   8   9  15    3.73    0.68
   8   9  16   12.54    1.45
   8   9  16   16.59    1.11
   8   9  17   -0.81    0.92
   8   9  17    1.00    0.59
   8   9  18   -0.42    0.64
   8   9  19    1.52    0.59
   8   9  20    3.57    0.73
   8   9  21    2.81    0.66
   8   9  22    6.81    0.83
   8   9  23    0.21    0.76
   8   9  23    0.71    0.57
   8   9  24    0.30    0.73
   8   9  24   -0.25    0.63
   8   9  25    0.19    0.72
   8  10 -18    3.28    0.86
   8  10 -17    1.30    0.80
   8  10 -16    0.71    0.75
   8  10 -15    1.09    0.81
   8  10 -14    4.10    0.96
   8  10 -13    0.10    0.72
   8 -10  13    0.25    0.55
   8  10 -12    4.62    0.97
   8 -10  12    3.29    0.67
   8  10 -12    2.93    0.93
   8  10 -11    6.80    1.12
   8 -10  11    5.79    0.76
   8  10 -11    5.24    0.98
   8  10 -10    3.75    1.00
   8 -10  10    5.06    0.70
   8  10 -10    4.30    0.96
   8  10  -9    7.76    1.16
   8 -10   9    6.29    0.79
   8  10  -9    6.07    1.03
   8  10  -8    6.62    1.11
   8 -10   8    5.80    0.76
   8  10  -8    6.33    1.07
   8  10  -7   25.28    1.87
   8  10  -7   30.83    1.91
   8 -10   7   28.11    1.43
   8  10  -7   30.00    1.87
   8  10  -6    8.36    1.15
   8  10  -6    9.93    1.26
   8  10  -6    8.86    0.97
   8 -10   6    8.60    0.86
   8  10  -6    9.30    1.12
   8  10  -5    5.44    1.01
   8  10  -5    2.89    1.00
   8 -10   5    6.52    0.81
   8  10  -5    4.46    0.78
   8  10  -5    3.98    0.94
   8  10  -4    8.62    1.13
   8  10  -4    6.88    0.84
   8 -10   4    8.71    0.84
   8  10  -4    5.89    0.99
   8  10  -3    5.20    1.01
   8 -10   3    8.16    0.87
   8  10  -3    6.85    0.82
   8  10  -3    4.67    0.91
   8  10  -2    9.30    1.18
   8  10  -2    8.98    0.90
   8 -10   2    8.57    0.85
   8  10  -2    8.66    1.08
   8  10  -1    2.45    0.85
   8  10  -1    1.09    0.62
   8 -10   1    1.80    0.65
   8  10  -1    0.98    0.67
   8  10   0    1.40    0.80
   8 -10   0   -0.06    0.57
   8  10   0    0.73    0.57
   8  10   0    0.70    0.67
   8  10   1    1.86    0.89
   8 -10  -1    1.69    0.62
   8  10   1    2.35    0.63
   8  10   1    2.49    0.71
   8  10   2    9.41    1.21
   8 -10  -2   11.34    0.97
   8  10   2    9.94    0.90
   8  10   2    8.28    1.05
   8  10   3    5.37    1.03
   8 -10  -3    6.55    0.87
   8  10   3    5.32    0.72
   8  10   3    5.56    0.91
   8  10   4    5.28    1.00
   8 -10  -4    7.71    0.87
   8  10   4    8.09    0.82
   8  10   4    7.85    1.03
   8  10   5    4.65    1.04
   8  10   5    4.26    0.70
   8 -10  -5    5.75    0.83
   8  10   5    5.42    0.88
   8  10   6    9.50    1.27
   8 -10  -6    6.91    0.94
   8  10   6    8.21    0.82
   8  10   6    7.43    1.01
   8  10   7   26.16    1.93
   8  10   7   26.57    1.33
   8  10   8    3.68    0.99
   8  10   8    6.92    0.77
   8  10   9    6.94    1.19
   8  10   9    7.80    0.79
   8  10  10    4.05    1.00
   8  10  10    3.75    0.67
   8  10  11    4.98    1.11
   8  10  11    6.66    0.74
   8  10  12    2.44    0.88
   8  10  12    4.53    0.69
   8  10  13    0.46    0.76
   8  10  13    1.42    0.56
   8  10  14    3.57    0.99
   8  10  14    4.53    0.70
   8  10  15    2.07    0.96
   8  10  15    1.18    0.56
   8  10  16    0.52    0.51
   8  10  17    1.18    0.57
   8  10  18    3.16    0.64
   8  10  19    0.52    0.54
   8  10  20    5.89    0.71
   8  10  21    2.95    0.94
   8  10  22    4.39    0.98
   8  10  23    2.07    0.80
   8  10  24    5.10    0.94
   8  11 -17   -0.43    0.74
   8  11 -16    1.42    0.82
   8  11 -15    2.10    0.85
   8  11 -15    2.14    0.85
   8  11 -14    0.47    0.81
   8  11 -14    1.34    0.80
   8  11 -13    3.53    0.95
   8  11 -13    2.37    0.94
   8  11 -12    4.97    1.05
   8  11 -12    7.53    1.15
   8  11 -11   15.18    1.45
   8  11 -11   11.34    1.31
   8  11 -10    8.32    1.18
   8  11 -10    6.08    1.08
   8  11  -9   11.29    1.31
   8  11  -9   12.52    1.34
   8  11  -8    6.22    1.13
   8  11  -8    7.06    0.83
   8  11  -8    6.19    1.06
   8  11  -7   23.95    1.82
   8  11  -7   26.56    1.41
   8  11  -7   26.37    1.79
   8  11  -6    4.63    1.02
   8  11  -6    5.19    1.15
   8  11  -6    4.60    0.73
   8  11  -6    6.66    1.05
   8  11  -5   40.39    2.35
   8  11  -5   39.54    2.23
   8  11  -5   36.71    1.66
   8  11  -5   37.28    2.13
   8  11  -4    3.99    1.00
   8  11  -4    4.52    1.08
   8  11  -4    4.30    0.72
   8  11  -4    3.28    0.88
   8  11  -3    1.82    0.87
   8  11  -3    3.16    0.67
   8  11  -2    5.73    1.07
   8  11  -2    5.38    0.73
   8  11  -2    4.59    0.91
   8  11  -1   13.14    1.38
   8  11  -1   12.09    0.91
   8  11  -1   10.66    1.17
   8  11   0    0.11    0.71
   8  11   0    0.19    0.48
   8  11   0    0.46    0.73
   8  11   1   11.37    1.32
   8  11   1   12.13    0.92
   8  11   1   11.55    1.21
   8  11   2    5.51    1.09
   8  11   2    5.54    0.68
   8  11   2    4.67    0.94
   8  11   3    1.93    0.89
   8  11   3    3.18    0.59
   8  11   3    4.58    0.90
   8  11   4    3.21    0.95
   8  11   4    3.71    0.64
   8  11   4    4.11    0.88
   8  11   5   37.83    2.31
   8  11   5   37.08    1.53
   8  11   5   36.04    1.98
   8  11   6    5.89    1.09
   8  11   6    4.94    0.67
   8  11   6    4.55    0.96
   8  11   7   18.23    1.66
   8  11   7   24.52    1.18
   8  11   8    7.48    1.23
   8  11   8    7.43    0.74
   8  11   9    9.92    1.32
   8  11   9   10.14    0.79
   8  11  10    6.51    1.18
   8  11  11   12.53    1.38
   8  11  12    7.52    1.19
   8  11  13    1.26    0.83
   8  11  18    9.48    1.25
   8  11  19   12.29    1.37
   8  11  20    2.76    0.90
   8  11  21    0.10    0.77
   8  11  22    2.76    0.86
   8  12 -18    1.26    0.78
   8  12 -17    0.30    0.79
   8  12 -16    2.12    0.83
   8  12 -16    1.21    0.84
   8  12 -15    8.39    1.11
   8  12 -15    7.73    1.14
   8  12 -14    7.85    1.11
   8  12 -14    6.46    1.06
   8  12 -13   15.07    1.39
   8  12 -13   15.41    1.45
   8  12 -12    2.40    0.91
   8  12 -12    2.71    0.89
   8  12 -11    8.43    1.17
   8  12 -11    8.66    1.21
   8  12 -10   10.36    1.26
   8  12 -10    8.42    1.18
   8  12  -9    2.74    0.90
   8  12  -9    3.41    0.93
   8  12  -8    0.10    0.79
   8  12  -8   -0.82    0.82
   8  12  -7    6.50    1.13
   8  12  -7    4.60    1.01
   8  12  -6   10.39    1.28
   8  12  -6    8.91    1.15
   8  12  -5   13.99    1.39
   8  12  -5   11.96    1.42
   8  12  -5   12.37    1.35
   8  12  -4    0.54    0.82
   8  12  -4    0.20    0.78
   8  12  -3   19.80    1.68
   8  12  -3   21.54    1.63
   8  12  -2   15.03    1.45
   8  12  -2   14.83    1.39
   8  12  -1   24.16    1.83
   8  12  -1   27.81    1.96
   8  12  -1   27.63    1.81
   8  12   0   -0.45    0.84
   8  12   0    0.21    0.79
   8  12   0    0.65    0.72
   8  12   1   29.84    2.03
   8  12   1   28.09    1.82
   8  12   2   13.72    1.49
   8  12   2   14.32    1.33
   8  12   3   17.57    1.62
   8  12   3   18.30    1.46
   8  12   4    1.15    0.88
   8  12   4    0.88    0.80
   8  12   5   12.59    1.41
   8  12   5   13.84    1.31
   8  12   6    6.38    1.20
   8  12   7    3.83    1.04
   8  12   8    1.27    0.85
   8  12   9    2.42    0.92
   8  12  10    8.76    1.24
   8  12  11    8.53    1.27
   8  12  16    1.51    0.83
   8  12  17    0.11    0.73
   8  12  18    3.09    0.89
   8  12  19    0.70    0.76
   8  12  20    0.87    0.80
   8  12  21    0.56    0.69
   8  13 -19    3.82    0.85
   8  13 -18    4.11    0.91
   8  13 -17    1.05    0.78
   8  13 -16   13.12    1.36
   8  13 -15    2.91    0.93
   8  13 -15    2.99    0.88
   8  13 -14    0.54    0.78
   8  13 -14    0.61    0.83
   8  13 -13    5.24    1.02
   8  13 -13    3.57    0.96
   8  13 -12    2.52    0.90
   8  13 -12    3.29    0.93
   8  13 -11    7.15    1.10
   8  13 -11    4.83    1.02
   8  13 -10    2.61    0.90
   8  13 -10    1.85    0.81
   8  13  -9    1.38    0.83
   8  13  -9    0.10    0.88
   8  13  -8    7.37    1.13
   8  13  -8    8.10    1.17
   8  13  -7    3.65    0.98
   8  13  -7    3.98    1.02
   8  13  -6    5.65    1.03
   8  13  -5    4.60    0.97
   8  13  -4   11.40    1.28
   8  13  -3   12.49    1.36
   8  13  -3   13.92    1.43
   8  13  -3   11.11    1.30
   8  13  -2    4.04    1.01
   8  13  -2    4.36    1.02
   8  13  -2    3.70    0.95
   8  13  -1   11.06    1.34
   8  13  -1    8.97    1.26
   8  13  -1   11.32    1.26
   8  13   0    3.57    1.01
   8  13   0    4.04    0.98
   8  13   0    4.27    0.95
   8  13   1    8.30    1.25
   8  13   1   11.63    1.32
   8  13   1    9.60    1.17
   8  13   2    3.61    0.94
   8  13   2    2.12    0.96
   8  13   2    4.22    0.96
   8  13   3   10.91    1.33
   8  13   3   10.63    1.27
   8  13   3   12.07    1.30
   8  13   4   10.67    1.34
   8  13   4    9.75    1.19
   8  13   5    4.32    1.04
   8  13   5    2.80    0.89
   8  13   6    5.69    1.10
   8  13   7    3.19    0.91
   8  13   8    6.72    1.18
   8  13  14    0.21    0.83
   8  13  15    2.30    0.90
   8  13  16   11.66    1.32
   8  13  17    1.10    0.75
   8  13  18    5.60    1.00
   8  13  19    4.56    0.93
   8  14 -17    6.84    1.03
   8  14 -16    4.58    0.93
   8  14 -15    5.62    0.99
   8  14 -14    2.32    0.83
   8  14 -13    0.18    0.73
   8  14 -13   -0.49    0.75
   8  14 -12    1.89    0.84
   8  14 -12    1.48    0.81
   8  14 -11    0.73    0.82
   8  14 -11   -0.60    0.83
   8  14 -10    2.58    0.91
   8  14 -10    2.81    0.91
   8  14  -9    0.47    0.77
   8  14  -9   -0.10    0.79
   8  14  -8    7.49    1.13
   8  14  -7   -0.10    0.80
   8  14  -6    1.39    0.82
   8  14  -5    2.93    0.99
   8  14  -5    2.76    0.90
   8  14  -4    0.78    0.86
   8  14  -4    2.56    0.94
   8  14  -3   13.94    1.39
   8  14  -3   13.57    1.35
   8  14  -2    1.19    0.85
   8  14  -2    2.14    0.92
   8  14  -2    0.87    0.83
   8  14  -1    1.63    0.88
   8  14  -1    2.32    0.88
   8  14  -1    2.76    0.86
   8  14   0   -0.11    0.80
   8  14   0   -0.10    0.79
   8  14   0   -0.38    0.74
   8  14   1    1.76    0.86
   8  14   1    1.61    0.82
   8  14   1    1.85    0.80
   8  14   2    1.66    0.89
   8  14   2    0.75    0.73
   8  14   2    1.19    0.82
   8  14   3   11.94    1.33
   8  14   3   11.82    1.38
   8  14   3   12.84    1.28
   8  14   4    2.21    0.92
   8  14   4    0.47    0.77
   8  14   4    1.51    0.84
   8  14   5    2.88    0.94
   8  14   5    2.19    0.85
   8  14   6    0.11    0.85
   8  14   6    1.69    0.82
   8  14   7    0.17    0.77
   8  14   8    5.95    0.97
   8  14   9    1.21    0.74
   8  14  10    3.28    0.85
   8  14  11   -0.37    0.66
   8  14  12    1.25    0.81
   8  14  12    2.86    0.74
   8  14  13    0.82    0.78
   8  14  13    0.95    0.61
   8  14  14    2.80    0.85
   8  14  14    1.98    0.63
   8  14  15    4.48    0.98
   8  14  16    3.79    0.91
   8  14  17    8.96    1.10
   8  15 -14    1.36    0.79
   8  15 -13    2.30    0.85
   8  15 -12    3.18    0.87
   8  15 -11    5.00    0.97
   8  15 -11    5.57    0.99
   8  15 -10   -0.09    0.69
   8  15  -9    0.10    0.70
   8  15  -8    0.95    0.81
   8  15  -7    0.19    0.79
   8  15  -6    0.54    0.75
   8  15  -6    0.96    0.76
   8  15  -5    3.35    0.92
   8  15  -5    4.97    0.97
   8  15  -4    6.62    1.05
   8  15  -4    6.25    1.03
   8  15  -3    7.97    1.12
   8  15  -3    6.78    1.09
   8  15  -2    6.98    1.07
   8  15  -2    8.23    1.13
   8  15  -1    2.26    0.86
   8  15  -1    2.03    0.86
   8  15   0   23.95    1.79
   8  15   0   26.70    1.76
   8  15   0   24.26    1.69
   8  15   1    1.58    0.87
   8  15   1    2.91    0.86
   8  15   1    2.35    0.86
   8  15   2    7.28    1.16
   8  15   2    8.15    1.08
   8  15   2    7.68    1.09
   8  15   3    7.94    1.18
   8  15   3    7.08    1.11
   8  15   3    6.77    1.07
   8  15   4    5.61    1.02
   8  15   4    4.50    0.88
   8  15   5    2.52    0.84
   8  15   6    0.63    0.69
   8  15   7    0.38    0.61
   8  15   8    0.74    0.65
   8  15   9    0.51    0.80
   8  15   9    0.14    0.65
   8  15  10    1.90    0.82
   8  15  10    0.07    0.60
   8  15  11    5.21    0.95
   8  15  11    4.00    0.73
   8  15  12    4.42    0.92
   8  15  12    4.38    0.72
   8  15  13    2.72    0.81
   8  15  14    1.00    0.71
   8  16 -10   -0.35    0.71
   8  16  -9   -0.33    0.81
   8  16  -9   -0.62    0.74
   8  16  -8    2.63    0.81
   8  16  -8    2.24    0.81
   8  16  -7    7.21    1.02
   8  16  -7    6.29    1.02
   8  16  -6    2.41    0.83
   8  16  -6    2.88    0.84
   8  16  -5    4.05    0.85
   8  16  -5    3.87    0.92
   8  16  -4    3.65    0.83
   8  16  -4    4.04    0.91
   8  16  -3   -0.08    0.72
   8  16  -3   -0.09    0.72
   8  16  -2    2.70    0.81
   8  16  -2    1.41    0.77
   8  16  -1    5.05    0.95
   8  16  -1    5.34    0.95
   8  16   0   -0.16    0.72
   8  16   0    0.44    0.72
   8  16   1    5.07    0.88
   8  16   1    5.61    0.97
   8  16   2    1.32    0.76
   8  16   2    1.70    0.77
   8  16   3   -0.84    0.73
   8  16   4    3.29    0.82
   8  16   5    4.34    0.82
   8  16   6    2.87    0.75
   8  16   7    4.99    0.99
   8  16   7    6.64    0.89
   8  16   8    2.65    0.82
   8  16   8    1.67    0.63
   8  16   9   -0.37    0.70
   8  16  10    0.36    0.70
   8  17  -4    0.41    0.69
   8  17  -3    0.52    0.67
   8  17  -3    0.82    0.69
   8  17  -2    0.66    0.66
   8  17  -2    1.88    0.82
   8  17  -1    4.87    0.83
   8  17  -1    6.75    1.01
   8  17   0    9.83    1.07
   8  17   0   10.14    1.14
   8  17   1    3.49    0.85
   9   0   0    0.29    0.78
   9   0   1   25.39    1.74
   9   0   2    7.95    1.09
   9   0   2    6.55    0.83
   9   0   3    8.86    1.14
   9   0   3    8.85    0.92
   9   0   4    1.56    0.83
   9   0   4    0.21    0.59
   9   0   5   -0.72    0.85
   9   0   5    0.51    0.57
   9   0   6   26.87    1.70
   9   0   6   22.16    1.44
   9   0   7    6.03    1.00
   9   0   8    2.92    0.79
   9   0   9    0.42    0.72
   9   0  10    0.42    0.69
   9   0  11   10.26    1.14
   9   0  12   25.26    1.63
   9   0  13    9.22    1.10
   9   0  14   31.73    1.82
   9   0  15    2.92    0.85
   9   0  16   21.12    1.45
   9   0  17   11.43    1.12
   9   0  18    7.62    1.01
   9   0  19    5.74    0.97
   9   0  20   -0.30    0.73
   9   0  21    0.59    0.73
   9   0  22    0.59    0.71
   9   0  23    6.46    0.97
   9   0  24    7.11    0.97
   9   0  25    1.17    0.73
   9   0  26   12.56    1.16
   9  -1  26    1.87    0.77
   9  -1  25    7.98    1.01
   9  -1  24    5.68    0.93
   9  -1  23    3.58    0.89
   9  -1  22    1.97    0.82
   9  -1  21    2.51    0.81
   9  -1  20    4.70    0.90
   9  -1  19    0.90    0.72
   9  -1  18   14.20    1.24
   9  -1  17    5.47    0.98
   9  -1  16    5.00    0.92
   9  -1  15    4.25    0.87
   9  -1  14    4.15    0.89
   9  -1  13   53.34    2.43
   9   1 -13   57.65    2.29
   9  -1  12    7.99    1.06
   9   1 -12    9.58    0.99
   9  -1  11   11.43    1.19
   9  -1  10   28.77    1.73
   9  -1   9    3.98    0.89
   9  -1   8    0.51    0.72
   9  -1   7    3.23    0.86
   9  -1   6    7.61    1.04
   9  -1   6    5.83    0.82
   9  -1   5    0.36    0.67
   9  -1   5    0.54    0.47
   9  -1   4    5.40    1.00
   9  -1   4    2.99    0.68
   9  -1   3    6.89    1.05
   9  -1   2    5.66    1.07
   9  -1   1    5.28    0.99
   9   1  -1    5.32    0.76
   9  -1   0    1.07    0.83
   9   1   0    1.43    0.63
   9   1   1    5.27    0.77
   9   1   2    6.39    0.85
   9   1   3    6.49    0.86
   9   1   4    4.33    0.77
   9   1   5    1.02    0.63
   9   1   6    6.94    0.92
   9   1   7    3.31    0.73
   9  -2  26    1.12    0.75
   9  -2  25    0.61    0.67
   9  -2  24    0.90    0.69
   9  -2  23    2.33    0.83
   9  -2  22   12.48    1.18
   9  -2  21    3.57    0.85
   9  -2  20    8.99    1.05
   9  -2  19    0.82    0.74
   9  -2  18   15.23    1.30
   9  -2  17    3.73    0.89
   9  -2  16    3.43    0.84
   9  -2  15    1.79    0.77
   9  -2  14    1.19    0.72
   9   2 -14    1.20    0.63
   9  -2  13    5.02    0.95
   9   2 -13    4.91    0.82
   9  -2  12    0.73    0.72
   9   2 -12    1.95    0.73
   9  -2  11    7.92    1.03
   9  -2  10    0.58    0.71
   9  -2   9    0.42    0.73
   9  -2   8    5.17    0.91
   9  -2   7    1.64    0.78
   9  -2   6    3.15    0.85
   9  -2   5   10.84    1.18
   9  -2   4   30.79    1.85
   9  -2   3    2.58    0.85
   9   2  -3    1.93    0.61
   9  -2   2    4.86    0.97
   9   2  -2    2.81    0.67
   9  -2   1   11.95    1.28
   9   2  -1    9.68    0.99
   9  -2   0    9.33    1.16
   9   2   0    8.54    0.92
   9   2   1    9.40    1.00
   9   2   2    2.88    0.72
   9   2   3    4.05    0.80
   9   2   4   25.59    1.59
   9   2   5   10.60    1.11
   9   2   6    4.03    0.84
   9   2   7    2.36    0.74
   9   2   8    6.00    0.93
   9   2  19    1.71    0.77
   9   2  20    9.97    1.09
   9   2  21    1.74    0.82
   9   2  22   11.48    1.19
   9   2  23    1.41    0.74
   9   2  24    1.24    0.75
   9   2  25    0.41    0.70
   9   2  26    2.36    0.75
   9  -3  25    5.75    0.91
   9  -3  24    0.34    0.67
   9  -3  23    1.66    0.75
   9  -3  22    0.77    0.76
   9  -3  21    1.92    0.78
   9  -3  20    6.86    0.97
   9  -3  19    5.19    0.89
   9  -3  18    8.76    1.04
   9  -3  17    3.21    0.82
   9  -3  16    0.08    0.70
   9  -3  15    3.27    0.79
   9   3 -15    1.64    0.67
   9  -3  14    5.97    0.96
   9   3 -14    6.45    0.90
   9   3 -13   15.48    1.27
   9  -3  13   15.33    1.31
   9   3 -12    7.10    1.01
   9  -3  12    9.28    1.08
   9  -3  11    0.40    0.67
   9  -3  10   34.50    1.88
   9  -3   9    3.62    0.91
   9  -3   8    2.92    0.83
   9  -3   7    2.03    0.83
   9  -3   6    0.86    0.73
   9   3  -5    2.39    0.64
   9  -3   5    4.28    0.91
   9   3  -4   60.35    2.39
   9  -3   4   61.75    2.67
   9   3  -3    1.79    0.69
   9  -3   3    3.53    0.92
   9   3  -2   26.00    1.52
   9  -3   2   25.01    1.71
   9   3  -1    2.38    0.69
   9   3  -1    2.50    0.87
   9  -3   1    2.98    0.91
   9   3   0   37.45    1.91
   9  -3   0   40.43    2.22
   9   3   0   38.72    2.19
   9   3   1    4.36    0.84
   9  -3  -1    1.63    0.84
   9   3   1    4.20    0.96
   9   3   2   22.95    1.54
   9   3   2   23.73    1.67
   9   3   3    2.00    0.77
   9   3   3    2.08    0.86
   9   3   4   59.71    2.60
   9   3   4   62.02    2.68
   9   3   5    3.53    0.86
   9   3   5    4.89    0.91
   9   3   6    0.45    0.68
   9   3   6   -0.34    0.69
   9   3   7    1.39    0.65
   9   3   7    1.60    0.76
   9   3   8    1.22    0.74
   9   3   8    1.83    0.74
   9   3   9    2.87    0.86
   9   3   9    3.77    0.89
   9   3  10   26.76    1.78
   9   3  10   30.55    1.74
   9   3  11    1.03    0.76
   9   3  12    8.59    1.10
   9   3  13   18.38    1.39
   9   3  14    5.62    0.92
   9   3  15    1.13    0.75
   9   3  16    0.90    0.72
   9   3  17    2.37    0.80
   9   3  18    8.26    1.01
   9   3  19    5.44    0.92
   9   3  20    5.23    0.91
   9   3  21    2.90    0.81
   9   3  22    1.74    0.81
   9   3  23    0.34    0.68
   9   3  24    0.61    0.71
   9   3  25    6.17    0.91
   9  -4  25   -0.13    0.68
   9  -4  24    1.11    0.70
   9  -4  23    0.07    0.74
   9  -4  22    1.50    0.71
   9  -4  21    7.41    0.97
   9  -4  20    7.09    0.98
   9  -4  19    0.28    0.66
   9  -4  18    1.22    0.74
   9  -4  17   19.38    1.38
   9   4 -16    5.64    0.85
   9  -4  16    3.59    0.85
   9   4 -15    3.72    0.80
   9  -4  15    3.00    0.81
   9   4 -14    7.50    0.99
   9  -4  14    7.35    1.00
   9   4 -13    2.54    0.77
   9  -4  13    4.19    0.88
   9   4 -12    1.70    0.78
   9  -4  12    0.85    0.72
   9   4 -11   12.06    1.22
   9  -4  11    9.36    1.11
   9  -4  10    5.77    0.97
   9  -4   9    1.20    0.76
   9  -4   8    3.74    0.86
   9   4  -7   14.06    1.12
   9  -4   7   15.26    1.29
   9   4  -6   15.25    1.14
   9  -4   6   14.00    1.28
   9   4  -5   23.61    1.43
   9  -4   5   22.22    1.56
   9   4  -4   14.05    1.16
   9  -4   4   17.04    1.40
   9   4  -3   21.32    1.41
   9  -4   3   20.54    1.53
   9   4  -2   32.18    1.77
   9  -4   2   31.95    1.93
   9   4  -1   10.84    1.15
   9   4  -1    9.76    1.20
   9  -4   1   10.20    1.20
   9   4   0   18.05    1.37
   9  -4   0   20.28    1.54
   9   4   0   20.31    1.55
   9   4   1    9.25    1.08
   9  -4  -1   11.10    1.25
   9   4   1    9.65    1.16
   9   4   2   30.75    1.81
   9   4   2   31.83    1.90
   9   4   3   19.94    1.49
   9   4   3   20.85    1.57
   9   4   4   14.29    1.31
   9   4   4   15.35    1.33
   9   4   5   22.55    1.61
   9   4   5   25.26    1.66
   9   4   6   12.00    1.26
   9   4   6   12.06    1.22
   9   4   7   15.17    1.39
   9   4   7   16.50    1.33
   9   4   8    3.84    0.92
   9   4   8    6.86    0.95
   9   4   9    1.79    0.78
   9   4   9    0.79    0.72
   9   4  10    4.45    0.94
   9   4  10    7.42    0.96
   9   4  11    8.29    1.12
   9   4  11    9.97    1.09
   9   4  12    0.83    0.73
   9   4  12    0.84    0.76
   9   4  13    1.81    0.74
   9   4  14    7.43    1.00
   9   4  15    3.63    0.84
   9   4  16    5.01    0.91
   9   4  17   19.31    1.38
   9   4  18    0.64    0.72
   9   4  19    0.63    0.70
   9   4  20    6.59    0.95
   9   4  21    8.64    1.01
   9   4  22    1.01    0.74
   9   4  23    1.85    0.74
   9   4  24    1.56    0.70
   9   4  25   -0.06    0.64
   9  -5  24    0.19    0.69
   9  -5  23    6.91    0.92
   9  -5  22    6.96    0.97
   9  -5  21    0.66    0.67
   9  -5  20    8.39    0.98
   9  -5  19    5.25    0.87
   9   5 -18    1.04    0.65
   9  -5  18    1.59    0.72
   9   5 -17    1.10    0.64
   9  -5  17    1.67    0.77
   9   5 -16    2.55    0.74
   9  -5  16    3.31    0.79
   9   5 -15   -0.39    0.75
   9  -5  15    0.14    0.65
   9   5 -14    2.09    0.78
   9  -5  14    2.01    0.76
   9   5 -13    0.67    0.73
   9  -5  13    2.21    0.75
   9   5 -13    0.43    0.58
   9   5 -12    5.90    0.99
   9  -5  12    6.45    0.94
   9   5 -12    6.50    0.85
   9   5 -11   15.07    1.34
   9  -5  11   12.97    1.19
   9   5 -11   11.47    1.04
   9  -5  10   22.30    1.50
   9   5 -10   18.46    1.27
   9  -5   9   26.01    1.62
   9   5  -9   24.04    1.47
   9  -5   8   46.42    2.19
   9   5  -8   43.80    1.98
   9   5  -7   10.35    1.02
   9   5  -7   12.04    1.03
   9   5  -6   13.51    1.16
   9  -5   6   12.35    1.23
   9   5  -6   12.45    1.05
   9   5  -5   11.27    1.11
   9  -5   5   10.01    1.12
   9   5  -5   12.37    0.99
   9   5  -4    7.13    0.92
   9  -5   4    6.36    0.97
   9   5  -4    4.85    0.74
   9   5  -3    5.32    0.87
   9  -5   3    5.44    0.95
   9   5  -3    5.72    0.77
   9   5  -2   13.06    1.24
   9   5  -2   13.65    1.31
   9  -5   2   14.61    1.32
   9   5  -1    7.29    1.00
   9   5  -1    9.74    1.16
   9  -5   1    7.95    1.10
   9   5   0   -0.70    0.70
   9  -5   0    0.36    0.70
   9   5   0    0.09    0.75
   9   5   1    7.72    1.06
   9  -5  -1    8.37    1.12
   9   5   1    8.52    1.11
   9   5   2   12.66    1.23
   9  -5  -2   13.46    1.31
   9   5   2   11.81    1.19
   9   5   3    4.48    0.93
   9   5   3    5.06    0.94
   9   5   4    6.47    1.04
   9   5   4    4.89    0.92
   9   5   5   11.40    1.21
   9   5   5   11.64    1.17
   9   5   6   10.85    1.24
   9   5   6   14.87    1.26
   9   5   7   10.71    1.22
   9   5   7   12.52    1.17
   9   5   8   41.37    2.30
   9   5   8   47.35    2.18
   9   5   9   21.54    1.69
   9   5   9   27.69    1.63
   9   5  10   18.34    1.58
   9   5  10   22.46    1.49
   9   5  11   12.15    1.32
   9   5  11   13.27    1.18
   9   5  12    7.04    1.09
   9   5  12    8.48    1.02
   9   5  13    0.75    0.79
   9   5  13    0.87    0.72
   9   5  14    1.51    0.79
   9   5  14    3.74    0.80
   9   5  15    1.30    0.82
   9   5  15    1.26    0.69
   9   5  16    1.88    0.74
   9   5  17    1.85    0.74
   9   5  18    0.88    0.72
   9   5  19    4.36    0.83
   9   5  20    8.02    0.95
   9   5  21    0.98    0.68
   9   5  22    7.12    0.94
   9   5  23    5.30    0.88
   9   5  24    0.37    0.66
   9  -6  23    2.29    0.72
   9  -6  22   -0.37    0.69
   9  -6  21    2.01    0.71
   9  -6  20    3.71    0.77
   9  -6  19    0.71    0.66
   9   6 -18    0.75    0.62
   9  -6  18    0.20    0.66
   9   6 -17    2.17    0.73
   9  -6  17    1.79    0.74
   9   6 -16    7.85    1.00
   9  -6  16    8.76    1.01
   9   6 -15    1.45    0.75
   9  -6  15    1.83    0.69
   9   6 -14    0.59    0.71
   9  -6  14    2.11    0.76
   9   6 -13    0.26    0.68
   9  -6  13    1.39    0.70
   9   6 -13    0.69    0.61
   9   6 -12    4.56    0.94
   9  -6  12    4.12    0.85
   9   6 -12    3.80    0.80
   9   6 -11    5.01    0.96
   9  -6  11    4.37    0.89
   9   6 -11    3.46    0.77
   9   6 -10   13.45    1.31
   9  -6  10   11.07    1.10
   9   6 -10   10.28    1.05
   9  -6   9   21.62    1.45
   9   6  -9   22.41    1.44
   9  -6   8    2.77    0.87
   9   6  -8    4.67    0.81
   9   6  -7   35.91    1.86
   9  -6   7   38.29    1.94
   9   6  -7   33.31    1.74
   9   6  -6   15.79    1.29
   9  -6   6   18.35    1.39
   9   6  -6   16.59    1.24
   9   6  -5   27.71    1.66
   9  -6   5   24.30    1.60
   9   6  -5   25.96    1.50
   9   6  -4   13.13    1.21
   9  -6   4   12.36    1.19
   9   6  -4   11.23    1.03
   9   6  -3    2.92    0.78
   9   6  -3    2.59    0.90
   9  -6   3    3.91    0.89
   9   6  -3    3.28    0.72
   9   6  -2   14.87    1.34
   9   6  -2   17.10    1.43
   9  -6   2   17.82    1.40
   9   6  -2   15.91    1.16
   9   6  -1    5.44    0.94
   9  -6   1    3.97    0.85
   9   6  -1    4.22    0.75
   9   6   0    1.02    0.70
   9  -6   0   -0.17    0.68
   9   6   0    0.94    0.74
   9   6   0    0.60    0.56
   9   6   1    4.24    0.94
   9  -6  -1    5.40    0.98
   9   6   1    3.35    0.84
   9   6   1    4.60    0.76
   9   6   2   16.32    1.40
   9  -6  -2   16.75    1.43
   9   6   2   16.99    1.36
   9   6   2   15.47    1.13
   9   6   3    3.33    0.90
   9  -6  -3    2.15    0.83
   9   6   3    4.01    0.87
   9   6   3    3.02    0.62
   9   6   4   13.78    1.23
   9   6   4   12.22    1.28
   9   6   5   24.45    1.57
   9   6   5   24.79    1.76
   9   6   6   17.39    1.32
   9   6   6   14.08    1.40
   9   6   7   34.10    1.83
   9   6   7   34.96    2.08
   9   6   8    4.78    0.87
   9   6   8    5.77    0.98
   9   6   9   24.00    1.50
   9   6   9   21.27    1.67
   9   6  10   10.29    1.08
   9   6  10   10.97    1.29
   9   6  11    3.29    0.76
   9   6  11    3.81    0.94
   9   6  12    5.16    0.87
   9   6  12    4.71    0.96
   9   6  13   -0.07    0.62
   9   6  13    0.33    0.72
   9   6  14    2.01    0.70
   9   6  14    0.99    0.73
   9   6  15    2.60    0.75
   9   6  15    0.66    0.79
   9   6  16    9.63    1.06
   9   6  16    9.04    1.20
   9   6  17    1.23    0.72
   9   6  17    2.53    0.92
   9   6  18   -0.13    0.71
   9   6  18    0.76    0.68
   9   6  19    1.33    0.69
   9   6  19    1.19    0.81
   9   6  20    3.77    0.80
   9   6  20    2.56    0.96
   9   6  21    1.97    0.70
   9   6  21    0.31    0.72
   9   6  22    1.45    0.64
   9   6  22   -0.82    0.81
   9   6  23    3.14    0.79
   9   6  23    2.39    0.85
   9   6  24    0.58    0.73
   9  -7  22    2.87    0.77
   9  -7  21    1.64    0.67
   9  -7  20    0.36    0.66
   9  -7  19    3.16    0.75
   9   7 -19    2.50    0.72
   9   7 -18    9.56    1.03
   9  -7  18   10.14    0.98
   9   7 -17    2.76    0.77
   9  -7  17    2.98    0.79
   9   7 -16    5.26    0.90
   9  -7  16    4.78    0.79
   9   7 -15    1.56    0.74
   9  -7  15    0.70    0.68
   9   7 -14    5.00    0.93
   9  -7  14    3.23    0.78
   9   7 -14    2.85    0.82
   9   7 -13    0.80    0.77
   9  -7  13    1.68    0.67
   9   7 -13    1.54    0.67
   9   7 -12    1.84    0.82
   9  -7  12    2.32    0.71
   9   7 -12    3.23    0.75
   9   7 -11    0.47    0.75
   9  -7  11    1.42    0.69
   9   7 -11    1.13    0.66
   9   7 -10    0.50    0.81
   9  -7  10    1.98    0.65
   9   7 -10    1.84    0.72
   9   7  -9    2.31    0.89
   9  -7   9    2.78    0.74
   9   7  -9    1.42    0.72
   9  -7   8    2.75    0.80
   9   7  -8    1.47    0.71
   9   7  -7    4.41    0.85
   9  -7   7    3.51    0.79
   9   7  -7    4.64    0.81
   9   7  -6    8.96    1.06
   9  -7   6    9.97    1.03
   9   7  -6   12.25    1.14
   9   7  -5    3.28    0.83
   9  -7   5    2.21    0.75
   9   7  -5    2.26    0.70
   9   7  -4    4.78    0.91
   9   7  -4    5.29    0.94
   9  -7   4    3.77    0.84
   9   7  -4    4.92    0.80
   9   7  -3    6.54    0.95
   9   7  -3    4.72    0.95
   9  -7   3    6.60    0.98
   9   7  -3    7.72    0.91
   9   7  -2    3.71    0.87
   9   7  -2    5.53    0.95
   9  -7   2    5.39    0.91
   9   7  -2    4.33    0.78
   9   7  -1    7.20    1.05
   9   7  -1    7.90    1.04
   9  -7   1    7.00    0.99
   9   7  -1    5.90    0.84
   9   7   0   27.22    1.82
   9  -7   0   29.98    1.75
   9   7   0   28.87    1.71
   9   7   0   29.02    1.55
   9  -7  -1    8.48    1.06
   9   7   1    8.27    1.01
   9   7   1    8.66    0.91
   9   7   2    5.01    1.00
   9  -7  -2    5.52    0.96
   9   7   2    5.97    0.93
   9   7   2    4.29    0.76
   9   7   3    6.31    1.04
   9  -7  -3    6.31    0.96
   9   7   3    5.10    0.88
   9   7   3    5.34    0.81
   9  -7  -4    3.62    0.88
   9   7   4    3.76    0.84
   9   7   4    5.07    1.00
   9   7   5    2.67    0.76
   9   7   5    1.04    0.80
   9   7   6    9.68    1.05
   9   7   6    8.24    1.13
   9   7   7    3.49    0.80
   9   7   7    3.73    0.94
   9   7   8    0.96    0.66
   9   7   8    0.97    0.75
   9   7   9    2.10    0.73
   9   7   9    1.51    0.80
   9   7  10    0.93    0.64
   9   7  10    1.20    0.82
   9   7  11    0.40    0.63
   9   7  11   -0.11    0.71
   9   7  12    2.90    0.77
   9   7  12    2.89    0.87
   9   7  13    1.01    0.68
   9   7  13    1.67    0.88
   9   7  14    3.02    0.75
   9   7  14    3.80    0.97
   9   7  15    1.55    0.69
   9   7  15    2.23    0.88
   9   7  16    6.87    0.87
   9   7  16    3.11    0.99
   9   7  17    3.82    0.74
   9   7  17    2.97    0.91
   9   7  18   11.67    1.05
   9   7  18    7.62    1.20
   9   7  19    2.72    0.75
   9   7  19    2.47    0.92
   9   7  20    0.99    0.66
   9   7  20    1.90    0.82
   9   7  21    1.54    0.71
   9   7  21    0.62    0.74
   9   7  22    2.92    0.72
   9   7  22    1.71    0.81
   9   7  23    1.37    0.76
   9  -8  21    1.07    0.65
   9  -8  20    6.72    0.85
   9  -8  19    2.23    0.70
   9   8 -18   19.27    1.39
   9  -8  18   17.99    1.21
   9   8 -17    2.91    0.82
   9  -8  17    2.35    0.69
   9   8 -16    8.09    1.05
   9  -8  16    8.83    0.95
   9   8 -16    6.86    0.99
   9   8 -15    0.08    0.78
   9  -8  15    0.53    0.61
   9   8 -15    0.76    0.69
   9   8 -14    1.22    0.80
   9  -8  14    1.61    0.66
   9   8 -14    1.27    0.70
   9   8 -13    3.00    0.83
   9  -8  13    1.15    0.63
   9   8 -13    1.86    0.75
   9   8 -12   11.31    1.23
   9  -8  12    8.86    0.96
   9   8 -12    9.42    1.10
   9   8 -11    1.44    0.89
   9  -8  11    1.12    0.67
   9   8 -11    1.35    0.74
   9   8 -10    0.69    0.84
   9  -8  10   -0.89    0.72
   9   8 -10   -0.84    0.76
   9   8  -9   16.26    1.51
   9  -8   9   15.15    1.19
   9   8  -9   15.92    1.32
   9   8  -8   18.47    1.54
   9  -8   8   18.02    1.28
   9   8  -8   17.06    1.39
   9   8  -7    4.41    1.03
   9  -8   7    4.57    0.81
   9   8  -7    3.32    0.84
   9   8  -6   10.06    1.16
   9  -8   6    8.64    0.96
   9   8  -6    7.19    1.00
   9   8  -6    6.45    0.96
   9   8  -5   15.65    1.37
   9   8  -5   14.41    1.27
   9  -8   5   14.98    1.19
   9   8  -5   12.94    1.18
   9   8  -4    9.92    1.19
   9   8  -4   14.22    1.24
   9  -8   4   12.76    1.12
   9   8  -4   10.12    1.07
   9   8  -3   11.44    1.20
   9  -8   3   11.65    1.13
   9   8  -3   10.77    1.12
   9   8  -3    9.65    1.06
   9   8  -2    0.48    0.71
   9   8  -2    0.99    0.68
   9  -8   2    2.10    0.69
   9   8  -2    1.26    0.69
   9   8  -1    3.54    0.94
   9   8  -1    2.85    0.80
   9  -8   1    3.32    0.82
   9   8  -1    4.64    0.82
   9   8   0   11.03    1.26
   9  -8   0   11.70    1.13
   9   8   0   13.23    1.17
   9   8   0   10.17    1.05
   9   8   1    5.64    1.01
   9  -8  -1    3.00    0.82
   9   8   1    4.30    0.85
   9   8   1    2.64    0.74
   9   8   2    2.18    0.90
   9  -8  -2    1.71    0.71
   9   8   2    2.74    0.72
   9   8   2    0.68    0.63
   9   8   3    9.24    1.20
   9   8   3   12.73    1.09
   9  -8  -3   11.15    1.14
   9   8   3   11.50    1.04
   9   8   4   12.21    1.34
   9  -8  -4   12.12    1.17
   9   8   4   11.96    1.10
   9   8   5   14.02    1.38
   9  -8  -5   11.89    1.21
   9   8   5   11.43    1.07
   9   8   6    5.97    1.10
   9   8   6    8.03    0.94
   9   8   7    3.71    0.96
   9   8   7    4.55    0.83
   9   8   8   13.51    1.41
   9   8   8   19.76    1.28
   9   8   9   14.02    1.42
   9   8   9   14.12    1.14
   9   8  10   -0.44    0.72
   9   8  10    0.43    0.67
   9   8  11    0.22    0.75
   9   8  11    0.42    0.61
   9   8  12    8.99    1.26
   9   8  12    9.76    0.95
   9   8  13    2.12    0.90
   9   8  13    1.64    0.69
   9   8  14    0.89    0.85
   9   8  14    1.78    0.70
   9   8  15    0.89    0.79
   9   8  15    0.51    0.60
   9   8  16    6.39    1.13
   9   8  16    8.21    0.90
   9   8  17    1.53    0.84
   9   8  17    2.67    0.72
   9   8  18   16.04    1.52
   9   8  18   19.59    1.22
   9   8  19    3.28    0.96
   9   8  19    2.81    0.73
   9   8  20    3.83    0.93
   9   8  20    7.25    0.80
   9   8  21    0.61    0.79
   9   8  21    0.78    0.60
   9   8  22    2.44    0.86
   9   9 -19    2.51    0.76
   9   9 -18   15.63    1.26
   9   9 -18   14.23    1.26
   9   9 -17    3.41    0.87
   9  -9  17    2.55    0.70
   9   9 -17    2.87    0.84
   9   9 -16    1.77    0.80
   9  -9  16    0.95    0.61
   9   9 -16    2.14    0.78
   9   9 -15    1.18    0.75
   9  -9  15    1.49    0.62
   9   9 -15    1.73    0.74
   9   9 -14    5.24    0.94
   9  -9  14    4.87    0.76
   9   9 -14    4.09    0.87
   9   9 -13    6.18    1.03
   9  -9  13    7.04    0.82
   9   9 -13    5.34    0.93
   9   9 -12    3.77    0.93
   9  -9  12    2.67    0.69
   9   9 -12    2.72    0.82
   9   9 -11   19.00    1.58
   9  -9  11   18.46    1.21
   9   9 -11   16.59    1.38
   9   9 -10    6.02    1.12
   9  -9  10    8.48    0.89
   9   9 -10    6.61    1.00
   9   9  -9    1.21    0.87
   9  -9   9    1.35    0.68
   9   9  -9    0.69    0.71
   9   9  -8   17.49    1.60
   9  -9   8   16.43    1.18
   9   9  -8   13.63    1.29
   9   9  -7    5.72    1.05
   9  -9   7    3.61    0.77
   9   9  -7    4.67    0.86
   9   9  -7    5.42    0.92
   9   9  -6    3.86    0.91
   9   9  -6    5.34    1.05
   9  -9   6    4.70    0.76
   9   9  -6    5.27    0.87
   9   9  -6    4.75    0.93
   9   9  -5    4.31    0.95
   9  -9   5    3.17    0.69
   9   9  -5    3.02    0.78
   9   9  -5    2.21    0.76
   9   9  -4    4.70    0.93
   9   9  -4    2.77    0.81
   9  -9   4    5.58    0.81
   9   9  -4    4.37    0.85
   9   9  -3    3.72    0.90
   9   9  -3    4.39    0.81
   9  -9   3    4.13    0.76
   9   9  -3    3.20    0.84
   9   9  -2    5.69    1.04
   9   9  -2    4.03    0.79
   9  -9   2    4.01    0.79
   9   9  -2    4.32    0.84
   9   9  -1    2.44    0.87
   9   9  -1    1.81    0.68
   9  -9   1    2.41    0.70
   9   9  -1    1.31    0.65
   9   9   0    7.10    1.10
   9  -9   0    6.67    0.87
   9   9   0    5.64    0.80
   9   9   0    4.08    0.82
   9   9   1    1.46    0.81
   9  -9  -1    2.08    0.69
   9   9   1    2.00    0.68
   9   9   1    0.89    0.65
   9   9   2    3.40    0.92
   9  -9  -2    4.82    0.85
   9   9   2    5.49    0.81
   9   9   2    4.16    0.79
   9   9   3    5.27    0.98
   9  -9  -3    5.42    0.86
   9   9   3    5.14    0.78
   9   9   3    4.23    0.79
   9   9   4    4.56    1.03
   9  -9  -4    4.31    0.86
   9   9   4    5.17    0.78
   9   9   4    3.79    0.80
   9   9   5    2.73    0.89
   9   9   5    4.22    0.73
   9  -9  -5    5.55    0.85
   9   9   6    2.75    0.88
   9   9   6    3.98    0.75
   9   9   7    4.56    0.98
   9   9   7    5.25    0.80
   9  -9  -7    5.31    0.89
   9   9   8   15.59    1.53
   9   9   8   15.57    1.14
   9   9   9    1.34    0.80
   9   9   9    2.18    0.69
   9   9  10    7.15    1.10
   9   9  10    6.35    0.79
   9   9  11   15.61    1.53
   9   9  11   15.51    1.08
   9   9  12    4.56    0.99
   9   9  12    3.35    0.73
   9   9  13    5.54    1.10
   9   9  13    7.12    0.82
   9   9  14    3.63    0.91
   9   9  14    4.25    0.74
   9   9  15    0.98    0.84
   9   9  15    1.94    0.63
   9   9  16    0.65    0.80
   9   9  16    2.83    0.67
   9   9  17    4.23    1.00
   9   9  17    3.14    0.66
   9   9  18   11.06    1.30
   9   9  18   14.71    1.04
   9   9  19    1.23    0.79
   9   9  19    2.46    0.60
   9   9  20    4.28    0.98
   9   9  21    3.85    0.94
   9  10 -19    5.22    0.91
   9  10 -18    1.40    0.78
   9  10 -17    2.16    0.78
   9  10 -17    2.70    0.77
   9  10 -16   13.77    1.28
   9  10 -16   10.56    1.17
   9  10 -15    4.00    0.89
   9  10 -15    3.67    0.86
   9  10 -14    3.04    0.84
   9  10 -14    2.56    0.89
   9  10 -13    6.99    1.05
   9  10 -13    4.19    0.91
   9  10 -12   11.77    1.29
   9  10 -12    9.02    1.15
   9  10 -11    2.02    0.85
   9  10 -11    2.50    0.80
   9  10 -10    7.25    1.12
   9  10 -10    7.23    0.89
   9  10 -10    6.23    0.97
   9  10  -9    2.30    0.91
   9  10  -9    1.51    0.70
   9  10  -9    1.07    0.79
   9  10  -8    6.59    1.09
   9  10  -8    7.35    0.94
   9  10  -8    7.31    1.02
   9  10  -7    3.02    0.99
   9  10  -7    3.28    0.75
   9  10  -7    4.43    0.90
   9  10  -6   10.52    1.29
   9  10  -6    9.78    1.00
   9  10  -6   12.39    1.18
   9  10  -5    0.77    0.71
   9  10  -5    1.07    0.93
   9  10  -5    1.26    0.64
   9  10  -5    0.51    0.67
   9  10  -4   10.59    1.31
   9  10  -4   12.33    1.31
   9  10  -4   12.65    1.04
   9  10  -4   11.45    1.17
   9  10  -3    0.30    0.80
   9  10  -3   -0.18    0.61
   9  10  -3   -0.25    0.78
   9  10  -2    5.90    1.05
   9  10  -2    4.44    0.76
   9  10  -2    5.55    0.92
   9  10  -1    0.52    0.73
   9  10  -1   -0.29    0.58
   9  10  -1    0.48    0.70
   9  10   0    3.26    0.92
   9 -10   0    6.07    0.87
   9  10   0    6.34    0.82
   9  10   0    5.45    0.90
   9  10   1    1.27    0.82
   9 -10  -1    0.80    0.62
   9  10   1    0.73    0.59
   9  10   1   -0.31    0.70
   9  10   2    6.05    0.78
   9  10   2    6.06    0.90
   9  10   3   -0.11    0.78
   9  10   3    0.70    0.56
   9  10   3    1.28    0.71
   9  10   4   10.54    1.30
   9  10   4   13.75    1.03
   9  10   5    0.77    0.75
   9  10   5    0.26    0.58
   9  10   6    8.43    1.21
   9  10   6   10.63    0.90
   9  10   7    4.22    1.01
   9  10   7    3.88    0.67
   9  10   8    6.47    1.11
   9  10   8    7.09    0.78
   9  10   9    2.58    0.89
   9  10   9    1.92    0.63
   9  10  10    5.68    1.09
   9  10  10    6.56    0.77
   9  10  11    1.66    0.85
   9  10  11    1.93    0.60
   9  10  12    8.81    1.21
   9  10  12    9.91    0.85
   9  10  13    6.99    1.10
   9  10  13    4.36    0.71
   9  10  14    0.22    0.81
   9  10  14    3.59    0.64
   9  10  15    1.71    0.86
   9  10  16   11.32    1.30
   9  10  17    2.05    0.82
   9  10  18    1.50    0.81
   9  10  19    4.69    0.91
   9  11 -17    5.49    0.93
   9  11 -16    1.42    0.77
   9  11 -16    2.21    0.80
   9  11 -15   11.58    1.20
   9  11 -15   11.18    1.20
   9  11 -14    4.07    0.92
   9  11 -14    4.30    0.91
   9  11 -13    2.81    0.87
   9  11 -13    1.95    0.83
   9  11 -12    5.07    1.00
   9  11 -12    4.28    0.91
   9  11 -11   -0.09    0.81
   9  11 -11   -0.09    0.65
   9  11 -10    6.55    1.08
   9  11 -10    5.56    0.98
   9  11  -9    1.47    0.82
   9  11  -9    1.97    0.82
   9  11  -8    1.90    0.87
   9  11  -8    1.24    0.74
   9  11  -7    1.11    0.85
   9  11  -7    1.15    0.81
   9  11  -6    0.82    0.80
   9  11  -6    1.31    0.75
   9  11  -5    1.25    0.85
   9  11  -5    1.48    0.75
   9  11  -4    1.29    0.81
   9  11  -4    2.25    0.96
   9  11  -4    1.29    0.79
   9  11  -3    7.74    1.15
   9  11  -3    9.06    1.22
   9  11  -3    9.63    1.13
   9  11  -2    2.25    0.89
   9  11  -2    1.28    0.92
   9  11  -2    2.60    0.82
   9  11  -1    7.17    1.15
   9  11  -1    9.61    1.10
   9  11   0    0.52    0.74
   9  11   0   -0.33    0.73
   9  11   1    8.96    1.20
   9  11   1    7.77    1.02
   9  11   2    0.86    0.87
   9  11   2    1.98    0.76
   9  11   3    7.78    1.18
   9  11   3    7.01    0.95
   9  11   4    1.96    0.83
   9  11   5    1.21    0.74
   9  11   6    1.54    0.83
   9  11   7    0.77    0.79
   9  11   8    1.88    0.86
   9  11   9    1.98    0.81
   9  11  10    5.58    1.07
   9  11  11   -0.54    0.88
   9  11  12    4.00    0.96
   9  11  13    2.77    0.89
   9  11  14    2.20    0.88
   9  11  15    9.06    1.16
   9  11  16    2.92    0.87
   9  11  17    3.82    0.99
   9  12 -15    5.00    0.88
   9  12 -15    1.26    0.76
   9  12 -14    4.77    0.93
   9  12 -14    4.00    0.89
   9  12 -13    3.39    0.86
   9  12 -13    1.91    0.79
   9  12 -12    5.06    0.96
   9  12 -12    3.59    0.90
   9  12 -11    6.09    1.03
   9  12 -11    6.18    1.02
   9  12 -10    0.55    0.78
   9  12 -10    0.35    0.72
   9  12  -9    6.79    1.09
   9  12  -9    5.74    0.99
   9  12  -8    2.33    0.82
   9  12  -8    3.27    0.87
   9  12  -7    1.76    0.89
   9  12  -7    2.90    0.84
   9  12  -6    0.89    0.81
   9  12  -6    0.35    0.74
   9  12  -5    4.70    1.03
   9  12  -5    4.63    0.91
   9  12  -4    8.73    1.19
   9  12  -4    7.36    1.07
   9  12  -3    3.51    0.94
   9  12  -3    4.02    0.91
   9  12  -2    6.18    1.11
   9  12  -2    6.44    1.00
   9  12  -1    3.91    0.99
   9  12  -1    3.84    0.88
   9  12   0   10.43    1.29
   9  12   0   13.14    1.23
   9  12   1    4.73    0.94
   9  12   1    2.86    0.95
   9  12   1    3.82    0.86
   9  12   2    6.47    1.20
   9  12   2    7.21    0.99
   9  12   3    2.46    0.95
   9  12   3    3.76    0.87
   9  12   4    7.60    1.17
   9  12   5    4.40    1.01
   9  12   6   -0.32    0.84
   9  12   7    0.75    0.84
   9  12   8    3.11    0.93
   9  12   9    5.55    1.08
   9  12  10    0.11    0.80
   9  12  11    3.36    0.94
   9  12  12    2.58    0.90
   9  12  13    1.93    0.84
   9  12  14    4.89    1.02
   9  12  15    3.51    0.91
   9  13 -14    3.60    0.87
   9  13 -13    2.98    0.83
   9  13 -13    2.16    0.73
   9  13 -12    9.30    1.09
   9  13 -12    6.82    0.98
   9  13 -11    2.63    0.87
   9  13 -11    3.23    0.88
   9  13 -10    1.57    0.79
   9  13 -10    1.28    0.74
   9  13  -9    0.44    0.78
   9  13  -9    0.95    0.73
   9  13  -8   -0.27    0.77
   9  13  -8    0.17    0.76
   9  13  -7    0.65    0.78
   9  13  -7    0.86    0.75
   9  13  -6    0.47    0.78
   9  13  -6    0.52    0.73
   9  13  -5    2.75    0.84
   9  13  -4    5.79    0.96
   9  13  -3    3.30    0.85
   9  13  -2    8.55    1.15
   9  13  -2    8.87    1.10
   9  13  -1    0.40    0.78
   9  13  -1    0.10    0.83
   9  13  -1    0.33    0.76
   9  13   0   18.62    1.60
   9  13   0   20.05    1.57
   9  13   0   24.14    1.58
   9  13   1    0.20    0.81
   9  13   1   -1.17    0.90
   9  13   1    0.49    0.68
   9  13   2    7.63    1.14
   9  13   2    8.49    1.21
   9  13   2    9.22    1.10
   9  13   3    4.13    0.98
   9  13   3    2.84    0.96
   9  13   4    7.78    1.11
   9  13   4    5.22    1.04
   9  13   5    1.14    0.83
   9  13   5    2.10    0.84
   9  13   6    0.93    0.80
   9  13   6    0.90    0.71
   9  13   7    0.92    0.77
   9  13   8    0.72    0.80
   9  13   9    0.10    0.72
   9  13  10    2.31    0.79
   9  13  11    2.87    0.93
   9  13  12    5.08    0.99
   9  14 -10    4.80    0.93
   9  14  -9    1.41    0.74
   9  14  -9    2.38    0.75
   9  14  -8    2.87    0.83
   9  14  -8    1.98    0.77
   9  14  -7    1.54    0.75
   9  14  -7    0.83    0.68
   9  14  -6    0.50    0.67
   9  14  -5    1.98    0.74
   9  14  -4   -0.08    0.73
   9  14  -3    5.72    0.99
   9  14  -3    5.23    0.90
   9  14  -2    2.68    0.86
   9  14  -2    1.46    0.78
   9  14  -1    6.49    1.07
   9  14  -1    6.83    1.02
   9  14   0    0.29    0.76
   9  14   0   -0.62    0.78
   9  14   0    0.64    0.75
   9  14   1    8.09    1.08
   9  14   1    6.47    1.07
   9  14   1    7.16    1.03
   9  14   2    1.56    0.85
   9  14   2    2.33    0.83
   9  14   3    4.32    0.92
   9  14   3    5.54    0.96
   9  14   4    0.89    0.76
   9  14   4    1.34    0.75
   9  14   5    0.59    0.75
   9  14   5    0.58    0.71
   9  14   6    0.10    0.77
   9  14   6   -0.08    0.72
   9  14   7    0.58    0.77
   9  14   7   -0.48    0.72
   9  14   8    1.63    0.80
   9  14   8    2.09    0.74
   9  14   9    2.56    0.81
   9  14   9    2.22    0.73
   9  14  10    3.45    0.90
   9  15  -5    1.59    0.81
   9  15  -4    1.92    0.76
   9  15  -3    3.13    0.85
   9  15  -3    2.85    0.78
   9  15  -2    1.53    0.76
   9  15  -2    2.69    0.81
   9  15  -1    3.54    0.84
   9  15  -1    4.43    0.85
   9  15   0    0.96    0.76
   9  15   0    0.15    0.67
   9  15   1    3.71    0.82
   9  15   2    3.02    0.85
   9  15   2    1.48    0.68
   9  15   3    5.03    0.93
   9  15   3    4.66    0.90
   9  15   4    2.36    0.79
   9  15   5    2.71    0.83
  10   0   0    1.21    0.88
  10   0  -1    5.51    1.03
  10   0   1    6.76    1.11
  10   0  -2    4.05    1.01
  10   0   2    4.11    1.01
  10   0  -3    2.62    0.92
  10   0   3    1.72    0.79
  10   0   4    3.78    0.98
  10   0   5    2.22    0.85
  10   0   6   10.99    1.22
  10   0   7   43.26    2.22
  10   0   8    8.42    1.13
  10   0   8    6.29    0.93
  10   0   9    1.55    0.85
  10   0   9    1.48    0.69
  10   0  10   10.63    1.19
  10   0  10    7.95    1.00
  10   0  11    5.57    0.96
  10   0  11    3.82    0.83
  10   0  12    3.50    0.90
  10   0  12    2.22    0.74
  10   0  13    8.63    1.10
  10   0  14    5.70    0.96
  10   0  15    1.51    0.78
  10   0  16    0.45    0.72
  10   0  17    1.17    0.73
  10   0  18   -0.36    0.75
  10   0  19   36.24    1.88
  10   0  20    0.68    0.74
  10   0  21    6.39    0.96
  10   0  22   23.78    1.48
  10  -1  22    1.22    0.72
  10  -1  21    7.81    0.99
  10  -1  20    1.84    0.77
  10  -1  19    4.39    0.85
  10  -1  18    3.27    0.88
  10  -1  17   15.85    1.28
  10  -1  16    0.82    0.77
  10  -1  15    4.14    0.88
  10  -1  14    1.56    0.81
  10  -1  13    4.86    0.98
  10  -1  12    4.46    0.88
  10  -1  11    0.99    0.79
  10  -1  11    1.90    0.67
  10  -1  10   -0.17    0.72
  10  -1   9   15.87    1.35
  10  -1   8   13.54    1.31
  10  -1   7    6.40    1.06
  10  -1   6    0.72    0.77
  10  -1   5   19.01    1.51
  10  -1   4    1.87    0.82
  10  -1   3    1.05    0.78
  10  -1   2    0.58    0.77
  10  -1   1   19.49    1.58
  10  -1   0    3.71    0.98
  10  -1  -1   16.16    1.49
  10  -1  -2    2.06    0.90
  10  -1  -3    0.42    0.79
  10   1   5   15.25    1.21
  10   1   6    0.38    0.63
  10   1   7    4.78    0.78
  10   1   8   11.45    1.14
  10   1   9   12.42    1.19
  10   1  10    0.25    0.63
  10   1  11    1.20    0.72
  10   1  12    3.56    0.83
  10   1  13    5.44    0.95
  10  -2  21    1.04    0.71
  10  -2  20    4.22    0.87
  10  -2  19    2.67    0.82
  10  -2  18    2.95    0.83
  10  -2  17    2.72    0.85
  10  -2  16    5.95    0.96
  10  -2  15    2.60    0.81
  10  -2  14    5.51    0.92
  10  -2  13    0.95    0.72
  10  -2  12    0.32    0.73
  10  -2  11    2.85    0.86
  10   2 -11    2.91    0.76
  10  -2  10    2.07    0.78
  10  -2   9    4.99    0.96
  10  -2   8    1.46    0.77
  10  -2   7    2.10    0.81
  10  -2   6    1.34    0.83
  10  -2   5   -0.09    0.78
  10  -2   4    5.46    1.00
  10  -2   3    2.82    0.89
  10  -2   2    9.29    1.17
  10  -2   1    6.24    1.02
  10  -2   0    0.69    0.78
  10  -2  -1   10.01    1.24
  10  -2  -2   10.29    1.27
  10  -2  -3    4.32    1.02
  10   2   3    3.64    0.77
  10   2   4    5.96    0.84
  10   2   5   -0.55    0.66
  10   2   6    0.73    0.62
  10   2   7    0.33    0.65
  10   2   8    0.09    0.64
  10   2   9    4.17    0.82
  10   2  10    1.24    0.77
  10   2  11    0.99    0.66
  10   2  12    0.32    0.75
  10   2  12    0.82    0.73
  10   2  13    0.55    0.79
  10   2  13    0.09    0.65
  10   2  14    4.12    0.89
  10   2  14    5.16    0.92
  10   2  15    1.04    0.77
  10   2  15    1.66    0.72
  10   2  16    4.91    0.92
  10   2  17    4.21    0.89
  10   2  18    2.66    0.83
  10   2  19    2.94    0.81
  10   2  20    8.06    0.96
  10   2  21    1.50    0.72
  10  -3  21    1.01    0.71
  10  -3  20    1.23    0.68
  10  -3  19    5.27    0.86
  10  -3  18    2.26    0.79
  10  -3  17    1.88    0.79
  10  -3  16    1.79    0.81
  10  -3  15   23.63    1.55
  10  -3  14    2.68    0.81
  10  -3  13    0.15    0.71
  10  -3  12    2.49    0.83
  10   3 -12    2.38    0.73
  10  -3  11    0.48    0.73
  10   3 -11    0.08    0.66
  10  -3  10    2.59    0.82
  10   3 -10    3.79    0.83
  10  -3   9   12.96    1.26
  10  -3   8    1.09    0.74
  10  -3   7    0.94    0.83
  10  -3   6   19.08    1.52
  10  -3   5    0.44    0.82
  10   3  -4    2.96    0.91
  10  -3   4    3.88    0.91
  10   3  -3    3.44    0.96
  10  -3   3    4.50    0.98
  10   3  -2    6.79    1.12
  10  -3   2    5.89    1.02
  10   3  -1    6.01    1.08
  10  -3   1    4.77    1.01
  10  -3   0    6.59    1.06
  10   3   0    8.74    1.19
  10  -3  -1    6.77    1.09
  10   3   1    7.75    1.13
  10   3   1    4.92    0.78
  10  -3  -2    6.55    1.04
  10   3   2    7.02    1.08
  10   3   2    5.37    0.91
  10  -3  -3    3.02    0.95
  10   3   3    4.24    0.97
  10   3   3    4.06    0.82
  10  -3  -4    3.65    0.97
  10   3   4    2.26    0.83
  10   3   4    2.53    0.75
  10   3   5    0.80    0.76
  10   3   5    0.92    0.67
  10   3   6   21.46    1.55
  10   3   6   17.83    1.43
  10   3   7    1.62    0.85
  10   3   7    2.35    0.81
  10   3   8    2.02    0.84
  10   3   8    0.97    0.68
  10   3   9   14.41    1.29
  10   3   9   12.69    1.24
  10   3  10    1.54    0.77
  10   3  10    1.11    0.74
  10   3  11   -0.56    0.80
  10   3  11    0.09    0.68
  10   3  12    2.71    0.81
  10   3  12    1.51    0.73
  10   3  13   -0.68    0.72
  10   3  13   -0.09    0.68
  10   3  14    1.84    0.77
  10   3  14    2.28    0.77
  10   3  15   23.82    1.52
  10   3  15   16.67    1.48
  10   3  16    1.07    0.74
  10   3  16    1.80    0.76
  10   3  17    2.36    0.80
  10   3  17    1.41    0.77
  10   3  18    2.93    0.80
  10   3  18    3.27    0.85
  10   3  19    4.52    0.84
  10   3  19    1.75    0.76
  10   3  20    0.84    0.69
  10   3  20    0.54    0.67
  10   3  21    0.95    0.69
  10  -4  20    0.31    0.68
  10  -4  19    1.35    0.71
  10  -4  18    0.72    0.70
  10  -4  17    2.02    0.74
  10  -4  16    1.92    0.73
  10  -4  15    1.83    0.74
  10  -4  14    0.71    0.71
  10   4 -14    0.76    0.67
  10  -4  13    7.58    1.00
  10   4 -13    7.58    0.98
  10  -4  12    0.83    0.76
  10   4 -12    0.70    0.69
  10  -4  11    6.75    1.00
  10   4 -11    8.74    1.09
  10  -4  10    0.55    0.76
  10   4 -10    2.15    0.80
  10  -4   9    6.53    0.98
  10  -4   8    1.46    0.77
  10  -4   7    3.81    0.91
  10  -4   6    2.36    0.86
  10   4  -5    7.87    1.15
  10  -4   5    9.10    1.13
  10   4  -4   15.33    1.44
  10  -4   4   16.06    1.41
  10   4  -3   21.74    1.66
  10  -4   3   20.96    1.59
  10   4  -2    0.29    0.80
  10  -4   2    0.54    0.80
  10   4  -1   46.94    2.38
  10  -4   1   44.75    2.26
  10   4  -1   40.35    1.99
  10  -4   0    1.50    0.94
  10   4   0    1.50    0.86
  10   4   0    1.00    0.65
  10  -4  -1   44.45    2.30
  10   4   1   46.55    2.31
  10   4   1   40.05    2.04
  10  -4  -2   -0.10    0.81
  10   4   2    1.54    0.85
  10   4   2    0.41    0.71
  10  -4  -3   18.36    1.57
  10   4   3   18.68    1.51
  10   4   3   16.59    1.36
  10  -4  -4   17.64    1.56
  10   4   4   18.50    1.47
  10   4   4   17.79    1.39
  10   4   5    7.69    1.11
  10   4   5    7.56    1.03
  10   4   6    3.19    0.91
  10   4   6    3.05    0.83
  10   4   7    6.12    0.98
  10   4   7    3.73    0.87
  10   4   8    1.70    0.79
  10   4   8    0.92    0.72
  10   4   9    5.00    0.94
  10   4   9    5.41    0.93
  10   4  10    1.33    0.76
  10   4  10    1.52    0.75
  10   4  11    9.16    1.07
  10   4  11    6.91    1.03
  10   4  12    1.87    0.80
  10   4  12   -0.10    0.69
  10   4  13    7.72    0.99
  10   4  13    6.33    1.01
  10   4  14    1.20    0.68
  10   4  14    0.29    0.68
  10   4  15    1.89    0.79
  10   4  15    2.63    0.91
  10   4  16    0.61    0.73
  10   4  16    0.58    0.77
  10   4  17    2.67    0.80
  10   4  17    1.34    0.76
  10   4  18    0.59    0.66
  10   4  18    0.47    0.67
  10   4  19    1.28    0.66
  10   4  19    1.12    0.67
  10   4  20    0.06    0.65
  10   4  20    0.37    0.70
  10   4  21    0.80    0.63
  10  -5  20    2.32    0.72
  10  -5  19    0.55    0.65
  10  -5  18    3.57    0.79
  10  -5  17    1.47    0.67
  10  -5  16    0.39    0.66
  10  -5  15    5.83    0.88
  10   5 -15    5.68    0.83
  10  -5  14    3.35    0.79
  10   5 -14    1.46    0.70
  10  -5  13    1.53    0.74
  10   5 -13    0.23    0.69
  10  -5  12    0.86    0.68
  10   5 -12    0.24    0.66
  10  -5  11    9.08    1.07
  10   5 -11    7.53    1.08
  10  -5  10    0.60    0.69
  10   5 -10   -0.27    0.74
  10  -5   9    0.23    0.71
  10   5  -9    1.10    0.77
  10  -5   8    8.23    1.02
  10  -5   7    7.90    1.02
  10  -5   6   12.90    1.26
  10   5  -5   19.64    1.61
  10  -5   5   24.82    1.62
  10   5  -4   20.89    1.64
  10  -5   4   20.21    1.54
  10   5  -3   13.11    1.38
  10  -5   3   16.35    1.44
  10   5  -3   15.34    1.21
  10   5  -2   17.30    1.48
  10  -5   2   16.42    1.41
  10   5  -2   16.01    1.28
  10   5  -1   19.51    1.56
  10  -5   1   19.10    1.53
  10   5  -1   17.81    1.36
  10  -5   0    0.63    0.80
  10   5   0    0.72    0.82
  10   5   0    0.49    0.66
  10  -5  -1   24.25    1.68
  10   5   1   20.80    1.54
  10   5   1   19.00    1.44
  10  -5  -2   18.24    1.49
  10   5   2   17.20    1.46
  10  -5  -3   15.00    1.40
  10   5   3   15.67    1.36
  10   5   3   11.55    1.24
  10  -5  -4   21.70    1.65
  10   5   4   21.74    1.57
  10   5   4   17.47    1.44
  10  -5  -5   21.12    1.62
  10   5   5   24.96    1.62
  10   5   5   21.24    1.61
  10   5   6   12.35    1.21
  10   5   6   11.17    1.24
  10   5   7    5.97    0.97
  10   5   7    4.82    0.89
  10   5   8    8.61    1.05
  10   5   8    6.49    1.03
  10   5   9    0.38    0.71
  10   5   9    0.58    0.68
  10   5  10    1.04    0.70
  10   5  10   -0.19    0.70
  10   5  11    7.39    0.95
  10   5  11    2.35    0.81
  10   5  12    1.28    0.73
  10   5  12    0.39    0.71
  10   5  13    1.79    0.75
  10   5  13    0.99    0.82
  10   5  14    2.91    0.76
  10   5  14    3.56    0.87
  10   5  15    5.65    0.88
  10   5  15    3.54    0.87
  10   5  16   -0.13    0.64
  10   5  16    0.59    0.71
  10   5  17    0.51    0.65
  10   5  17    0.48    0.73
  10   5  18    2.66    0.74
  10   5  18    3.34    0.85
  10   5  19    0.96    0.69
  10   5  19    0.09    0.68
  10   5  20    1.29    0.68
  10   5  20    1.55    0.74
  10  -6  18    1.70    0.66
  10  -6  17    0.06    0.60
  10  -6  16    1.42    0.69
  10   6 -16    1.44    0.68
  10  -6  15    0.19    0.64
  10   6 -15    0.07    0.62
  10  -6  14    4.64    0.84
  10   6 -14    4.08    0.80
  10  -6  13    6.21    0.89
  10   6 -13    3.93    0.88
  10  -6  12    0.20    0.66
  10   6 -12    0.33    0.68
  10  -6  11    7.98    0.99
  10   6 -11    6.16    0.98
  10  -6  10    2.18    0.76
  10   6 -10    1.09    0.79
  10  -6   9    0.36    0.69
  10   6  -9    0.84    0.78
  10  -6   8    1.17    0.71
  10   6  -8    3.55    0.98
  10  -6   7    3.42    0.79
  10   6  -7    2.28    0.81
  10  -6   6   -0.30    0.73
  10   6  -6    0.18    0.75
  10   6  -5    6.96    1.06
  10  -6   5    4.96    0.90
  10   6  -4    2.14    0.86
  10  -6   4    3.39    0.85
  10   6  -4    2.25    0.74
  10   6  -3   15.26    1.37
  10  -6   3   14.88    1.35
  10   6  -3   12.96    1.21
  10   6  -2   -0.09    0.77
  10  -6   2    0.41    0.72
  10   6  -2    0.08    0.67
  10   6  -1   15.07    1.37
  10  -6   1   14.97    1.36
  10   6  -1   13.41    1.25
  10  -6   0   18.04    1.46
  10   6   0   22.04    1.54
  10   6   0   20.82    1.53
  10  -6  -1   17.15    1.41
  10   6   1   15.77    1.34
  10  -6  -2    0.79    0.81
  10   6   2    0.41    0.73
  10   6   2   -0.54    0.74
  10  -6  -3   13.84    1.30
  10   6   3   17.43    1.36
  10   6   3   13.51    1.30
  10  -6  -4    2.49    0.83
  10   6   4    3.20    0.83
  10   6   4    3.73    0.89
  10  -6  -5    6.12    1.01
  10   6   5    5.99    0.92
  10   6   5    4.17    0.92
  10   6   6    0.45    0.70
  10  -6  -6    0.45    0.75
  10   6   6    1.16    0.71
  10   6   7    3.61    0.84
  10   6   7    2.62    0.80
  10   6   8    2.17    0.78
  10   6   8    1.86    0.73
  10   6   9    1.84    0.76
  10   6   9    1.58    0.78
  10   6  10    2.77    0.77
  10   6  10    2.18    0.81
  10   6  11    5.58    0.89
  10   6  11    4.17    0.90
  10   6  12    0.66    0.70
  10   6  12    0.10    0.69
  10   6  13    4.96    0.84
  10   6  13    4.05    0.91
  10   6  14    5.53    0.88
  10   6  14    4.35    0.94
  10   6  15    0.87    0.64
  10   6  15   -0.20    0.69
  10   6  16    2.91    0.71
  10   6  16    1.56    0.77
  10   6  17    1.12    0.66
  10   6  17    0.67    0.71
  10   6  18    2.59    0.72
  10   6  18    1.80    0.75
  10   6  19    0.09    0.71
  10  -7  17    1.61    0.67
  10  -7  16    0.17    0.59
  10   7 -16    0.27    0.65
  10  -7  15    1.28    0.64
  10   7 -15    2.34    0.71
  10  -7  14    6.99    0.87
  10   7 -14    6.99    0.94
  10  -7  13    2.99    0.73
  10   7 -13    3.03    0.86
  10  -7  12    0.86    0.65
  10   7 -12    1.75    0.80
  10  -7  11    0.32    0.70
  10   7 -11    1.65    0.81
  10  -7  10    4.26    0.83
  10   7 -10    2.86    0.87
  10  -7   9    0.73    0.71
  10   7  -9    1.13    0.82
  10  -7   8   -0.27    0.69
  10   7  -8   -0.51    0.73
  10   7  -8    0.78    0.79
  10  -7   7    0.55    0.69
  10   7  -7    0.51    0.75
  10   7  -7    2.18    0.86
  10  -7   6    5.58    0.87
  10   7  -6    5.22    0.96
  10   7  -5    2.08    0.81
  10  -7   5    2.15    0.74
  10   7  -5    1.53    0.71
  10   7  -4    2.56    0.83
  10  -7   4    3.52    0.82
  10   7  -4    2.21    0.74
  10   7  -3    8.74    1.09
  10  -7   3    6.33    0.98
  10   7  -3    6.95    1.00
  10   7  -2    1.13    0.76
  10  -7   2    2.05    0.76
  10   7  -2    1.85    0.78
  10   7  -1    7.09    0.97
  10  -7   1    6.63    0.98
  10   7  -1    7.10    0.97
  10  -7   0    1.96    0.76
  10   7   0    0.62    0.78
  10   7   0    0.71    0.71
  10  -7  -1    7.41    1.02
  10   7   1    6.62    0.94
  10   7   1    8.51    1.07
  10  -7  -2    1.78    0.80
  10   7   2    2.62    0.86
  10   7   2    1.94    0.76
  10  -7  -3    7.16    1.06
  10   7   3    9.38    1.04
  10   7   3    7.08    1.03
  10  -7  -4    4.07    0.90
  10   7   4    2.23    0.72
  10   7   4    3.74    0.84
  10   7   5    2.69    0.80
  10  -7  -5    2.26    0.78
  10   7   5    1.84    0.81
  10   7   6    5.12    0.89
  10  -7  -6    5.06    0.95
  10   7   6    3.62    0.90
  10   7   7    0.27    0.67
  10  -7  -7    1.02    0.75
  10   7   7    0.99    0.75
  10   7   8    0.27    0.66
  10  -7  -8    0.25    0.75
  10   7   8    0.10    0.72
  10   7   9    1.43    0.69
  10   7   9    1.20    0.78
  10   7  10    3.52    0.79
  10   7  10    3.60    0.85
  10   7  11    0.74    0.64
  10   7  11    1.30    0.82
  10   7  12    2.00    0.72
  10   7  12    0.90    0.73
  10   7  13    4.71    0.80
  10   7  13    4.26    0.93
  10   7  14    5.34    0.84
  10   7  14    5.32    0.99
  10   7  15    1.65    0.65
  10   7  15    0.68    0.75
  10   7  16   -0.17    0.57
  10   7  16   -0.10    0.68
  10   7  17    0.54    0.58
  10   7  17    0.56    0.75
  10   7  18    0.74    0.72
  10   8 -16    0.61    0.59
  10  -8  15    4.63    0.76
  10   8 -15    5.64    0.88
  10  -8  14    7.33    0.85
  10   8 -14    6.69    0.96
  10  -8  13    5.06    0.79
  10   8 -13    4.60    0.90
  10  -8  12    9.26    0.93
  10   8 -12   10.06    1.14
  10  -8  11    6.36    0.80
  10   8 -11    4.25    0.95
  10  -8  10    1.70    0.66
  10   8 -10    1.60    0.70
  10   8 -10    1.26    0.80
  10  -8   9    3.21    0.74
  10   8  -9    3.30    0.85
  10   8  -9    2.58    0.86
  10  -8   8    0.43    0.64
  10   8  -8   -0.54    0.72
  10   8  -8   -0.10    0.75
  10   8  -7   12.74    1.20
  10  -8   7   12.09    1.05
  10   8  -7   12.60    1.37
  10  -8   6    1.03    0.72
  10   8  -6    1.44    0.73
  10   8  -6    1.51    0.87
  10   8  -5   10.68    1.11
  10  -8   5   11.70    1.09
  10  -8   4    0.33    0.66
  10   8  -4    0.67    0.67
  10   8  -4   -0.08    0.66
  10   8  -3    3.37    0.81
  10  -8   3    2.24    0.74
  10   8  -3    4.29    0.87
  10   8  -2    6.29    0.99
  10  -8   2    7.59    0.96
  10   8  -2    7.02    1.02
  10   8  -1   15.17    1.21
  10  -8   1   14.98    1.22
  10   8  -1   12.42    1.25
  10  -8   0    4.36    0.87
  10   8   0    4.47    0.85
  10   8   0    4.10    0.88
  10  -8  -1   12.21    1.16
  10   8   1   14.17    1.18
  10   8   1   14.80    1.33
  10   8   2    8.57    0.99
  10  -8  -2    8.83    1.04
  10   8   2    7.44    1.10
  10  -8  -3    5.52    0.90
  10   8   3    4.32    0.81
  10   8   3    3.55    0.91
  10   8   4    0.46    0.65
  10  -8  -4    1.29    0.75
  10   8   4    0.29    0.75
  10  -8  -5   11.76    1.14
  10   8   5   10.31    1.00
  10   8   5    8.55    1.17
  10   8   6    1.56    0.67
  10  -8  -6    2.07    0.80
  10   8   6    0.20    0.78
  10  -8  -7   11.05    1.16
  10   8   7   13.41    1.09
  10   8   7   11.74    1.30
  10   8   8    0.36    0.61
  10  -8  -8   -0.23    0.64
  10   8   8   -0.30    0.64
  10   8   9    3.77    0.74
  10  -8  -9    2.33    0.80
  10   8   9    2.62    0.92
  10   8  10    1.54    0.66
  10  -8 -10    0.85    0.69
  10   8  10    1.00    0.71
  10   8  11    7.42    0.87
  10   8  11    5.79    1.01
  10   8  12    9.76    0.91
  10   8  12    7.54    1.08
  10   8  13    6.04    0.79
  10   8  13    5.02    0.98
  10   8  14    6.77    0.81
  10   8  14    6.51    1.03
  10   8  15    4.97    0.74
  10   8  15    3.54    0.91
  10   8  16    0.56    0.76
  10   8  17    0.74    0.72
  10   9 -15    4.30    0.84
  10   9 -14    7.58    1.00
  10   9 -13   15.92    1.34
  10   9 -13   17.40    1.25
  10   9 -12    5.40    0.95
  10   9 -12    5.72    0.90
  10   9 -11    3.01    0.87
  10   9 -11    3.06    0.77
  10   9 -10    0.18    0.75
  10   9 -10   -0.60    0.67
  10   9  -9    0.55    0.78
  10  -9   9    0.58    0.62
  10   9  -9    1.27    0.65
  10   9  -8    0.47    0.75
  10  -9   8   -0.27    0.63
  10   9  -8    0.47    0.65
  10   9  -7    8.03    1.15
  10  -9   7    8.04    0.89
  10   9  -7    5.87    0.87
  10   9  -6    3.90    0.98
  10  -9   6    3.82    0.75
  10   9  -6    3.86    0.79
  10   9  -5    1.51    0.85
  10  -9   5    2.04    0.66
  10   9  -5    1.25    0.70
  10   9  -4    6.36    0.96
  10   9  -4    6.02    1.10
  10  -9   4    6.79    0.86
  10   9  -4    8.20    0.93
  10  -9   3    3.38    0.77
  10   9  -3    4.70    0.81
  10   9  -2    2.99    0.83
  10   9  -2    3.80    0.75
  10  -9   2    4.36    0.77
  10   9  -1    4.15    0.88
  10   9  -1    3.68    0.79
  10  -9   1    4.24    0.78
  10  -9   0   15.21    1.16
  10   9   0   12.21    1.03
  10   9   1    3.19    0.86
  10  -9  -1    3.22    0.74
  10   9   1    3.87    0.73
  10   9   2    1.99    0.87
  10  -9  -2    3.00    0.75
  10   9   3    3.75    0.94
  10   9   3    2.56    0.72
  10  -9  -3    2.85    0.79
  10   9   4    6.12    1.01
  10   9   4    5.82    0.83
  10  -9  -4    7.02    0.92
  10   9   5    1.77    0.76
  10   9   5    1.12    0.60
  10  -9  -5    1.35    0.72
  10   9   6    3.36    0.89
  10   9   6    3.79    0.74
  10  -9  -6    4.03    0.79
  10   9   7    5.85    1.02
  10   9   7    7.54    0.87
  10  -9  -7    6.98    0.91
  10   9   8    0.20    0.72
  10   9   8    0.84    0.60
  10  -9  -8    0.07    0.69
  10   9   9    1.59    0.85
  10   9   9    1.32    0.64
  10  -9  -9    1.30    0.64
  10   9  10    0.20    0.71
  10   9  10    0.60    0.59
  10  -9 -10    0.82    0.69
  10   9  11    2.47    0.83
  10   9  11    2.75    0.67
  10   9  12    5.18    0.97
  10   9  12    5.57    0.79
  10   9  13   16.40    1.41
  10   9  13   18.14    1.11
  10   9  14    5.69    0.97
  10   9  15    4.93    0.91
  10  10 -13    0.15    0.69
  10  10 -12   11.25    1.13
  10  10 -11   10.13    1.14
  10  10 -11    9.17    0.99
  10  10 -10    1.03    0.73
  10  10 -10    0.07    0.62
  10  10  -9    6.73    1.04
  10  10  -9    6.61    0.91
  10  10  -8    0.64    0.78
  10  10  -8   -0.68    0.67
  10  10  -7    5.38    1.01
  10  10  -7    5.58    0.86
  10  10  -6    2.18    0.87
  10  10  -6    1.28    0.63
  10  10  -5    1.57    0.89
  10  10  -5    1.75    0.64
  10  10  -4    0.20    0.87
  10  10  -4    0.60    0.61
  10  10  -3    1.64    0.79
  10  10  -3    2.70    0.95
  10  10  -3    2.81    0.67
  10  10  -2    1.14    0.76
  10  10  -2    1.31    0.85
  10  10  -2    1.82    0.65
  10  10  -2    1.30    0.64
  10  10  -1    3.15    0.87
  10  10  -1    2.49    0.65
  10  10  -1    2.05    0.65
  10  10   0   -0.37    0.69
  10  10   0   -0.26    0.64
  10  10   0    0.31    0.54
  10  10   1    2.88    0.80
  10  10   1    2.92    0.66
  10  10   2    1.79    0.76
  10  10   2    1.86    0.60
  10  10   3    2.48    0.85
  10  10   4    0.38    0.73
  10  10   5    2.22    0.84
  10  10   6    2.33    0.86
  10  10   7    4.49    0.97
  10  10   8    0.29    0.77
  10  10   9    5.25    0.96
  10  10  10   -0.10    0.73
  10  10  11   10.22    1.18
  10  10  12   10.09    1.17
  10  10  13    0.65    0.71
  10  10  14    3.57    0.84
  10  11 -11    0.87    0.69
  10  11 -10    1.31    0.73
  10  11  -9   -0.42    0.75
  10  11  -9   -0.07    0.61
  10  11  -8    5.32    0.96
  10  11  -8    4.76    0.82
  10  11  -7    2.23    0.87
  10  11  -7    1.90    0.71
  10  11  -6    1.54    0.80
  10  11  -6    0.75    0.60
  10  11  -5    0.83    0.75
  10  11  -5    0.34    0.59
  10  11  -4    2.88    0.86
  10  11  -4    1.21    0.64
  10  11  -3    0.29    0.82
  10  11  -3    0.46    0.58
  10  11  -2    1.74    0.74
  10  11  -2    1.26    0.79
  10  11  -2    1.52    0.62
  10  11  -1    0.09    0.70
  10  11  -1    0.87    0.84
  10  11  -1    0.72    0.62
  10  11   0    1.08    0.72
  10  11   0    1.27    0.67
  10  11   1    1.46    0.81
  10  11   2    1.66    0.77
  10  11   3    0.74    0.72
  10  11   4    2.63    0.85
  10  11   5   -0.19    0.77
  10  11   6    0.75    0.72
  10  11   7    1.69    0.75
  10  11   8    4.59    0.95
  10  11   9    0.09    0.69
  10  11  10    1.21    0.79
  10  11  11    1.10    0.72
  10  12  -8    0.32    0.71
  10  12  -7    2.67    0.84
  10  12  -6    0.51    0.69
  10  12  -5    3.90    0.86
  10  12  -4    1.23    0.78
  10  12  -4   -0.40    0.58
  10  12  -3    1.68    0.81
  10  12  -3    1.32    0.61
  10  12  -2   -0.27    0.78
  10  12  -2    0.65    0.56
  10  12  -1    0.26    0.65
  10  12  -1   -0.39    0.61
  10  12   0   -0.09    0.66
  10  12   1    0.26    0.65
  10  12   2   -0.27    0.65
  10  12   2    0.63    0.70
  10  12   3    1.34    0.77
  10  12   3    1.16    0.80
  10  12   4    0.72    0.68
  10  12   4    0.61    0.76
  10  12   5    2.88    0.82
  10  12   5    3.02    0.86
  10  12   6    0.36    0.70
  10  12   7    1.53    0.75
  11   0   0    0.28    0.80
  11   0  -1    5.89    1.09
  11   0   1    3.14    0.94
  11   0  -2   15.52    1.48
  11   0   2   14.39    1.39
  11   0  -3   27.71    1.88
  11   0   3   26.03    1.77
  11   0  -4    1.66    0.89
  11   0   4    2.89    0.96
  11   0  -5    0.79    0.88
  11   0   5    0.26    0.80
  11   0  -6    9.70    1.26
  11   0   6   10.20    1.17
  11   0   7    2.56    0.90
  11   0  -7    0.89    0.89
  11   0   8    4.02    0.93
  11   0  -8    3.54    0.99
  11   0   9    1.65    0.83
  11   0  10   -0.54    0.76
  11   0  11    1.05    0.78
  11   0  12   -0.07    0.68
  11   0  13    8.20    0.99
  11   0  14    3.49    0.81
  11   0  15    5.99    0.89
  11   0  16    4.50    0.88
  11  -1  16    3.64    0.78
  11  -1  15    4.50    0.85
  11  -1  14    3.06    0.79
  11  -1  13    0.07    0.68
  11  -1  12    2.97    0.86
  11  -1  11    4.61    0.91
  11  -1  10    7.49    1.05
  11  -1   9    0.16    0.72
  11  -1   8    6.47    1.02
  11  -1   7    5.16    0.97
  11  -1   6    2.34    0.86
  11  -1   5    0.17    0.78
  11  -1   4   16.38    1.41
  11  -1   3   -0.09    0.83
  11  -1   2    0.45    0.81
  11  -1   1    0.55    0.76
  11  -1   0    3.91    0.99
  11  -1  -1    1.23    0.82
  11  -1  -2    1.44    0.87
  11  -1  -3    0.68    0.91
  11  -1  -4   17.56    1.50
  11  -1  -5    0.49    0.80
  11  -1  -6    1.87    0.89
  11  -1  -7    5.50    1.02
  11  -1  -8    8.02    1.17
  11  -2  15    2.34    0.77
  11  -2  14   -0.20    0.69
  11  -2  13    5.30    0.88
  11  -2  12    3.12    0.81
  11  -2  11    2.04    0.75
  11  -2  10    0.45    0.74
  11  -2   9    4.15    0.89
  11  -2   8    1.10    0.75
  11   2  -8    0.58    0.80
  11  -2   7    1.20    0.76
  11   2  -7    0.58    0.86
  11   2  -6    0.29    0.81
  11  -2   6    1.56    0.82
  11   2  -5    4.91    1.03
  11  -2   5    4.44    0.95
  11   2  -4    1.15    0.80
  11  -2   4    0.43    0.78
  11   2  -3    4.86    1.00
  11  -2   3    4.08    0.91
  11   2  -2   -0.66    0.90
  11  -2   2    0.18    0.76
  11   2  -1    2.97    0.96
  11  -2   1    2.25    0.91
  11  -2   0    4.01    0.96
  11   2   0    3.94    0.97
  11  -2  -1    1.29    0.83
  11   2   1    3.07    0.89
  11  -2  -2    0.38    0.84
  11   2   2   -0.18    0.81
  11  -2  -3    5.79    1.05
  11   2   3    7.32    1.08
  11  -2  -4   -0.10    0.78
  11   2   4    0.09    0.75
  11  -2  -5    3.26    0.94
  11   2   5    3.36    0.87
  11   2   6    1.48    0.79
  11  -2  -6    0.77    0.86
  11   2   7    1.69    0.85
  11  -2  -7    1.35    0.80
  11   2   8    1.26    0.80
  11  -2  -8    1.54    0.88
  11   2   9    2.62    0.82
  11   2  10    1.35    0.80
  11   2  11    1.10    0.76
  11   2  12    3.26    0.85
  11   2  13    4.17    0.77
  11   2  13    3.94    0.85
  11   2  14    1.25    0.65
  11   2  14    1.87    0.73
  11   2  15    2.27    0.77
  11  -3  15    2.31    0.71
  11  -3  14    2.92    0.76
  11  -3  13    3.83    0.80
  11  -3  12    1.71    0.72
  11  -3  11    4.13    0.90
  11  -3  10    6.09    0.94
  11   3  -9    0.66    0.64
  11  -3   9    2.16    0.78
  11   3  -9    1.68    0.83
  11  -3   8    0.69    0.73
  11   3  -8   -0.09    0.74
  11  -3   7    1.32    0.82
  11   3  -7    1.98    0.91
  11  -3   6    4.45    0.90
  11   3  -6    2.54    0.92
  11   3  -5    1.97    0.84
  11  -3   5    0.33    0.75
  11   3  -4    0.47    0.77
  11  -3   4    0.91    0.79
  11   3  -3    3.05    0.92
  11  -3   3    2.44    0.90
  11   3  -2    0.91    0.80
  11  -3   2    1.37    0.80
  11   3  -1   11.52    1.25
  11  -3   1   10.62    1.16
  11  -3   0    2.48    0.92
  11   3   0    2.66    0.91
  11   3   1   11.91    1.25
  11  -3  -1   10.67    1.21
  11  -3  -2   -0.55    0.79
  11   3   2    1.55    0.85
  11  -3  -3    3.96    0.96
  11   3   3    3.64    0.92
  11  -3  -4    0.65    0.83
  11   3   4    0.66    0.74
  11  -3  -5    0.65    0.79
  11   3   5    0.73    0.75
  11   3   6    3.59    0.85
  11  -3  -6    5.52    1.03
  11   3   7    0.62    0.76
  11  -3  -7    1.59    0.88
  11   3   8    1.37    0.74
  11  -3  -8    1.03    0.85
  11   3   9    0.67    0.75
  11  -3  -9    2.32    0.89
  11   3  10    4.52    0.79
  11   3  10    6.74    0.97
  11   3  11    3.26    0.74
  11   3  11    4.98    0.85
  11   3  12    0.30    0.58
  11   3  12    0.62    0.69
  11   3  13    2.66    0.74
  11   3  13    2.84    0.77
  11   3  14    2.49    0.74
  11   3  14    2.40    0.76
  11   3  15    2.50    0.75
  11  -4  14    1.17    0.68
  11  -4  13    2.60    0.73
  11  -4  12    0.33    0.66
  11  -4  11    2.03    0.77
  11   4 -10    3.78    0.77
  11  -4  10    2.85    0.80
  11   4 -10    4.79    0.94
  11   4  -9    4.46    0.89
  11  -4   9    4.56    0.84
  11   4  -9    3.59    0.90
  11   4  -8    0.72    0.71
  11  -4   8    0.36    0.75
  11   4  -8    0.99    0.77
  11  -4   7    7.52    1.02
  11   4  -7    7.14    1.12
  11  -4   6    1.99    0.79
  11   4  -6    1.35    0.82
  11   4  -5    8.98    1.15
  11  -4   5    8.48    1.08
  11   4  -4    0.80    0.82
  11  -4   4    1.51    0.80
  11   4  -3   10.79    1.19
  11  -4   3    9.75    1.17
  11   4  -2    8.45    1.15
  11  -4   2    8.61    1.09
  11   4  -1    5.17    0.97
  11  -4   1    6.77    1.04
  11  -4   0    7.21    1.06
  11   4   0    6.20    1.04
  11  -4  -1    6.35    1.06
  11   4   1    6.45    1.04
  11  -4  -2    9.12    1.13
  11   4   2    9.56    1.16
  11  -4  -3    8.64    1.12
  11   4   3    9.95    1.15
  11  -4  -4    1.60    0.85
  11   4   4    2.07    0.82
  11  -4  -5   10.41    1.17
  11   4   5    8.50    1.09
  11   4   6    3.28    0.83
  11  -4  -6    1.97    0.90
  11   4   7    6.78    0.90
  11   4   7    6.11    0.95
  11  -4  -7    6.71    1.06
  11   4   8    0.54    0.67
  11   4   8    0.51    0.71
  11  -4  -8    0.45    0.75
  11   4   9    3.10    0.75
  11   4   9    4.05    0.84
  11  -4  -9    4.18    0.96
  11   4  10    3.43    0.78
  11   4  10    2.84    0.81
  11   4  11    3.20    0.77
  11   4  11    1.62    0.73
  11   4  12    0.16    0.57
  11   4  12    0.13    0.68
  11   4  13    1.56    0.69
  11   4  13    2.16    0.78
  11   4  14    0.68    0.64
  11  -5  12    1.59    0.67
  11   5 -11    0.35    0.61
  11  -5  11    0.76    0.69
  11   5 -11    1.32    0.77
  11   5 -10    3.56    0.80
  11  -5  10    4.19    0.83
  11   5 -10    3.10    0.86
  11   5  -9    2.78    0.82
  11  -5   9    2.21    0.75
  11   5  -9    2.45    0.87
  11   5  -8    1.47    0.73
  11  -5   8    0.69    0.70
  11   5  -8    1.61    0.79
  11   5  -7    2.69    0.80
  11  -5   7    4.57    0.86
  11   5  -7    2.46    0.85
  11  -5   6    0.86    0.71
  11   5  -6    2.12    0.90
  11   5  -5   12.51    1.27
  11  -5   5   16.52    1.32
  11   5  -4    6.15    1.01
  11  -5   4    6.06    0.96
  11   5  -3    0.33    0.79
  11  -5   3    0.61    0.76
  11   5  -2   10.20    1.21
  11  -5   2    9.91    1.15
  11   5  -1    3.74    0.92
  11  -5   1    1.81    0.85
  11  -5   0   32.09    1.84
  11   5   0   30.54    1.80
  11  -5  -1    5.42    0.96
  11   5   1    3.24    0.89
  11  -5  -2   10.30    1.17
  11   5   2    9.13    1.08
  11  -5  -3    0.74    0.74
  11   5   3    0.92    0.75
  11  -5  -4    6.11    1.00
  11   5   4    5.70    0.93
  11   5   5   13.60    1.18
  11  -5  -5   12.21    1.27
  11   5   5   16.28    1.28
  11   5   6    1.16    0.64
  11   5   6    2.87    0.81
  11  -5  -6    1.52    0.79
  11   5   7    2.72    0.73
  11   5   7    3.65    0.84
  11  -5  -7    3.12    0.89
  11   5   8    0.24    0.66
  11   5   8    0.96    0.70
  11  -5  -8    0.34    0.70
  11   5   9    1.99    0.71
  11   5   9    1.87    0.75
  11  -5  -9    2.85    0.85
  11   5  10    3.03    0.77
  11   5  10    2.35    0.77
  11  -5 -10    3.91    0.89
  11   5  11    0.40    0.59
  11   5  11    0.13    0.67
  11  -5 -11    0.57    0.73
  11   5  12    1.19    0.64
  11   5  12    2.56    0.70
  11  -6  11    0.99    0.65
  11   6 -11    0.92    0.69
  11   6 -10    5.08    0.89
  11  -6  10    3.13    0.75
  11   6 -10    3.71    0.86
  11   6  -9   -0.15    0.65
  11  -6   9    0.56    0.69
  11   6  -9    1.48    0.76
  11   6  -8    0.98    0.72
  11  -6   8    1.46    0.69
  11   6  -7    5.26    0.90
  11  -6   7    4.50    0.84
  11   6  -7    2.98    0.86
  11   6  -6    1.22    0.78
  11  -6   6    1.60    0.71
  11   6  -6    1.02    0.73
  11  -6   5    2.04    0.71
  11   6  -5    2.50    0.80
  11  -6   4    3.26    0.80
  11   6  -4    1.55    0.77
  11   6  -3    2.61    0.82
  11  -6   3    2.27    0.76
  11   6  -2    4.34    0.89
  11  -6   2    4.03    0.89
  11   6  -1    2.63    0.78
  11  -6   1    2.26    0.79
  11  -6   0   -0.07    0.67
  11   6   0   -0.30    0.71
  11  -6  -1    2.40    0.79
  11   6   1    1.31    0.76
  11  -6  -2    4.94    0.91
  11   6   2    4.74    0.87
  11   6   3    2.30    0.73
  11  -6  -3    1.84    0.75
  11   6   3    2.33    0.79
  11   6   4    2.96    0.70
  11   6   4    3.67    0.79
  11  -6  -4    2.40    0.81
  11   6   5    3.10    0.73
  11   6   5    1.62    0.73
  11  -6  -5    1.95    0.75
  11   6   6    1.10    0.69
  11   6   6    2.19    0.70
  11  -6  -6    1.48    0.80
  11   6   7    2.86    0.77
  11   6   7    4.35    0.83
  11  -6  -7    4.15    0.87
  11   6   8    1.60    0.68
  11   6   8    2.53    0.74
  11  -6  -8    2.18    0.75
  11   6   9    0.80    0.60
  11   6   9    0.93    0.66
  11  -6  -9    0.62    0.74
  11   6  10    4.75    0.86
  11   6  10    4.06    0.77
  11  -6 -10    5.08    0.90
  11   6  11    1.93    0.70
  11   6  11    1.27    0.66
  11  -6 -11    0.61    0.72
  11   7  -9    0.84    0.67
  11   7  -8    2.54    0.85
  11  -7   8    3.32    0.76
  11   7  -8    2.68    0.76
  11   7  -7    3.27    0.83
  11  -7   7    2.49    0.70
  11   7  -7    2.55    0.76
  11   7  -6   -0.09    0.72
  11  -7   6    0.24    0.61
  11   7  -6    0.78    0.71
  11   7  -5    0.71    0.78
  11  -7   5    1.80    0.71
  11   7  -5    0.56    0.68
  11  -7   4    3.40    0.77
  11   7  -4    3.57    0.79
  11  -7   3    3.09    0.73
  11   7  -3    3.82    0.83
  11   7  -2    1.10    0.74
  11  -7   2    0.26    0.66
  11   7  -1    1.02    0.73
  11  -7   1    0.27    0.66
  11  -7   0    7.77    0.96
  11   7   0    6.42    0.91
  11  -7  -1    1.37    0.70
  11   7   1    1.45    0.69
  11   7   2   -0.37    0.62
  11  -7  -2    0.07    0.63
  11   7   2    0.32    0.64
  11   7   3    3.48    0.77
  11   7   3    2.81    0.75
  11  -7  -3    4.90    0.84
  11   7   4    3.85    0.82
  11   7   4    5.25    0.80
  11  -7  -4    3.93    0.86
  11   7   5    1.56    0.72
  11   7   5    1.84    0.74
  11  -7  -5    1.69    0.76
  11   7   6    0.24    0.64
  11   7   6    0.48    0.61
  11  -7  -6    0.43    0.65
  11   7   7    2.32    0.76
  11   7   7    2.40    0.71
  11  -7  -7    4.12    0.86
  11   7   8    3.77    0.80
  11   7   8    1.89    0.72
  11  -7  -8    2.05    0.72
  11   7   9    0.97    0.68
  11   8  -7    3.22    0.86
  11   8  -6    1.09    0.75
  11   8  -5    3.93    0.90
  11   8  -4    2.30    0.87
  11  -8   4    1.80    0.69
  11   8  -4    3.87    0.76
  11   8  -3    0.81    0.78
  11  -8   3    0.40    0.63
  11   8  -3    0.67    0.66
  11  -8   2    8.76    0.90
  11   8  -2    7.06    0.90
  11   8  -1    0.06    0.61
  11  -8   1    0.47    0.63
  11   8   0    1.91    0.66
  11  -8   0    2.88    0.78
  11   8   0    1.36    0.66
  11   8   1   -0.07    0.65
  11   8   1    0.58    0.65
  11  -8  -1    1.27    0.68
  11   8   2    6.62    0.93
  11   8   2    6.87    0.87
  11  -8  -2    8.09    0.91
  11   8   3    1.14    0.68
  11   8   3    1.79    0.65
  11  -8  -3    0.12    0.67
  11   8   4    3.55    0.79
  11   8   4    1.99    0.66
  11  -8  -4    3.12    0.77
  11   8   5    3.27    0.76
  11   8   6    0.71    0.70
  11   9  -4    4.12    0.94
  11   9  -3   -0.09    0.73
  11   9  -2    8.66    1.10
  11   9  -1    1.06    0.79
  12   0   0    0.30    0.77
  12   0  -1   16.68    1.35
  12   0   1   15.41    1.30
  12   0  -2    2.01    0.86
  12   0   2    2.21    0.81
  12  -1   1    1.11    0.74
  12  -1   0    0.08    0.71
  12  -1  -1    1.06    0.76
   0   0   0    0.00    0.00


TITL tf-7-61-cp-100k-mo in P2(1)2(1)2(1)
REM P2(1)2(1)2(1) (#19 in standard setting)
CELL 0.71073   5.491125  10.517307  18.261945  90.0000  90.0000  90.0000
ZERR    4.00   0.000092   0.000168   0.000329   0.0000   0.0000   0.0000
LATT -1
SYMM -x+1/2,-y, z+1/2
SYMM -x, y+1/2,-z+1/2
SYMM  x+1/2,-y+1/2,-z
SFAC C H N O
UNIT 44.00 40.00 4.00 4.00
TREF
HKLF 4
END
_computing_structure_solution     'SHELXT 2018/2 (Sheldrick, 2018)'
;
_shelx_hkl_checksum                47741
_olex2_submission_special_instructions  'No special instructions were received'
