data_tf-27
_audit_creation_date               2020-04-07
_audit_creation_method
;
Olex2 1.3
(compiled 2020.02.04 svn.rd84adfe8 for OlexSys, GUI svn.r6032)
;
_shelx_SHELXL_version_number       '2018/3'
_audit_contact_author_address      ?
_audit_contact_author_email        ?
_audit_contact_author_name         ''
_audit_contact_author_phone        ?
_publ_contact_author_id_orcid      ?
_publ_section_references
;
Dolomanov, O.V., Bourhis, L.J., Gildea, R.J, Howard, J.A.K. & Puschmann, H.
 (2009), J. Appl. Cryst. 42, 339-341.

Sheldrick, G.M. (2015). Acta Cryst. C71, 3-8.
;
_chemical_name_common              ?
_chemical_name_systematic          ?
_chemical_formula_moiety           'B F4, C13 H10 N3 O2, H2 O'
_chemical_formula_sum              'C13 H12 B F4 N3 O3'
_chemical_formula_weight           345.07
_chemical_melting_point            ?
_chemical_oxdiff_formula           C13H12BF4N3O3
_chemical_oxdiff_usercomment       nitro-rhs
loop_
  _atom_type_symbol
  _atom_type_description
  _atom_type_scat_dispersion_real
  _atom_type_scat_dispersion_imag
  _atom_type_scat_source
 'C' 'C' 0.0181 0.0091 'International Tables Vol C Tables 4.2.6.8 and 6.1.1.4'
 'H' 'H' 0.0000 0.0000 'International Tables Vol C Tables 4.2.6.8 and 6.1.1.4'
 'B' 'B' 0.0090 0.0039 'International Tables Vol C Tables 4.2.6.8 and 6.1.1.4'
 'F' 'F' 0.0727 0.0534 'International Tables Vol C Tables 4.2.6.8 and 6.1.1.4'
 'N' 'N' 0.0311 0.0180 'International Tables Vol C Tables 4.2.6.8 and 6.1.1.4'
 'O' 'O' 0.0492 0.0322 'International Tables Vol C Tables 4.2.6.8 and 6.1.1.4'

_shelx_space_group_comment
;
The symmetry employed for this shelxl refinement is uniquely defined
by the following loop, which should always be used as a source of
symmetry information in preference to the above space-group names.
They are only intended as comments.
;
_space_group_crystal_system        'monoclinic'
_space_group_IT_number             14
_space_group_name_H-M_alt          'P 1 21/c 1'
_space_group_name_Hall             '-P 2ybc'
loop_
  _space_group_symop_operation_xyz
 'x, y, z'
 '-x, y+1/2, -z+1/2'
 '-x, -y, -z'
 'x, -y-1/2, z-1/2'

_cell_length_a                     7.6592(2)
_cell_length_b                     16.1459(4)
_cell_length_c                     11.7238(2)
_cell_angle_alpha                  90
_cell_angle_beta                   96.208(2)
_cell_angle_gamma                  90
_cell_volume                       1441.32(6)
_cell_formula_units_Z              4
_cell_measurement_reflns_used      4450
_cell_measurement_temperature      100.3(9)
_cell_measurement_theta_max        76.3100
_cell_measurement_theta_min        5.4470
_shelx_estimated_absorpt_T_max     ?
_shelx_estimated_absorpt_T_min     ?
_exptl_absorpt_coefficient_mu      1.288
_exptl_absorpt_correction_T_max    0.947
_exptl_absorpt_correction_T_min    0.840
_exptl_absorpt_correction_type     analytical
_exptl_absorpt_process_details
;
CrysAlisPro 1.171.40.67a (Rigaku Oxford Diffraction, 2019)
Analytical numeric absorption correction using a multifaceted crystal
			model based on expressions derived by R.C. Clark & J.S. Reid.
(Clark, R. C. & Reid, J. S. (1995). Acta Cryst. A51, 887-897)
Empirical absorption correction using spherical harmonics,
 implemented in SCALE3 ABSPACK scaling algorithm.
;
_exptl_absorpt_special_details     ?
_exptl_crystal_colour              brown
_exptl_crystal_colour_primary      brown
_exptl_crystal_density_diffrn      1.590
_exptl_crystal_density_meas        ?
_exptl_crystal_density_method      ?
_exptl_crystal_description         block
_exptl_crystal_F_000               704
loop_
  _exptl_crystal_face_index_h
  _exptl_crystal_face_index_k
  _exptl_crystal_face_index_l
  _exptl_crystal_face_perp_dist
 0 -1 0 0.0315
 -1 10 0 0.0205
 3 -6 3 0.0307
 -3 6 -3 0.0256
 5 0 -3 0.0661
 -3 -3 6 0.0806
 -3 -6 -4 0.0367
 3 -8 -4 0.0525
 4 0 4 0.0425

_exptl_crystal_size_max            0.189
_exptl_crystal_size_mid            0.084
_exptl_crystal_size_min            0.057
loop_
  _exptl_oxdiff_crystal_face_indexfrac_h
  _exptl_oxdiff_crystal_face_indexfrac_k
  _exptl_oxdiff_crystal_face_indexfrac_l
  _exptl_oxdiff_crystal_face_x
  _exptl_oxdiff_crystal_face_y
  _exptl_oxdiff_crystal_face_z
 0.0003 -1.0003 0.0000 -0.0802 -0.0214 0.0471
 -0.6558 10.3788 0.4299 0.7621 0.2261 -0.6067
 3.0521 -6.4839 3.2006 -0.4151 0.4859 0.7691
 -3.1016 6.4874 -3.0927 0.4068 -0.4762 -0.7796
 4.8299 -0.0056 -2.6005 0.4965 0.0394 0.8672
 -3.0587 -3.0098 6.0615 -0.7465 0.4571 -0.4835
 -3.0283 -5.5252 -3.9825 -0.5130 -0.8377 -0.1873
 2.5397 -7.7985 -3.6785 -0.2649 -0.4321 0.8621
 4.0142 0.3753 3.7906 0.1865 0.7776 0.6004

_exptl_transmission_factor_max     ?
_exptl_transmission_factor_min     ?
_diffrn_reflns_av_R_equivalents    0.0266
_diffrn_reflns_av_unetI/netI       0.0281
_diffrn_reflns_Laue_measured_fraction_full  0.997
_diffrn_reflns_Laue_measured_fraction_max  0.971
_diffrn_reflns_limit_h_max         9
_diffrn_reflns_limit_h_min         -7
_diffrn_reflns_limit_k_max         19
_diffrn_reflns_limit_k_min         -19
_diffrn_reflns_limit_l_max         14
_diffrn_reflns_limit_l_min         -14
_diffrn_reflns_number              9706
_diffrn_reflns_point_group_measured_fraction_full  0.997
_diffrn_reflns_point_group_measured_fraction_max  0.971
_diffrn_reflns_theta_full          67.684
_diffrn_reflns_theta_max           77.062
_diffrn_reflns_theta_min           4.679
_diffrn_ambient_environment        N~2~
_diffrn_ambient_temperature        100.3(9)
_diffrn_detector                   'Hybrid Pixel Array Detector'
_diffrn_detector_area_resol_mean   10.0000
_diffrn_detector_type              HyPix
_diffrn_measured_fraction_theta_full  0.997
_diffrn_measured_fraction_theta_max  0.971
_diffrn_measurement_details
;
List of Runs (angles in degrees, time in seconds):

  # Type    Start    End  Width  t~exp~   \w     \q     \k     \f   Frames
--------------------------------------------------------------------------
  1  \w    -73.00  13.00   0.50    0.39    --  -48.32  82.00  75.00  172
  2  \w    -16.00  48.00   0.50    0.39    --   48.32 -82.00 -46.00  128
  3  \w   -114.00 -88.00   0.50    1.62    --  -86.25 -82.00 -46.00   52
  4  \w   -141.00-115.00   0.50    1.62    --  -86.25 -82.00 -46.00   52
  5  \w    133.00 167.00   0.50    1.62    --  107.75  82.00  75.00   68
  6  \w     45.00 103.00   0.50    1.62    --  107.75 -82.00 -46.00  116
  7  \w   -119.00 -84.00   0.50    0.39    --  -48.32 -57.00 -60.00   70
  8  \w   -120.00 -83.00   0.50    0.39    --  -48.32 -57.00 -30.00   74
  9  \w   -120.00 -87.00   0.50    0.39    --  -48.32-125.00 120.00   66
 10  \w    -53.00 -15.00   0.50    1.62    --  -86.25  45.00 -90.00   76
 11  \w   -109.00 -72.00   0.50    1.62    --  -86.25  82.00  75.00   74
 12  \w     91.00 131.00   0.50    1.62    --  107.75 -77.00   0.00   80
 13  \w     41.00  67.00   0.50    1.62    --  107.75 -61.00-150.00   52
 14  \w     38.00  63.00   0.50    1.62    --  107.75 -61.00 150.00   50
 15  \w     94.00 168.00   0.50    1.62    --  107.75  15.00   0.00  148
 16  \w    131.00 174.00   0.50    1.62    --  107.75  15.00  30.00   86
 17  \w     37.00  64.00   0.50    1.62    --  107.75 -61.00 -30.00   54
 18  \w     41.00  87.00   0.50    1.62    --  107.75 -77.00   0.00   92
 19  \w    102.00 177.00   0.50    1.62    --  107.75  77.00-120.00  150
 20  \w     95.00 173.00   0.50    1.62    --  107.75  15.00-120.00  156
 21  \w     35.00  63.00   0.50    1.62    --  107.75 -61.00  30.00   56
 22  \w     94.00 126.00   0.50    1.62    --  107.75  15.00  30.00   64
;
_diffrn_measurement_device         'four-circle diffractometer'
_diffrn_measurement_device_type    'XtaLAB Synergy, Dualflex, HyPix'
_diffrn_measurement_method         '\w scans'
_diffrn_orient_matrix_type        
 'CrysAlisPro convention (1999,Acta A55,543-557)'
_diffrn_orient_matrix_UB_11        0.0796732000
_diffrn_orient_matrix_UB_12        0.0802453000
_diffrn_orient_matrix_UB_13        -0.0431070000
_diffrn_orient_matrix_UB_21        0.0748278000
_diffrn_orient_matrix_UB_22        0.0213838000
_diffrn_orient_matrix_UB_23        0.1237841000
_diffrn_orient_matrix_UB_31        0.1702205000
_diffrn_orient_matrix_UB_32        -0.0469915000
_diffrn_orient_matrix_UB_33        -0.0172071000
_diffrn_radiation_monochromator    mirror
_diffrn_radiation_probe            x-ray
_diffrn_radiation_type             'Cu K\a'
_diffrn_radiation_wavelength       1.54184
_diffrn_source                     'micro-focus sealed X-ray tube'
_diffrn_source_type                'PhotonJet (Cu) X-ray Source'
_reflns_Friedel_coverage           0.000
_reflns_Friedel_fraction_full      .
_reflns_Friedel_fraction_max       .
_reflns_number_gt                  2549
_reflns_number_total               2966
_reflns_odcompleteness_completeness  98.43
_reflns_odcompleteness_iscentric   1
_reflns_odcompleteness_theta       75.12
_reflns_special_details
;
 Reflections were merged by SHELXL according to the crystal
 class for the calculation of statistics and refinement.
 
 _reflns_Friedel_fraction is defined as the number of unique
 Friedel pairs measured divided by the number that would be
 possible theoretically, ignoring centric projections and
 systematic absences.
;
_reflns_threshold_expression       'I > 2\s(I)'
_computing_cell_refinement         'CrysAlisPro 1.171.40.67a (Rigaku OD, 2019)'
_computing_data_collection         'CrysAlisPro 1.171.40.67a (Rigaku OD, 2019)'
_computing_data_reduction          'CrysAlisPro 1.171.40.67a (Rigaku OD, 2019)'
_computing_molecular_graphics      'Olex2 1.3 (Dolomanov et al., 2009)'
_computing_publication_material    'Olex2 1.3 (Dolomanov et al., 2009)'
_computing_structure_refinement    'SHELXL 2018/3 (Sheldrick, 2015)'
_computing_structure_solution      'SHELXT  (Sheldrick, 2015)'
_refine_diff_density_max           0.669
_refine_diff_density_min           -0.641
_refine_diff_density_rms           0.077
_refine_ls_extinction_coef         .
_refine_ls_extinction_method       none
_refine_ls_goodness_of_fit_ref     1.065
_refine_ls_hydrogen_treatment      mixed
_refine_ls_matrix_type             full
_refine_ls_number_parameters       229
_refine_ls_number_reflns           2966
_refine_ls_number_restraints       0
_refine_ls_R_factor_all            0.0827
_refine_ls_R_factor_gt             0.0748
_refine_ls_restrained_S_all        1.065
_refine_ls_shift/su_max            0.000
_refine_ls_shift/su_mean           0.000
_refine_ls_structure_factor_coef   Fsqd
_refine_ls_weighting_details      
 'w=1/[\s^2^(Fo^2^)+(0.1045P)^2^+1.9863P] where P=(Fo^2^+2Fc^2^)/3'
_refine_ls_weighting_scheme        calc
_refine_ls_wR_factor_gt            0.2004
_refine_ls_wR_factor_ref           0.2084
_refine_special_details            ?
_olex2_refinement_description
;
1. Fixed Uiso
 At 1.2 times of:
  All C(H) groups, All N(H) groups
 At 1.5 times of:
  All O(H,H) groups
2.a Aromatic/amide H refined with riding coordinates:
 C2(H2A), C5(H5), C6(H6), C9(H9), C10(H10), C11(H11), C12(H12), C13(H13)
;
_atom_sites_solution_hydrogens     mixed
_atom_sites_solution_primary       dual
_atom_sites_solution_secondary     ?
loop_
  _atom_site_label
  _atom_site_type_symbol
  _atom_site_fract_x
  _atom_site_fract_y
  _atom_site_fract_z
  _atom_site_U_iso_or_equiv
  _atom_site_adp_type
  _atom_site_occupancy
  _atom_site_site_symmetry_order
  _atom_site_calc_flag
  _atom_site_refinement_flags_posn
  _atom_site_refinement_flags_adp
  _atom_site_refinement_flags_occupancy
  _atom_site_disorder_assembly
  _atom_site_disorder_group
 F1 F 0.6846(4) 0.48523(19) 0.5724(2) 0.0858(9) Uani 1 1 d . . . . .
 F2 F 0.7287(4) 0.59739(13) 0.6814(2) 0.0786(8) Uani 1 1 d . . . . .
 F3 F 0.7074(5) 0.47530(14) 0.7624(2) 0.0861(10) Uani 1 1 d . . . . .
 F4 F 0.9401(5) 0.5032(3) 0.6753(6) 0.174(2) Uani 1 1 d . . . . .
 B1 B 0.7676(5) 0.5167(2) 0.6715(3) 0.0459(9) Uani 1 1 d . . . . .
 O1 O 0.2291(3) 0.36075(15) -0.18455(18) 0.0526(6) Uani 1 1 d . . . . .
 O2 O 0.2819(3) 0.46393(14) -0.06850(19) 0.0478(6) Uani 1 1 d . . . . .
 N1 N 0.2910(3) 0.39055(16) -0.0925(2) 0.0386(6) Uani 1 1 d . . . . .
 N2 N 0.6543(3) 0.32387(15) 0.27104(19) 0.0312(5) Uani 1 1 d . . . . .
 H2 H 0.674(5) 0.370(2) 0.299(3) 0.037 Uiso 1 1 d . U . . .
 N3 N 0.6445(3) 0.19108(16) 0.24014(19) 0.0311(5) Uani 1 1 d . . . . .
 H3 H 0.664(5) 0.141(2) 0.244(3) 0.037 Uiso 1 1 d . U . . .
 C1 C 0.3816(3) 0.33397(18) -0.0069(2) 0.0323(6) Uani 1 1 d . . . . .
 C2 C 0.4678(3) 0.36897(18) 0.0915(2) 0.0328(6) Uani 1 1 d . . . . .
 H2A H 0.469678 0.425697 0.105311 0.039 Uiso 1 1 calc R U . . .
 C3 C 0.5508(3) 0.31209(17) 0.1673(2) 0.0305(6) Uani 1 1 d . . . . .
 C4 C 0.5455(3) 0.22746(18) 0.1472(2) 0.0307(6) Uani 1 1 d . . . . .
 C5 C 0.4555(4) 0.19385(18) 0.0481(2) 0.0332(6) Uani 1 1 d . . . . .
 H5 H 0.450713 0.137014 0.035277 0.040 Uiso 1 1 calc R U . . .
 C6 C 0.3738(3) 0.24929(18) -0.0298(2) 0.0329(6) Uani 1 1 d . . . . .
 H6 H 0.313425 0.230097 -0.097722 0.039 Uiso 1 1 calc R U . . .
 C7 C 0.7091(3) 0.25069(17) 0.3123(2) 0.0307(6) Uani 1 1 d . . . . .
 C8 C 0.8213(3) 0.23653(18) 0.4201(2) 0.0318(6) Uani 1 1 d . . . . .
 C9 C 0.8929(4) 0.3044(2) 0.4825(2) 0.0379(6) Uani 1 1 d . . . . .
 H9 H 0.873984 0.357708 0.453882 0.045 Uiso 1 1 calc R U . . .
 C10 C 0.9926(4) 0.2920(2) 0.5872(2) 0.0408(7) Uani 1 1 d . . . . .
 H10 H 1.040061 0.337271 0.628843 0.049 Uiso 1 1 calc R U . . .
 C11 C 1.0214(4) 0.2134(2) 0.6297(2) 0.0407(7) Uani 1 1 d . . . . .
 H11 H 1.087604 0.205656 0.700142 0.049 Uiso 1 1 calc R U . . .
 C12 C 0.9522(4) 0.1452(2) 0.5678(3) 0.0421(7) Uani 1 1 d . . . . .
 H12 H 0.973091 0.092064 0.596659 0.051 Uiso 1 1 calc R U . . .
 C13 C 0.8517(4) 0.1566(2) 0.4628(2) 0.0370(6) Uani 1 1 d . . . . .
 H13 H 0.805146 0.111167 0.421266 0.044 Uiso 1 1 calc R U . . .
 O3 O 0.7051(4) 0.48195(16) 0.3398(2) 0.0524(6) Uani 1 1 d . . . . .
 H3A H 0.804(7) 0.486(3) 0.326(5) 0.079 Uiso 1 1 d . U . . .
 H3B H 0.702(7) 0.490(3) 0.409(5) 0.079 Uiso 1 1 d . U . . .

loop_
  _atom_site_aniso_label
  _atom_site_aniso_U_11
  _atom_site_aniso_U_22
  _atom_site_aniso_U_33
  _atom_site_aniso_U_23
  _atom_site_aniso_U_13
  _atom_site_aniso_U_12
 F1 0.114(2) 0.101(2) 0.0417(12) -0.0212(12) 0.0039(13) -0.0313(17)
 F2 0.145(3) 0.0379(11) 0.0525(13) 0.0025(9) 0.0108(14) 0.0108(13)
 F3 0.167(3) 0.0440(12) 0.0470(13) 0.0035(10) 0.0092(15) 0.0009(15)
 F4 0.0534(18) 0.165(4) 0.294(7) -0.007(4) -0.018(3) 0.030(2)
 B1 0.055(2) 0.0377(18) 0.0411(18) -0.0034(14) -0.0131(16) 0.0065(15)
 O1 0.0678(15) 0.0532(14) 0.0314(11) -0.0027(9) -0.0189(10) -0.0013(11)
 O2 0.0583(14) 0.0409(12) 0.0411(12) -0.0016(9) -0.0096(10) 0.0016(10)
 N1 0.0406(13) 0.0432(14) 0.0301(12) -0.0010(10) -0.0048(10) -0.0015(11)
 N2 0.0345(11) 0.0346(12) 0.0237(11) -0.0053(9) -0.0002(8) -0.0029(9)
 N3 0.0338(12) 0.0341(12) 0.0247(10) -0.0020(9) 0.0000(9) -0.0001(9)
 C1 0.0301(12) 0.0419(15) 0.0243(12) -0.0002(11) -0.0001(10) -0.0012(11)
 C2 0.0331(13) 0.0365(14) 0.0283(12) -0.0028(11) 0.0011(10) -0.0024(11)
 C3 0.0283(12) 0.0401(15) 0.0227(12) -0.0033(10) 0.0015(9) -0.0036(10)
 C4 0.0288(12) 0.0395(15) 0.0233(12) -0.0011(10) 0.0010(9) -0.0030(10)
 C5 0.0332(13) 0.0372(14) 0.0288(13) -0.0050(11) 0.0017(10) -0.0038(11)
 C6 0.0290(12) 0.0436(15) 0.0255(12) -0.0050(11) 0.0003(10) -0.0037(11)
 C7 0.0293(12) 0.0391(14) 0.0234(12) -0.0027(10) 0.0021(10) -0.0037(10)
 C8 0.0280(12) 0.0441(15) 0.0232(12) -0.0016(10) 0.0025(10) -0.0002(11)
 C9 0.0334(14) 0.0468(16) 0.0318(14) -0.0045(12) -0.0038(11) 0.0027(12)
 C10 0.0313(14) 0.0567(19) 0.0326(14) -0.0099(13) -0.0054(11) 0.0009(12)
 C11 0.0294(13) 0.066(2) 0.0255(13) -0.0011(13) -0.0006(10) -0.0004(13)
 C12 0.0377(15) 0.0553(19) 0.0328(14) 0.0086(13) 0.0012(12) -0.0002(13)
 C13 0.0351(14) 0.0449(16) 0.0303(13) 0.0008(12) -0.0002(11) -0.0044(12)
 O3 0.0720(17) 0.0479(14) 0.0363(12) -0.0078(10) 0.0014(11) -0.0123(12)

_geom_special_details
;
 All esds (except the esd in the dihedral angle between two l.s. planes)
 are estimated using the full covariance matrix.  The cell esds are taken
 into account individually in the estimation of esds in distances, angles
 and torsion angles; correlations between esds in cell parameters are only
 used when they are defined by crystal symmetry.  An approximate (isotropic)
 treatment of cell esds is used for estimating esds involving l.s. planes.
;
loop_
  _geom_bond_atom_site_label_1
  _geom_bond_atom_site_label_2
  _geom_bond_distance
  _geom_bond_site_symmetry_2
  _geom_bond_publ_flag
 F1 B1 1.361(4) . ?
 F2 B1 1.344(4) . ?
 F3 B1 1.379(5) . ?
 F4 B1 1.336(5) . ?
 O1 N1 1.229(3) . ?
 O2 N1 1.222(3) . ?
 N1 C1 1.474(4) . ?
 N2 H2 0.82(4) . ?
 N2 C3 1.391(3) . ?
 N2 C7 1.328(4) . ?
 N3 H3 0.82(4) . ?
 N3 C4 1.389(3) . ?
 N3 C7 1.340(3) . ?
 C1 C2 1.386(4) . ?
 C1 C6 1.393(4) . ?
 C2 H2A 0.9300 . ?
 C2 C3 1.384(4) . ?
 C3 C4 1.386(4) . ?
 C4 C5 1.395(4) . ?
 C5 H5 0.9300 . ?
 C5 C6 1.380(4) . ?
 C6 H6 0.9300 . ?
 C7 C8 1.467(4) . ?
 C8 C9 1.396(4) . ?
 C8 C13 1.394(4) . ?
 C9 H9 0.9300 . ?
 C9 C10 1.389(4) . ?
 C10 H10 0.9300 . ?
 C10 C11 1.373(5) . ?
 C11 H11 0.9300 . ?
 C11 C12 1.391(5) . ?
 C12 H12 0.9300 . ?
 C12 C13 1.392(4) . ?
 C13 H13 0.9300 . ?
 O3 H3A 0.80(6) . ?
 O3 H3B 0.83(5) . ?

loop_
  _geom_angle_atom_site_label_1
  _geom_angle_atom_site_label_2
  _geom_angle_atom_site_label_3
  _geom_angle
  _geom_angle_site_symmetry_1
  _geom_angle_site_symmetry_3
  _geom_angle_publ_flag
 F1 B1 F3 108.3(3) . . ?
 F2 B1 F1 110.4(3) . . ?
 F2 B1 F3 107.9(3) . . ?
 F4 B1 F1 109.7(4) . . ?
 F4 B1 F2 112.5(4) . . ?
 F4 B1 F3 107.9(4) . . ?
 O1 N1 C1 117.6(2) . . ?
 O2 N1 O1 123.8(3) . . ?
 O2 N1 C1 118.6(2) . . ?
 C3 N2 H2 122(2) . . ?
 C7 N2 H2 129(2) . . ?
 C7 N2 C3 109.0(2) . . ?
 C4 N3 H3 123(2) . . ?
 C7 N3 H3 128(2) . . ?
 C7 N3 C4 109.0(2) . . ?
 C2 C1 N1 117.4(3) . . ?
 C2 C1 C6 124.5(3) . . ?
 C6 C1 N1 118.0(2) . . ?
 C1 C2 H2A 122.9 . . ?
 C3 C2 C1 114.1(3) . . ?
 C3 C2 H2A 122.9 . . ?
 C2 C3 N2 130.5(3) . . ?
 C2 C3 C4 122.8(2) . . ?
 C4 C3 N2 106.7(2) . . ?
 N3 C4 C5 131.9(3) . . ?
 C3 C4 N3 106.2(2) . . ?
 C3 C4 C5 121.9(3) . . ?
 C4 C5 H5 121.7 . . ?
 C6 C5 C4 116.5(3) . . ?
 C6 C5 H5 121.7 . . ?
 C1 C6 H6 119.9 . . ?
 C5 C6 C1 120.2(2) . . ?
 C5 C6 H6 119.9 . . ?
 N2 C7 N3 109.2(2) . . ?
 N2 C7 C8 125.8(2) . . ?
 N3 C7 C8 125.0(3) . . ?
 C9 C8 C7 119.3(3) . . ?
 C13 C8 C7 120.8(3) . . ?
 C13 C8 C9 119.8(3) . . ?
 C8 C9 H9 120.1 . . ?
 C10 C9 C8 119.9(3) . . ?
 C10 C9 H9 120.1 . . ?
 C9 C10 H10 119.9 . . ?
 C11 C10 C9 120.3(3) . . ?
 C11 C10 H10 119.9 . . ?
 C10 C11 H11 119.8 . . ?
 C10 C11 C12 120.4(3) . . ?
 C12 C11 H11 119.8 . . ?
 C11 C12 H12 120.0 . . ?
 C11 C12 C13 120.0(3) . . ?
 C13 C12 H12 120.0 . . ?
 C8 C13 H13 120.2 . . ?
 C12 C13 C8 119.6(3) . . ?
 C12 C13 H13 120.2 . . ?
 H3A O3 H3B 109(5) . . ?

loop_
  _geom_torsion_atom_site_label_1
  _geom_torsion_atom_site_label_2
  _geom_torsion_atom_site_label_3
  _geom_torsion_atom_site_label_4
  _geom_torsion
  _geom_torsion_site_symmetry_1
  _geom_torsion_site_symmetry_2
  _geom_torsion_site_symmetry_3
  _geom_torsion_site_symmetry_4
  _geom_torsion_publ_flag
 O1 N1 C1 C2 173.0(3) . . . . ?
 O1 N1 C1 C6 -7.4(4) . . . . ?
 O2 N1 C1 C2 -6.7(4) . . . . ?
 O2 N1 C1 C6 172.8(3) . . . . ?
 N1 C1 C2 C3 -179.5(2) . . . . ?
 N1 C1 C6 C5 -179.5(2) . . . . ?
 N2 C3 C4 N3 0.6(3) . . . . ?
 N2 C3 C4 C5 -178.5(2) . . . . ?
 N2 C7 C8 C9 -6.3(4) . . . . ?
 N2 C7 C8 C13 171.4(3) . . . . ?
 N3 C4 C5 C6 -177.9(3) . . . . ?
 N3 C7 C8 C9 174.2(2) . . . . ?
 N3 C7 C8 C13 -8.1(4) . . . . ?
 C1 C2 C3 N2 177.2(3) . . . . ?
 C1 C2 C3 C4 -1.0(4) . . . . ?
 C2 C1 C6 C5 0.0(4) . . . . ?
 C2 C3 C4 N3 179.2(2) . . . . ?
 C2 C3 C4 C5 0.1(4) . . . . ?
 C3 N2 C7 N3 -0.5(3) . . . . ?
 C3 N2 C7 C8 180.0(2) . . . . ?
 C3 C4 C5 C6 0.9(4) . . . . ?
 C4 N3 C7 N2 0.9(3) . . . . ?
 C4 N3 C7 C8 -179.6(2) . . . . ?
 C4 C5 C6 C1 -0.9(4) . . . . ?
 C6 C1 C2 C3 1.0(4) . . . . ?
 C7 N2 C3 C2 -178.5(3) . . . . ?
 C7 N2 C3 C4 -0.1(3) . . . . ?
 C7 N3 C4 C3 -0.9(3) . . . . ?
 C7 N3 C4 C5 178.0(3) . . . . ?
 C7 C8 C9 C10 177.0(2) . . . . ?
 C7 C8 C13 C12 -177.1(2) . . . . ?
 C8 C9 C10 C11 0.2(4) . . . . ?
 C9 C8 C13 C12 0.6(4) . . . . ?
 C9 C10 C11 C12 0.5(4) . . . . ?
 C10 C11 C12 C13 -0.6(4) . . . . ?
 C11 C12 C13 C8 0.1(4) . . . . ?
 C13 C8 C9 C10 -0.7(4) . . . . ?

_shelx_res_file
;
TITL tf-27_a.res in P2(1)/c
    tf-27.res
    created by SHELXL-2018/3 at 11:16:08 on 07-Apr-2020
REM Old TITL tf-27 in P2(1)/c
REM SHELXT solution in P2(1)/c: R1 0.217, Rweak 0.018, Alpha 0.035
REM <I/s> 0.416 for 118 systematic absences, Orientation as input
REM Formula found by SHELXT: C17 N6 O2
CELL 1.54184 7.6592 16.1459 11.7238 90 96.208 90
ZERR 4 0.0002 0.0004 0.0002 0 0.002 0
LATT 1
SYMM -X,0.5+Y,0.5-Z
SFAC C H B F N O
UNIT 52 48 4 16 12 12

L.S. 4 0 0
PLAN  5
CONF
BOND
list 4
MORE -1
BOND $H
fmap 2 53
acta
REM <olex2.extras>
REM <HklSrc "%tf-27.hkl">
REM </olex2.extras>

WGHT    0.104500    1.986300
FVAR       3.38063
F1    4    0.684558    0.485234    0.572430    11.00000    0.11382    0.10087 =
         0.04172   -0.02122    0.00391   -0.03131
F2    4    0.728741    0.597389    0.681436    11.00000    0.14549    0.03786 =
         0.05251    0.00254    0.01079    0.01079
F3    4    0.707429    0.475299    0.762436    11.00000    0.16692    0.04400 =
         0.04697    0.00347    0.00924    0.00091
F4    4    0.940138    0.503225    0.675294    11.00000    0.05340    0.16534 =
         0.29413   -0.00701   -0.01757    0.02998
B1    3    0.767565    0.516715    0.671538    11.00000    0.05498    0.03766 =
         0.04108   -0.00342   -0.01311    0.00654
O1    6    0.229124    0.360752   -0.184546    11.00000    0.06775    0.05323 =
         0.03143   -0.00274   -0.01894   -0.00125
O2    6    0.281866    0.463933   -0.068498    11.00000    0.05831    0.04086 =
         0.04106   -0.00156   -0.00955    0.00158
N1    5    0.290950    0.390550   -0.092503    11.00000    0.04056    0.04323 =
         0.03007   -0.00102   -0.00485   -0.00149
N2    5    0.654265    0.323870    0.271039    11.00000    0.03454    0.03464 =
         0.02373   -0.00534   -0.00019   -0.00286
H2    2    0.673564    0.370103    0.298846    11.00000   -1.20000
N3    5    0.644489    0.191083    0.240140    11.00000    0.03382    0.03407 =
         0.02466   -0.00204    0.00000   -0.00009
H3    2    0.663502    0.140952    0.244206    11.00000   -1.20000
C1    1    0.381577    0.333969   -0.006911    11.00000    0.03011    0.04191 =
         0.02434   -0.00020   -0.00014   -0.00117
C2    1    0.467789    0.368972    0.091460    11.00000    0.03310    0.03651 =
         0.02827   -0.00275    0.00108   -0.00236
AFIX  43
H2A   2    0.469678    0.425697    0.105311    11.00000   -1.20000
AFIX   0
C3    1    0.550840    0.312085    0.167289    11.00000    0.02832    0.04012 =
         0.02270   -0.00332    0.00150   -0.00358
C4    1    0.545488    0.227457    0.147186    11.00000    0.02882    0.03953 =
         0.02334   -0.00112    0.00102   -0.00298
C5    1    0.455456    0.193847    0.048136    11.00000    0.03322    0.03716 =
         0.02875   -0.00504    0.00166   -0.00380
AFIX  43
H5    2    0.450713    0.137014    0.035277    11.00000   -1.20000
AFIX   0
C6    1    0.373808    0.249291   -0.029770    11.00000    0.02897    0.04365 =
         0.02549   -0.00503    0.00027   -0.00375
AFIX  43
H6    2    0.313425    0.230097   -0.097722    11.00000   -1.20000
AFIX   0
C7    1    0.709079    0.250688    0.312331    11.00000    0.02935    0.03907 =
         0.02345   -0.00270    0.00207   -0.00368
C8    1    0.821268    0.236526    0.420125    11.00000    0.02804    0.04410 =
         0.02318   -0.00155    0.00253   -0.00017
C9    1    0.892948    0.304357    0.482465    11.00000    0.03338    0.04677 =
         0.03182   -0.00453   -0.00377    0.00269
AFIX  43
H9    2    0.873984    0.357708    0.453882    11.00000   -1.20000
AFIX   0
C10   1    0.992618    0.292045    0.587232    11.00000    0.03126    0.05672 =
         0.03260   -0.00995   -0.00543    0.00086
AFIX  43
H10   2    1.040061    0.337271    0.628843    11.00000   -1.20000
AFIX   0
C11   1    1.021427    0.213398    0.629651    11.00000    0.02941    0.06641 =
         0.02551   -0.00115   -0.00063   -0.00043
AFIX  43
H11   2    1.087604    0.205656    0.700142    11.00000   -1.20000
AFIX   0
C12   1    0.952230    0.145228    0.567830    11.00000    0.03773    0.05528 =
         0.03280    0.00858    0.00122   -0.00016
AFIX  43
H12   2    0.973091    0.092064    0.596659    11.00000   -1.20000
AFIX   0
C13   1    0.851716    0.156615    0.462768    11.00000    0.03511    0.04486 =
         0.03031    0.00082   -0.00019   -0.00442
AFIX  43
H13   2    0.805146    0.111167    0.421266    11.00000   -1.20000
AFIX   0

O3    6    0.705056    0.481952    0.339800    11.00000    0.07201    0.04789 =
         0.03629   -0.00783    0.00141   -0.01227
H3A   2    0.804102    0.486463    0.325635    11.00000   -1.50000
H3B   2    0.701593    0.490397    0.409165    11.00000   -1.50000
HKLF 4




REM  tf-27_a.res in P2(1)/c
REM wR2 = 0.2084, GooF = S = 1.065, Restrained GooF = 1.065 for all data
REM R1 = 0.0748 for 2549 Fo > 4sig(Fo) and 0.0827 for all 2966 data
REM 229 parameters refined using 0 restraints

END

WGHT      0.1045      1.9863

REM Highest difference peak  0.669,  deepest hole -0.641,  1-sigma level  0.077
Q1    1   0.5955  0.4653  0.7252  11.00000  0.05    0.67
Q2    1   0.8649  0.5959  0.6710  11.00000  0.05    0.66
Q3    1   0.9018  0.4836  0.7378  11.00000  0.05    0.66
Q4    1   0.8265  0.5174  0.5625  11.00000  0.05    0.59
Q5    1   0.9524  0.5280  0.6747  11.00000  0.05    0.45
;
_shelx_res_checksum                72941
_shelx_hkl_file
;
   0   0   1 20.5290 8.72831   8
   0   0   2 104.272 20.8076   8
   0   0   3-5.81099 24.4190   8
   0   0   4 397.412 44.8440   8
   0   0   5 6.87979 34.2832   8
   0   0   6 4565.65 203.090   8
   0   0   7 5.84013 44.3633   7
   0   0   7 5.33035 37.0236   8
   0   0   8 15445.3 575.003   7
   0   0   8 14543.7 558.594   8
   0   0   8 14685.7 502.976  20
   0   0   8 15510.9 503.361  19
   0   0  -9-7.70454 34.3392   9
   0   0   9 33.3295 54.3637   7
   0   0   9-20.2632 28.7291  19
   0   0   9-2.63591 30.8709  20
   0   0  -9 59.8842 52.2750   2
   0   0  10 1442.92 137.621   7
   0   0  10 1572.18 87.6371  20
   0   0  10 1415.96 81.4548  19
   0   0  10 1426.17 80.0677   3
   0   0 -10 1325.40 139.678   2
   0   0  11-18.8861 58.8084   7
   0   0  11 15.5943 28.5998  19
   0   0  11-4.47528 32.7902   3
   0   0 -11 45.4382 57.4089   2
   0   0  12 10754.7 380.005  19
   0   0  12 11630.6 380.736   3
   0   0  13-10.0961 19.5399  19
   0   0  13-3.20770 22.1716   3
   0   0 -14 140.992 20.1298   5
   0  -1   0 3.87418 6.69527   9
   0   1   1 115.436 11.4586   8
   0   1   2 99.7004 19.2805   8
   0  -1   3 53512.4 1706.06   8
   0   1   3 54379.7 1701.30   8
   0  -1   4 4743.75 195.596   8
   0   1   4 5203.78 192.526   8
   0   1   5 17108.2 582.545   8
   0  -1   5 17306.3 590.629   8
   0  -1   6 37127.8 1249.99   8
   0   1   6 38870.2 1244.27   8
   0   1   7 3245.45 164.585   8
   0   1   7 3178.23 173.133   7
   0  -1   7 2997.05 167.471   8
   0   1   8 103.253 47.1319   8
   0  -1   8 181.825 54.6168   8
   0   1   8 233.465 63.2457   7
   0   1  -8 203.808 47.9175   9
   0  -1   8 152.518 32.9208  20
   0  -1   8 176.257 30.6055  19
   0   1   8 107.956 31.1641  20
   0   1   9 3610.53 209.257   7
   0  -1   9 3213.07 197.036   8
   0  -1  -9 3282.08 204.976   9
   0  -1   9 3496.49 145.003  19
   0  -1   9 3298.14 146.749  20
   0   1   9 3544.07 146.692  19
   0   1   9 3652.60 148.335  20
   0   1  -9 3371.70 218.684   2
   0   1  10 36.7420 57.2360   7
   0   1  10 78.2228 34.4221  19
   0  -1  10 67.2629 28.9712  19
   0   1  10 39.8628 36.3694  20
   0   1 -10 67.1197 58.6221   2
   0   1  10 63.3998 35.9467   3
   0   1  11 177.283 64.3210   7
   0  -1  11 119.090 32.3144  19
   0   1  11 189.030 39.0282  19
   0   1  11 115.718 37.5592   3
   0   1 -11 148.259 69.4096   2
   0   1  12 6286.36 229.944  19
   0  -1  12 6057.44 224.900  19
   0   1  12 6415.05 227.027   3
   0   1  13 32.4798 20.3236  19
   0   1  13 39.5483 23.4103   3
   0   1 -14 105.814 19.5038   5
   0  -2   0 33868.4 1065.16   9
   0   2   1 332.331 22.4612   7
   0   2   2 39968.7 1254.37   8
   0  -2   3 2882.56 125.722   8
   0   2   3 3069.23 117.210   8
   0  -2   4 7532.33 279.806   8
   0   2   4 7503.18 267.477   8
   0   2   5 21676.5 719.597   8
   0  -2   5 21754.2 734.745   8
   0   2   6 3785.72 171.032   8
   0   2   6 3924.94 184.441   7
   0  -2   6 3721.25 183.428   8
   0   2   7 712.215 82.6261   7
   0   2   7 734.136 71.9691   8
   0  -2   7 813.861 85.3465   8
   0  -2   8 4425.44 227.963   7
   0  -2  -8 4433.22 240.656   9
   0  -2   8 3883.05 218.585   8
   0   2   8 3814.05 218.755   7
   0  -2   8 4485.58 167.366  19
   0  -2   8 4383.92 171.068  20
   0   2   8 4410.48 170.064  20
   0  -2   9 91.9989 57.7955   7
   0  -2  -9 190.313 63.6995   9
   0   2   9 247.865 66.0180   7
   0  -2   9 211.530 60.0073   8
   0  -2   9 201.787 34.4012  19
   0   2   9 169.160 36.7018  20
   0  -2  -9 236.002 73.6792   2
   0  -2   9 177.173 35.0809   3
   0   2   9 157.123 35.2098   3
   0   2  -9 230.561 71.2034   2
   0   2  10 508.894 85.9082   7
   0  -2  10 572.080 92.5577   7
   0  -2 -10 319.698 75.8137   9
   0  -2  10 611.189 50.3702  19
   0   2  10 520.108 52.9488  20
   0   2  10 482.984 51.4320  19
   0   2  10 594.656 51.1887   3
   0   2 -10 510.702 96.7788   2
   0  -2 -10 586.202 95.2788   2
   0  -2  10 525.907 49.9136   3
   0   2  11 63.8822 56.8373   7
   0  -2  11 18.6355 52.8462   7
   0   2  11 33.4518 35.9743  20
   0  -2  11-14.0087 27.6327  19
   0   2  11 66.9806 34.1250  19
   0   2  11 36.9398 34.6677   3
   0  -2  11 10.8585 32.1086   3
   0  -2 -11-10.9245 56.2263   2
   0   2 -11 22.3351 54.3112   2
   0  -2  12 746.212 51.1045  19
   0   2  12 819.679 58.6669  19
   0   2  12 952.610 57.9722   3
   0  -2  12 930.589 57.5377   3
   0   2  13 6.44531 20.6822  19
   0   2  13 30.4620 22.8621   3
   0  -2  13 27.2604 22.2503   3
   0   2 -14 140.290 18.6496   5
   0  -2 -14 120.544 19.0975   5
   0  -3   0 13.2439 20.7445   9
   0   3   1 96848.5 3014.58   7
   0   3   2 49945.7 1571.14   7
   0   3   3 45017.5 1429.15   7
   0   3   4 25317.1 842.379   7
   0   3   4 26046.3 831.270   8
   0  -3   5 389.104 55.2773   8
   0   3   5 433.597 56.9351   7
   0   3   6 718.686 75.3667   7
   0  -3   6 715.728 77.2344   8
   0  -3   7 3843.87 203.848   8
   0   3   7 3931.07 199.321   7
   0  -3  -8 719.877 96.3483   9
   0  -3   8 711.626 90.5012   8
   0   3   8 877.890 94.5851   7
   0  -3   8 876.117 95.5962   7
   0   3   8 878.423 58.4259  20
   0  -3   8 788.603 52.3192  19
   0  -3  -8 742.737 46.6120  13
   0  -3   9 9443.76 404.594   7
   0  -3  -9 8548.88 415.249   9
   0  -3   9 8840.90 400.091   8
   0   3   9 8800.17 394.453   7
   0   3   9 9241.51 327.261  20
   0  -3   9 9112.68 321.296  19
   0  -3  -9 8298.14 407.201   2
   0  -3   9 9529.65 318.353   3
   0   3   9 9432.81 317.825   3
   0   3  -9 9488.95 420.797   2
   0   3  10 479.172 85.8986   7
   0  -3 -10 683.130 100.267   9
   0  -3  10 582.179 91.4389   7
   0   3  10 650.825 58.9127  20
   0   3  10 681.994 58.7892  19
   0  -3  10 658.027 51.9972  19
   0   3 -10 597.386 101.534   2
   0   3  10 582.371 50.8144   3
   0  -3  10 659.979 53.3140   3
   0  -3 -10 543.008 94.0675   2
   0  -3  11 7674.56 370.401   7
   0   3  11 7658.87 366.607   7
   0  -3  11 7772.86 284.041  19
   0   3  11 8594.01 296.070  20
   0   3  11 8014.87 295.746  19
   0   3  11 8038.83 284.933   3
   0  -3  11 8424.92 286.368   3
   0   3  12 832.900 60.2055  19
   0   3  12 1016.58 58.4572   3
   0  -3  12 920.888 57.3444   3
   0   3  13 24.6746 21.4785  19
   0   3 -14 1.71018 12.5870   5
   0  -3 -14 12.3960 13.3149   5
   0  -4   0 93274.5 2923.90   9
   0   4  -1 81.8586 13.4574   2
   0  -4  -1 62.5376 12.9113   2
   0   4   2 6039.94 210.452   7
   0  -4   3 152.690 37.2924   8
   0   4   3 92.3360 29.5355   7
   0   4   4 2164.09 109.329   7
   0   4   5 3495.83 162.346   7
   0   4   6 91.9622 43.7484   7
   0  -4   7 7210.04 315.326   8
   0   4   7 7017.47 302.513   7
   0  -4  -7 7099.14 249.024  16
   0  -4   8 172.319 60.5994   7
   0  -4  -8 141.731 62.3927   9
   0   4   8 49.4506 52.0169   7
   0  -4   8 178.323 57.5580   8
   0  -4  -8 142.339 57.1347   2
   0   4  -8 42.3088 49.5301   2
   0   4   8 110.637 31.7073  20
   0  -4   8 129.326 26.0883  19
   0  -4  -8 145.310 27.3910  13
   0  -4   9 49.4491 50.7137   7
   0  -4   9 26.3706 54.7593   8
   0   4   9 72.7780 57.2731   7
   0  -4  -9 44.6877 62.4339   9
   0   4   9 36.2939 29.6404   3
   0   4  -9-9.76363 55.3878   2
   0  -4  -9-9.64377 48.7562   2
   0  -4   9 32.6162 28.8196   3
   0  -4   9 53.5585 24.9734  19
   0   4   9 32.1768 32.8091  20
   0  -4  -9 82.3746 25.6512  13
   0   4  10 5738.17 291.826   7
   0  -4 -10 5668.26 321.455   9
   0  -4  10 5451.62 288.878   7
   0  -4  10 5614.29 212.584  19
   0   4  10 5888.37 222.623  20
   0  -4 -10 5367.50 301.414   2
   0   4 -10 5045.58 297.250   2
   0   4  10 5830.31 212.055   3
   0  -4  10 6108.74 213.542   3
   0   4  11 2.91784 35.3329  19
   0   4  11 36.8709 34.6525  20
   0  -4  11 17.9278 30.4502   3
   0   4  11-7.98987 29.4649   3
   0   4  12 141.922 34.5322  19
   0  -4  12 127.251 29.8041   3
   0   4  12 176.848 31.2506   3
   0   4  13 154.928 26.5335  19
   0  -4 -13 158.661 23.5011   5
   0   4 -13 163.978 24.1325   5
   0   4  13 201.838 24.7254   4
   0  -4  13 162.600 23.4764   4
   0  -4 -14 398.560 23.5896   5
   0   4 -14 383.414 22.9270   5
   0  -5   0 25.8569 29.4463   9
   0   5   1 60999.5 1896.94   1
   0  -5  -1 60581.2 1896.66   2
   0  -5  -1 66432.1 1946.29   9
   0   5   2 12005.9 395.484   7
   0  -5   3 228.103 40.9210   8
   0   5   3 250.115 35.0776   7
   0  -5   4 6682.26 266.604   8
   0   5   4 6835.37 255.717   7
   0   5   5 5448.07 227.135   7
   0  -5   5 5553.25 239.496   8
   0   5   6 1769.20 113.940   7
   0  -5  -7 4640.45 262.504   9
   0   5   7 4823.77 228.744   7
   0  -5   7 4753.27 227.399   7
   0   5   7 4611.17 180.493  20
   0  -5  -7 4872.57 177.516  16
   0  -5  -8 131.698 68.5153   9
   0  -5   8 206.497 57.3095   7
   0   5   8 210.831 57.7930   7
   0   5   8 168.222 29.6608   3
   0  -5   8 131.193 27.9664   3
   0  -5  -8 133.114 56.2651   2
   0   5  -8 108.235 52.0710   2
   0  -5   8 168.349 29.2536  19
   0   5   8 138.518 33.7637  20
   0  -5  -8 160.877 27.9027  13
   0  -5   9-18.0697 48.9286   8
   0  -5  -9 36.0831 58.4932   9
   0   5   9 15.7355 50.1817   7
   0  -5   9 40.3318 51.4482   7
   0  -5  -9-9.44338 54.3397   2
   0   5  -9 66.2018 49.5372   2
   0   5   9 33.5975 28.7091   3
   0  -5   9 41.2438 27.8377   3
   0  -5   9 10.8139 23.6184  19
   0   5   9-21.6620 34.0376  20
   0  -5  -9 15.4923 25.6239  13
   0   5  10 3692.80 216.966   7
   0  -5 -10 3465.53 245.673   9
   0  -5  10 3444.85 214.288   7
   0  -5  10 3981.15 147.750   3
   0   5 -10 3210.60 220.207   2
   0   5  10 3816.23 146.165   3
   0  -5 -10 3077.69 216.598   2
   0   5  10 3710.92 156.997  20
   0  -5 -10 3639.96 143.735  13
   0  -5  11 5.53693 26.9881   3
   0   5  11 14.8576 26.9157   3
   0   5  11 29.2792 35.6832  19
   0   5  11 2.52394 29.5615  20
   0   5  12 92.1083 25.8750   3
   0  -5  12 110.860 25.8742   3
   0   5  12 106.647 31.6809  19
   0  -5  13 976.187 46.8883   4
   0   5  13 979.358 47.6889   4
   0   5 -13 1034.67 48.0865   5
   0  -5 -13 924.402 47.3633   5
   0   5  13 916.622 53.7404  19
   0  -5  14 27.3524 9.86954  15
   0  -6   0 108742. 3422.83   9
   0  -6  -1 4679.05 200.343   9
   0   6  -2 2244.72 85.0666   2
   0  -6  -2 2122.22 85.0295   2
   0  -6   2 2263.55 104.790   8
   0  -6  -2 2092.00 126.520   9
   0   6  -3 5066.49 195.992   2
   0  -6  -3 5286.22 198.032   2
   0  -6  -3 5406.42 243.594   9
   0   6   3 5595.34 200.488   7
   0  -6   3 5511.45 215.702   8
   0   6   4 22543.1 734.618   7
   0  -6  -4 21497.4 785.161   9
   0  -6   4 22033.9 751.908   8
   0  -6  -5 42554.7 1479.10   9
   0  -6   5 43623.2 1441.40   8
   0   6   5 44785.3 1423.72   7
   0   6  -6 1252.70 95.7273   2
   0  -6   6 1200.48 55.3741   3
   0  -6  -6 1109.14 94.0004   2
   0  -6   6 1238.42 103.299   8
   0   6   6 1213.73 93.9782   7
   0  -6   7 8304.81 359.102   8
   0   6   7 8538.65 341.616   7
   0  -6  -7 8160.75 393.157   9
   0  -6   7 8254.73 340.504   7
   0   6  -7 8030.96 348.571   2
   0   6   7 8040.75 277.736   3
   0  -6   7 8229.17 278.310   3
   0  -6  -7 8128.10 350.598   2
   0   6   7 8457.04 291.924  20
   0  -6  -7 8426.16 288.336  16
   0  -6  -8 439.957 96.7788   9
   0  -6   8 384.622 70.0175   7
   0   6   8 393.342 69.4437   7
   0  -6  -8 375.926 72.4908   2
   0   6   8 344.476 35.3612   3
   0   6  -8 315.009 68.5889   2
   0  -6   8 423.175 36.6901   3
   0   6   8 393.170 44.5105  20
   0  -6  -8 363.460 38.2996  13
   0  -6   9 1166.55 110.840   7
   0  -6  -9 910.575 128.961   9
   0   6   9 1036.72 106.996   7
   0   6  -9 843.666 102.941   2
   0  -6  -9 1098.16 112.265   2
   0   6   9 1082.57 60.2944   3
   0  -6   9 1130.57 60.9469   3
   0   6   9 961.185 69.5058  20
   0  -6  -9 1076.27 62.8788  13
   0  -6 -10 3347.78 245.568   9
   0  -6  10 3499.83 207.962   7
   0   6  10 3316.73 205.401   7
   0   6  10 3894.79 142.890   3
   0  -6  10 3781.15 142.576   3
   0  -6 -10 2958.19 207.290   2
   0   6 -10 3383.44 213.988   2
   0   6  10 3728.61 153.915  20
   0  -6 -10 3525.01 142.377  13
   0  -6  11 3963.12 148.037   3
   0   6  11 3938.55 148.067   3
   0   6  11 4004.21 166.935  19
   0   6  11 3671.89 156.255  20
   0  -6 -12 982.936 52.6537   5
   0   6 -12 1003.49 52.1008   5
   0   6  12 1062.91 65.3591  19
   0   6 -13 207.051 18.6116   5
   0   6  13 208.466 27.0384  19
   0  -6  13 195.927 22.3385  15
   0  -7   0 23.1202 34.1561   9
   0  -7   0 35.8275 18.1364  10
   0  -7   0 26.2048 15.6166   8
   0  -7  -1 8233.64 271.771  10
   0  -7   1 8320.91 286.165   8
   0  -7  -1 8496.96 323.890   9
   0  -7   1 8071.79 270.978  10
   0  -7  -2 7188.77 258.039   9
   0  -7   2 7350.77 218.404   8
   0   7  -3 6474.86 234.744   2
   0  -7  -3 6575.86 235.696   2
   0  -7   3 7373.17 266.432   8
   0  -7  -3 6993.66 298.548   9
   0   7  -4 38.4591 26.7028   2
   0  -7  -4 27.3534 26.2933   2
   0  -7  -4 36.6982 49.4677   9
   0  -7   4 31.7496 35.5804   8
   0  -7  -5 2507.68 131.054   2
   0   7  -5 2355.83 127.318   2
   0  -7  -5 2408.44 172.209   9
   0   7   5 2538.03 129.419   7
   0  -7   5 2579.71 145.977   8
   0  -7   6 392.139 28.8502   3
   0  -7  -6 441.432 58.4976   2
   0   7  -6 276.232 50.1062   2
   0  -7   6 389.374 55.6135   7
   0   7   6 405.591 57.0272   7
   0  -7   6 443.501 65.7242   8
   0  -7  -6 335.919 35.1813  16
   0  -7   7 917.840 100.769   8
   0  -7   7 848.828 84.3436   7
   0   7   7 845.460 84.9494   7
   0  -7   7 910.926 48.7321   3
   0   7  -7 945.970 91.8813   2
   0   7   7 925.735 48.4535   3
   0  -7  -7 715.704 83.4960   2
   0   7   7 945.832 61.0477  20
   0  -7  -7 957.326 59.3082  16
   0  -7  -8 512.188 103.147   9
   0  -7   8 643.560 86.9542   8
   0   7   8 492.462 71.5005   7
   0  -7   8 505.919 73.5728   7
   0  -7   8 578.607 39.6718   3
   0   7  -8 409.773 71.0013   2
   0   7   8 484.875 38.3904   3
   0  -7  -8 606.536 79.0802   2
   0   7   8 456.277 49.2627  20
   0  -7  -8 475.400 48.9523  16
   0  -7  -8 494.433 44.5086  13
   0  -7   9 504.332 74.0203   7
   0  -7   9 387.636 85.0502   8
   0  -7  -9 324.457 90.4212   9
   0  -7   9 472.313 39.2764   3
   0  -7  -9 530.840 78.3158   2
   0   7   9 515.166 40.7718   3
   0   7   9 442.615 50.9387  20
   0  -7  -9 521.388 45.6558  13
   0  -7 -10 3936.92 266.451   9
   0  -7  10 3804.87 144.393   3
   0   7  10 3926.31 145.261   3
   0   7  10 3701.63 156.592  20
   0  -7 -10 3765.80 149.167  13
   0   7  11 180.218 35.4632  20
   0   7  12 1886.74 91.6257  19
   0   7  13 52.7119 19.2351  19
   0  -7  13 5.64723 12.6330  15
   0  -8   0 25551.5 794.128  10
   0  -8   0 25315.6 846.990   9
   0  -8   0 24369.8 793.018   8
   0  -8  -1 3205.35 168.975   9
   0  -8   1 3172.11 118.532  10
   0  -8   1 3167.80 130.687   8
   0  -8  -1 3234.08 118.812  10
   0  -8  -2-24.4896 50.1753   9
   0  -8  -2 4.06838 18.7943  10
   0  -8   2 33.5179 26.6736   8
   0  -8   3 3667.56 165.013   8
   0  -8  -3 3297.41 195.878   9
   0  -8  -4 13925.8 521.065   9
   0  -8   4 13698.6 468.371   8
   0  -8  -5 2624.18 135.148   2
   0  -8   5 2955.12 162.494   8
   0  -8   5 2828.72 137.875   7
   0  -8   6 156.708 55.5391   8
   0  -8   6 65.4601 32.6405   7
   0  -8  -6 222.732 79.6618   9
   0  -8  -6 119.939 37.1607   2
   0   8   6 84.2253 31.4807  20
   0  -8  -6 119.450 30.7657  16
   0  -8   7 1636.78 127.632   8
   0  -8   7 1388.22 103.370   7
   0  -8  -7 1333.98 106.083   2
   0   8   7 1381.37 78.8656  20
   0  -8  -7 1432.68 77.2114  16
   0  -8   8 7791.00 342.331   7
   0  -8  -8 8251.30 430.164   9
   0  -8   8 8257.83 378.187   8
   0  -8   8 8572.97 281.232   3
   0   8   8 8282.21 298.919  20
   0  -8  -8 8130.37 292.153  13
   0  -8  -8 8408.56 296.891  16
   0  -8  -9 268.313 85.0644   9
   0  -8   9 298.754 29.4465   3
   0   8   9 170.788 40.8747  20
   0  -8  -9 253.131 37.5477  13
   0   8  10 978.541 63.8822  20
   0  -8 -10 1015.32 60.5145  13
   0   8  11 850.418 55.2333  20
   0   8  12 229.208 34.6475  19
   0  -8  12 203.802 23.7548  15
   0   8  13 13.3363 15.4017  19
   0  -8  13 3.42074 9.38853  15
   0  -9   0-11.3331 19.0451  10
   0  -9   1 13826.2 455.201   8
   0  -9   1 13939.1 444.573  10
   0  -9  -1 13170.4 443.554  10
   0  -9  -1 13178.2 510.114   9
   0  -9  -2 17034.2 641.369   9
   0  -9   2 17506.1 586.025   8
   0  -9  -2 17257.0 562.147  10
   0  -9  -3 454.064 39.4100  10
   0  -9   3 455.865 52.6867   8
   0  -9  -3 542.263 85.6328   9
   0  -9  -4 2399.40 179.285   9
   0  -9   4 2688.14 145.348   8
   0  -9   5 5620.60 256.120   8
   0  -9  -5 6063.90 315.852   9
   0   9   5 5530.92 208.473  20
   0  -9   5 5724.85 201.183  15
   0  -9  -5 5477.95 201.556  16
   0  -9   6 4316.29 224.955   8
   0  -9  -6 4555.14 278.614   9
   0   9   6 4223.95 169.943  20
   0  -9  -6 4344.29 166.110  16
   0  -9  -7 1594.56 169.943   9
   0   9   7 1804.35 94.7076  20
   0  -9  -7 1767.68 89.8444  16
   0  -9   8 2260.03 163.406   8
   0   9   8 2155.57 107.454  20
   0  -9  -8 2259.17 102.704  13
   0  -9  -8 2090.81 103.432  16
   0  -9  -9 4293.01 292.957   9
   0   9   9 4075.20 172.466  20
   0  -9  -9 4720.25 172.942  13
   0   9  10 345.616 40.9576  20
   0  -9  10 348.555 35.9443  15
   0  -9 -10 388.360 38.7710  13
   0   9  11 353.224 34.4024  20
   0  -9  11 387.316 33.2529  15
   0  -9 -12-13.9573 19.8388  10
   0   9  12 29.8111 22.8186  19
   0  -9  12-5.21675 12.3452  15
   0   9  13-4.22355 11.7637  19
   0 -10   0 5982.98 211.226  10
   0 -10  -1 9314.29 311.061  10
   0 -10  -1 9006.81 380.894   9
   0 -10   1 9053.49 311.091  10
   0 -10   2 6682.29 254.478   8
   0 -10  -2 6747.25 236.260  10
   0 -10  -2 6588.84 314.106   9
   0 -10  -3 225.836 32.7701  10
   0 -10   3 198.057 38.6826   8
   0 -10  -3 209.470 63.0459   9
   0 -10  -3 232.765 30.2135  14
   0 -10  -3 258.303 28.8724  15
   0 -10  -4 711.818 51.3362  10
   0 -10  -4 530.117 96.0575   9
   0 -10   4 727.201 73.5820   8
   0  10   4 646.674 50.5705  20
   0 -10  -4 675.409 45.8220  16
   0 -10   4 677.486 43.4715  15
   0 -10   5 3991.18 204.718   8
   0 -10  -5 4021.28 260.942   9
   0  10   5 3982.37 161.321  20
   0 -10  -5 4049.49 154.158  16
   0 -10   5 3985.10 152.974  15
   0 -10  -6-13.1856 67.8735   9
   0 -10   6-14.1865 42.5492   8
   0  10   6 38.1545 32.6618  20
   0 -10   6 44.7331 23.5221  15
   0 -10  -6 91.9140 30.4430  16
   0 -10  -7 1563.86 173.682   9
   0 -10   7 1461.00 126.325   8
   0  10   7 1502.61 84.1434  20
   0 -10  -7 1493.59 81.0855  16
   0 -10   7 1468.31 75.1966  15
   0 -10   8 206.310 62.2930   8
   0  10   8 264.166 43.6681  20
   0 -10   8 300.564 34.5163  15
   0 -10  -8 332.165 44.3197  16
   0  10   9 543.467 50.0757  20
   0 -10   9 651.482 46.7997  15
   0 -10  -9 677.244 51.8255  13
   0  10  10 164.961 30.1784  20
   0 -10  10 150.946 25.6097  15
   0 -10 -10 189.812 30.8000  13
   0 -10 -11 532.098 43.8307  10
   0 -10  11 549.452 35.4338  15
   0  10  12 370.590 33.2840  19
   0 -11   0 5.69816 22.7015  10
   0 -11   0 7.73311 16.8193  15
   0 -11  -1 11489.3 384.073  10
   0 -11  -1 11403.5 382.590  14
   0 -11   1 11577.4 377.427  15
   0 -11  -1 11076.8 377.828  15
   0 -11  -2 44.1243 54.2899   9
   0 -11  -2 29.7039 25.5641  10
   0 -11   2 10.4232 15.8190  22
   0 -11   2 65.7791 19.0004  15
   0 -11  -2 7.76403 22.1916  14
   0 -11  -2 22.1613 18.5547  15
   0 -11  -3 1556.84 145.043   9
   0 -11  -3 1484.07 78.8301  10
   0 -11   3 1516.41 71.7885  15
   0 -11  -3 1436.71 74.2672  15
   0 -11  -3 1661.67 78.9472  14
   0 -11  -3 1541.13 71.9819  16
   0 -11  -4 2776.12 118.787  10
   0 -11  -4 2664.88 203.724   9
   0 -11   4 2536.56 144.717   8
   0  11   4 2618.29 118.377  20
   0 -11   4 2740.33 110.811  15
   0 -11  -4 2657.12 110.652  16
   0 -11   5 594.570 72.0631   8
   0 -11  -5 573.499 107.589   9
   0 -11  -5 656.012 53.5282  10
   0  11   5 570.246 53.0582  20
   0 -11   5 597.105 43.9787  15
   0 -11  -5 643.783 49.0437  16
   0 -11   6 1132.01 106.771   8
   0 -11  -6 1310.48 157.051   9
   0 -11  -6 1396.67 79.5911  10
   0  11   6 1132.17 74.1860  20
   0 -11  -6 1292.75 71.5777  16
   0 -11   6 1239.64 67.1648  15
   0 -11   7 7547.76 351.554   8
   0  11   7 8059.45 289.746  20
   0 -11  -7 8064.23 284.949  16
   0 -11   7 7993.03 282.459  15
   0 -11  -8 29.5832 71.9332   9
   0  11   8 16.9725 28.4987  20
   0 -11   8 14.3022 22.7499  15
   0  11   9 487.841 42.3953  20
   0 -11  -9 429.753 42.9641  13
   0 -11   9 359.091 35.0939  15
   0 -11 -10 536.256 41.1853  13
   0 -11  10 464.840 34.6692  15
   0 -11 -11-17.6146 19.8306  10
   0  11  12 171.442 21.6217  19
   0 -12   0 61.7408 25.6647  10
   0 -12   0 65.4195 20.5358  22
   0 -12   0 32.9206 21.3122  15
   0 -12  -1 1775.44 87.2648  10
   0 -12   1 1715.44 76.6859  22
   0 -12  -1 1632.57 76.3039  22
   0 -12  -1 1703.93 79.8097  15
   0 -12   1 1763.28 79.3828  15
   0 -12  -1 1823.03 84.6132  14
   0 -12  -2 415.499 43.0993  10
   0 -12   2 428.984 34.3761  22
   0 -12   2 444.257 35.7852  15
   0 -12  -2 492.050 41.9060  14
   0 -12  -2 363.893 37.2256  15
   0 -12  -3 863.380 57.5414  10
   0 -12  -3 845.113 113.108   9
   0 -12   3 781.469 47.6103  22
   0 -12  -3 789.488 52.2146  15
   0 -12  -3 713.128 53.2721  14
   0 -12   3 778.536 48.2747  15
   0 -12  -3 736.652 49.4983  16
   0 -12  -4 2045.52 97.5128  10
   0 -12  -4 2006.61 180.929   9
   0  12   4 1920.32 97.6658  20
   0 -12  -4 1824.25 88.5572  16
   0 -12   4 2004.47 88.3818  15
   0 -12  -5 18100.9 595.517  10
   0 -12  -5 18083.1 745.843   9
   0  12   5 17231.1 591.175  20
   0 -12   5 18456.3 584.327  15
   0 -12  -5 17326.8 583.467  16
   0 -12  -6 4394.46 294.196   9
   0 -12  -6 4373.31 172.668  10
   0  12   6 4213.36 170.514  20
   0 -12  -6 4150.53 163.130  16
   0 -12   6 4021.71 159.673  15
   0 -12  -7 12505.3 576.891   9
   0 -12  -7 12374.8 416.065  10
   0  12   7 11655.3 409.939  20
   0 -12  -7 11829.0 405.407  16
   0 -12   7 12040.1 403.147  15
   0  12   8 49.8268 27.5358  20
   0 -12   8 56.6067 21.5406  15
   0 -12  -8 82.0836 31.2493  13
   0 -12  -9 24.4517 26.8372  13
   0 -12   9 29.0605 18.9531  15
   0 -12 -10 15.3216 21.9329  13
   0  12  11 58.6085 23.0673  19
   0 -13   0 18.7574 29.2043  10
   0 -13   0-6.83548 18.5087  22
   0 -13   0 31.9838 26.1971  14
   0 -13   0 1.89105 19.6385  15
   0 -13  -1 186.556 36.4154  10
   0 -13   1 223.983 28.3060  22
   0 -13  -1 215.376 29.5929  15
   0 -13   1 203.928 28.1868  15
   0 -13  -2 14137.3 463.086  10
   0 -13   2 13113.1 450.495  22
   0 -13   2 13681.9 453.836  15
   0 -13  -2 13868.1 457.592  15
   0 -13  -2 13712.6 452.721  16
   0 -13  -2 13869.7 462.282  14
   0 -13  -3 3700.79 143.542  10
   0 -13   3 3332.63 129.449  22
   0  13   3 3080.50 139.095  20
   0 -13   3 3218.96 130.629  15
   0 -13  -3 3297.23 130.931  16
   0 -13  -3 3066.10 133.751  15
   0 -13  -3 3543.94 140.139  14
   0 -13  -4 468.114 49.0232  10
   0 -13  -4 421.455 95.1159   9
   0  13   4 384.044 45.3830  20
   0 -13   4 401.254 35.1497  22
   0 -13  -4 457.274 41.3812  16
   0 -13   4 470.592 38.4607  15
   0 -13  -5 927.660 133.544   9
   0 -13  -5 1041.03 68.2692  10
   0  13   5 846.426 64.7135  20
   0 -13  -5 951.468 58.8428  16
   0 -13   5 1044.04 57.3379  15
   0 -13  -6 913.296 64.7623  10
   0 -13  -6 800.350 126.316   9
   0  13   6 747.844 59.0950  20
   0 -13  -6 856.938 56.2014  16
   0 -13   6 826.061 51.2333  15
   0 -13  -7 98.8515 31.7435  10
   0  13   7 68.2415 29.6723  20
   0 -13  -7 50.0490 26.7012  16
   0 -13   7 74.7610 21.5287  15
   0 -13  -8 22.4130 28.4431  13
   0 -13   8-3.06620 17.5799  15
   0 -13  -9 241.274 31.8852  13
   0 -13 -10 25.6159 17.3158  13
   0  13  11 100.640 19.3709  19
   0 -14   0 5218.27 197.845  14
   0 -14   0 5093.35 190.406  15
   0 -14  -1 644.452 54.0853  10
   0 -14   1 556.928 41.9191  22
   0 -14  -1 643.929 51.8029  14
   0 -14  -1 604.343 43.3345  16
   0 -14   1 586.169 44.2232  15
   0 -14  -1 543.965 44.7974  15
   0 -14  -2 594.839 52.5565  10
   0 -14   2 516.792 39.9388  22
   0 -14  -2 641.928 51.7823  14
   0 -14  -2 542.683 43.2175  16
   0 -14   2 561.255 42.1304  15
   0 -14  -2 554.677 45.9761  15
   0 -14  -3 874.374 64.2597  10
   0 -14   3 831.137 50.6521  22
   0  14   3 875.262 65.2273  20
   0 -14  -3 922.824 55.5608  16
   0 -14   3 887.366 53.2292  15
   0 -14  -4 1894.46 94.4690  10
   0 -14   4 1697.35 79.6315  22
   0  14   4 1755.80 92.4641  20
   0 -14  -4 1825.55 85.3257  16
   0 -14   4 1836.59 83.9682  15
   0 -14  -5 902.791 62.5711  10
   0  14   5 695.259 56.2453  20
   0 -14   5 691.097 44.8804  22
   0 -14  -5 844.130 53.0098  16
   0 -14   5 842.619 49.3008  15
   0 -14  -6 180.930 37.2111  10
   0  14   6 198.460 34.4450  20
   0 -14  -6 214.070 31.6679  16
   0 -14   6 187.085 25.6985  15
   0 -14  -7 528.659 46.3469  10
   0 -14   7 422.431 32.8337  15
   0 -14  -8 46.3444 26.9516  13
   0 -14  -9 115.781 24.7927  13
   0 -14 -10 9.42019 13.7674  13
   0 -15   0 24.4738 31.2177  14
   0 -15   0-15.8009 21.2183  15
   0 -15  -1 1402.27 77.3947  14
   0 -15  -1 1364.82 71.9074  15
   0 -15   1 1314.33 69.6905  15
   0 -15   1 1370.99 77.5633  14
   0 -15  -2 154.667 35.5720  10
   0  15   2 40.5669 33.6376  20
   0 -15  -2 70.3888 24.6908  16
   0 -15  -2 107.896 32.9133  14
   0 -15   2 69.9669 23.7623  15
   0 -15  -3 7069.25 254.008  10
   0  15   3 6700.64 251.385  20
   0 -15  -3 6714.23 239.255  16
   0 -15   3 6975.86 242.037  15
   0 -15  -4 3039.45 127.971  10
   0  15   4 2730.70 123.716  20
   0 -15  -4 2784.87 114.247  16
   0 -15   4 2798.11 114.030  15
   0  15   5 147.791 32.7236  20
   0 -15   5 177.295 25.1425  15
   0 -15  -6 40.0142 27.5469  10
   0 -15  -7 436.816 40.4443  10
   0 -15  -8 1073.89 57.0105  13
   0 -15  -9 155.870 21.1678  13
   0 -16   0 83.8589 29.6798  14
   0 -16   0 43.8717 21.5561  15
   0 -16  -1 11.1061 19.8068  15
   0 -16   1 1.77126 19.4179  15
   0 -16  -1 29.8426 28.9413  14
   0 -16   1 21.0832 28.5506  14
   0  16   2 41.9602 31.8277  20
   0 -16   2 16.9011 19.5276  15
   0 -16   2 4.65059 27.8887  14
   0 -16  -3 3758.53 151.455  10
   0  16   3 3471.17 147.342  20
   0 -16   3 3611.52 138.563  15
   0 -16   3 3936.12 151.665  14
   0 -16  -4 392.268 40.6880  10
   0  16   4 353.412 40.2118  20
   0 -16  -5 1052.84 63.8930  10
   0 -16  -6 22.9186 24.0870  10
   0 -16  -7 42.0271 20.3508  10
   0 -16  -7 32.8576 23.4973  13
   0 -16  -8 91.5032 20.4851  13
   0 -16   9 1.98607 9.78637  14
   0 -17   0 14.4415 25.3054  14
   0  17   1 108.636 30.8338  20
   0 -17   1 72.4420 29.6760  14
   0 -17  -1 115.427 29.0416  14
   0  17   2 43.2993 26.7687  20
   0 -17   2 48.8539 26.4524  14
   0  17   3-16.0102 27.5746  20
   0 -17   3 9.76694 24.7714  14
   0 -17   4 2263.58 98.5977  14
   0 -17   5 203.859 29.1064  14
   0 -17  -6 245.134 30.1161  13
   0 -17   6 237.748 26.6228  14
   0 -17  -7 108.461 21.1924  13
   0 -17   7 142.388 19.8876  14
   0 -17  -8 432.554 25.3879  13
   0 -17   8 431.552 24.1457  14
   0  18   0 3539.17 139.140  20
   0 -18   0 3698.48 140.049  14
   0  18   1 115.703 24.7982  20
   0 -18   1 77.1152 24.8550  14
   0 -18   2 159.533 26.1005  14
   0 -18   3 122.258 24.0817  14
   0 -18   4 413.348 33.6580  14
   0 -18   5 33.6532 17.1487  14
   0 -18   6 47.6779 14.6951  14
   0 -18  -6 45.3215 17.1760  13
   0  19  -1 19.0039 17.4964  20
   0  19  -2 24.7171 17.3141  20
   0 -19   2 33.0420 17.8906  14
   0  19  -3 268.926 23.7394  20
   0 -19   3 276.808 25.0066  14
   0 -19   4 5.14035 11.9604  14
  -1   0  14 413.216 29.2748   3
   1   0 -14 360.119 29.0221   5
  -1   0  13-6.57531 23.9285   3
   1   0 -13 3.49541 24.4561   5
  -1   0  12 3056.68 127.984   3
  -1   0  11-28.6456 55.7221   7
  -1   0  11 40.3739 34.0079   3
   1   0 -11-11.0789 58.0277   2
  -1   0  10 14817.6 605.049   7
  -1   0  10 14901.7 587.805   8
  -1   0  10 15497.1 512.056  19
   1   0 -10 15349.6 627.291   2
  -1   0   9 16.6076 52.9596   7
  -1   0   9-7.26570 46.3390   8
  -1   0   9-11.1576 23.6763  19
   1   0  -9 19.6700 53.2585   2
   1   0  -8 105.269 40.1408   9
  -1   0   8 119.832 50.3621   8
  -1   0   8 135.842 30.8063  20
   1   0  -8 151.014 68.3816   2
  -1   0   7-15.8687 36.3791   8
   1   0  -7 31.9693 33.9832   9
   1   0  -7 6.88593 46.4007   2
   1   0  -6 728.658 67.9900   9
  -1   0   6 524.426 61.3698   8
   1   0  -6 584.999 72.6729   2
   1   0  -5 3.48586 30.3243   9
  -1   0   5-17.0731 34.9895   8
   1   0  -5 8.66202 37.4402   2
   1   0  -4 20356.2 681.443   9
   1   0  -4 20996.3 692.223   2
   1   0  -3 12.1679 24.4798   9
   1   0  -2 11312.0 374.507   9
   1   0  -1 3.97908 19.5219   1
   1   0   0 33202.8 1045.15   1
   1   0   1 4.91923 19.2129   1
   1   0   3 16.6448 27.6603   8
   1   0   4 4526.18 185.960   8
   1   0   5 15.4941 34.7339   8
   1   0   5 1.97813 18.5792   3
   1   0   6 597.900 38.6424   3
   1   0   7 7.50406 24.3389   3
   1   0   8 581.314 51.0211  19
   1   0   8 534.534 50.3853  20
   1   0   8 666.789 49.2683   3
   1   0   9 27.9239 29.8760  19
   1   0   9 11.3674 33.3985  20
   1   0   9-12.3548 32.1696   3
   1   0  10 3402.01 148.684  19
   1   0  10 3355.74 149.331  20
   1   0  10 3401.95 141.390   3
   1   0  11 25.0958 33.4471  19
   1   0  11 30.6041 33.7619   3
   1   0  12 71.7849 29.0713  19
   1   0  12 115.255 30.5480   3
   1   0  13 12.6937 20.5361  19
   1   0  13 15.8834 19.8162   4
  -1   0 -14 71.5210 15.5794   5
   1   1 -14 50.3723 17.9574   5
  -1   1  13 22.7653 25.2063   3
   1   1 -13-8.64622 23.8453   5
  -1   1  12 462.479 46.3023   3
  -1   1  11 2275.89 170.907   7
  -1   1  11 2248.19 105.785  19
  -1   1  11 2346.97 107.215   3
   1   1 -11 2153.94 180.825   2
  -1  -1  10 419.246 80.3911   8
  -1  -1  10 474.174 91.9499   7
  -1   1  10 595.693 92.4135   7
  -1   1  10 615.103 51.5121  19
   1   1 -10 436.964 88.5491   2
  -1  -1   9 199.083 59.4493   8
   1  -1  -9 127.443 48.7928   9
  -1   1   9 279.861 68.2252   7
  -1   1   9 245.870 56.7192   8
  -1   1   9 211.649 35.3436  20
  -1   1   9 212.644 32.8386  19
   1   1  -9 167.799 66.8125   2
   1  -1  -8 1134.40 104.601   9
  -1  -1   8 1091.02 100.979   8
  -1   1   8 1133.47 94.8296   8
  -1   1   8 1117.07 64.9691  20
   1   1  -8 1162.38 116.740   2
   1  -1  -7 3764.15 196.160   9
  -1   1   7 3799.29 184.558   8
  -1  -1   7 3671.68 190.749   8
   1   1  -7 3688.56 174.787   9
   1   1  -7 4036.72 207.635   2
  -1   1   6 13402.8 477.608   8
   1   1  -6 13255.5 469.804   9
   1  -1  -6 13271.3 491.325   9
  -1  -1   6 13359.1 485.700   8
   1   1  -6 13825.8 499.612   2
  -1   1   5 4875.02 195.389   8
   1  -1  -5 4795.32 207.108   9
   1   1  -5 4830.45 190.675   9
   1   1  -5 4570.32 208.365   2
   1  -1  -4 11050.4 394.016   9
   1   1  -4 11088.8 376.497   9
   1   1  -4 11140.3 395.248   2
   1  -1  -3 6795.29 245.517   9
   1   1  -3 6544.29 227.007   9
   1   1  -3 6510.57 241.081   2
   1  -1  -2 18244.0 607.089   9
   1   1  -2 18805.4 602.527   2
   1   1  -1 2965.71 111.395   2
   1   1  -1 2985.37 112.869   1
   1   1   0 10896.4 353.865   1
   1  -1   1 13123.2 425.142   7
   1   1   1 13161.9 427.118   1
   1  -1   2 8361.77 288.653   7
   1   1   2 8742.50 291.853   7
   1  -1   2 8240.84 289.934   8
   1   1   3 33679.2 1075.11   7
   1  -1   3 33134.2 1074.26   8
   1  -1   4 5811.53 231.502   8
   1   1   4 6056.99 233.023   7
   1   1   5 7514.81 282.503   7
   1  -1   5 6946.14 276.841   8
   1   1   5 6925.89 233.212   3
   1  -1   6 4743.39 214.336   8
   1   1   6 4654.65 215.551   7
   1   1   6 4600.88 163.501   3
   1   1   7 31.3911 46.1127   7
   1   1   7 34.5433 22.8881   3
   1   1   8 8575.88 388.478   7
   1   1   8 9126.43 329.343  19
   1  -1   8 9267.14 329.566  20
   1  -1   8 9580.45 329.877  19
   1   1   8 9709.94 330.447  20
   1   1   8 9389.55 319.011   3
   1   1   9 3017.92 191.726   7
   1  -1   9 2810.69 187.186   7
   1   1   9 3030.27 134.195  19
   1   1   9 2744.60 131.784  20
   1  -1   9 2957.29 132.169  19
   1  -1   9 3066.44 134.601  20
   1   1   9 2892.18 123.259   3
   1  -1  10 3574.40 223.644   7
   1   1  10 3913.78 234.876   7
   1   1  10 4112.70 168.377  20
   1  -1  10 3795.68 163.493  19
   1   1  10 3948.29 166.763  19
   1   1  10 3987.76 158.178   3
   1   1  11 506.236 88.6974   7
   1  -1  11 420.904 84.0594   7
   1  -1  11 595.599 53.3733  19
   1   1  11 644.617 57.2431  19
   1   1  11 623.566 60.1162  20
   1   1  11 603.598 52.2803   3
   1   1  12 21.5610 26.1557  19
   1  -1  12-2.22078 25.3746  19
   1   1  12 5.70871 27.0121   3
   1  -1  13 51.9650 20.8314  19
   1   1  13 54.6522 23.1684  19
   1   1  13 41.3041 21.0176   4
  -1   1 -14 478.917 28.6249   5
   1   2 -14 18.7252 15.9056   5
   1  -2 -14 5.25865 15.6183   5
  -1   2  13 2965.56 114.688   3
   1   2 -13 2866.37 114.980   5
  -1  -2  13 2829.37 113.814   3
   1  -2 -13 2831.21 114.824   5
  -1   2  12 264.980 34.6716  19
  -1  -2  12 288.660 37.5789   3
  -1   2  12 233.949 37.5363   3
  -1  -2  11 589.950 94.9856   7
  -1   2  11 653.986 92.0756   7
  -1   2  11 658.436 53.2669  19
   1  -2 -11 598.022 97.6798   2
  -1   2  11 638.406 53.8816   3
  -1  -2  11 584.286 53.5105   3
   1   2 -11 588.560 95.5874   2
  -1   2  10 1264.21 125.668   7
  -1  -2  10 1386.61 128.905   8
  -1   2  10 1384.74 78.3250  20
  -1   2  10 1389.59 79.3162  19
   1   2 -10 1147.57 133.530   2
   1  -2 -10 1351.45 137.840   2
  -1   2   9 309.246 72.2343   7
  -1  -2   9 234.402 67.3074   8
   1  -2  -9 417.679 73.3753   9
  -1   2   9 291.825 54.5349   8
   1  -2  -9 252.143 69.8907   2
   1   2  -9 304.972 76.4746   2
  -1   2   9 275.370 36.5821  20
   1  -2  -8 4086.02 229.604   9
  -1   2   8 4220.28 203.431   8
  -1  -2   8 4760.19 229.749   8
  -1   2   8 4464.21 226.708   7
   1  -2  -8 4308.25 236.836   2
   1   2  -8 4492.03 238.566   2
  -1   2   8 4175.27 162.001  20
   1  -2  -8 4065.76 157.106  13
  -1   2   7 1671.21 105.639   8
  -1  -2   7 1683.18 118.983   8
   1  -2  -7 1416.65 117.468   9
   1  -2  -7 1472.96 121.879   2
   1   2  -7 1810.79 129.197   2
  -1   2   6 565.168 56.8570   8
  -1  -2   6 540.860 64.5864   8
   1   2  -6 485.722 44.7465   9
   1  -2  -6 434.069 66.2473   9
   1   2  -6 449.890 69.8411   2
   1  -2  -6 492.105 68.4954   2
   1   2  -5 5683.06 208.707   9
  -1   2   5 5766.68 222.634   8
   1  -2  -5 5988.77 249.134   9
   1   2  -5 5626.06 240.178   2
   1  -2  -5 5881.51 242.151   2
   1  -2  -4 4995.22 209.563   9
   1   2  -4 4854.82 172.722   9
  -1   2   4 4777.68 183.953   8
   1  -2  -4 5039.71 202.019   2
   1   2  -4 5063.21 202.207   2
   1  -2  -3 2094.10 109.836   9
   1  -2  -3 2088.18 100.650   2
   1   2  -3 2045.95 100.003   2
   1   2  -2 93659.7 2920.98   2
   1  -2  -2 93028.4 2920.91   2
   1  -2  -1 14264.6 501.574   9
   1  -2  -1 15297.4 490.118   1
   1   2  -1 15236.5 489.991   1
   1  -2  -1 15131.7 488.271   2
   1   2  -1 15375.0 488.222   2
   1  -2   0 5423.09 187.742   1
   1   2   0 5657.20 188.731   1
   1  -2   1 8843.21 292.341   7
   1   2   1 9128.02 296.929   1
   1  -2   1 8802.41 295.131   1
   1   2   2 2564.53 109.068   7
   1  -2   2 2489.73 103.516   7
   1   2   3 123.029 35.8893   7
   1  -2   3 95.9203 31.7055   7
   1  -2   4 49033.1 1594.95   8
   1  -2   4 50259.3 1592.10   7
   1   2   4 49925.7 1595.54   7
   1  -2   5 4348.58 189.516   7
   1  -2   5 4149.70 190.930   8
   1   2   5 4240.14 191.803   7
   1   2   5 4203.98 147.264   3
   1  -2   5 4268.28 147.647   3
   1  -2   6 35633.4 1200.24   8
   1  -2   6 36175.8 1197.96   7
   1   2   6 37066.4 1201.63   7
   1  -2   6 35907.4 1138.83   3
   1   2   6 36150.5 1138.81   3
   1   2   7 430.291 69.3561   7
   1  -2   7 546.246 75.9522   7
   1  -2   7 554.446 73.0370   8
   1  -2   7 483.541 38.4141   3
   1   2   7 571.285 39.9358   3
   1  -2   7 544.035 45.4294  20
   1  -2   8 2058.81 149.206   7
   1   2   8 2111.30 149.109   7
   1   2   8 2301.93 96.0919   3
   1  -2   8 2180.98 94.5433   3
   1  -2   8 2235.86 104.320  20
   1   2   8 1998.76 101.777  20
   1  -2   8 2013.32 100.527  19
   1  -2   8 1999.85 94.2522  12
   1  -2   9 8517.23 386.140   7
   1   2   9 8486.24 386.118   7
   1   2   9 8535.70 317.375  19
   1   2   9 8942.44 318.143  20
   1  -2   9 8862.70 318.429  20
   1  -2   9 8741.87 314.341  19
   1  -2   9 9004.09 306.061   3
   1   2   9 8824.91 305.560   3
   1  -2  10 12157.8 506.462   7
  -1  -2 -10 10587.2 508.725   9
   1   2  10 12056.6 507.079   7
   1   2  10 12703.4 428.052  19
   1  -2  10 12207.2 422.644  19
   1   2  10 12366.9 426.950  20
   1   2  10 11764.7 412.129   3
   1  -2  10 12660.0 414.774   3
   1   2  11 460.542 51.2967  20
   1   2  11 517.067 52.4901  19
   1  -2  11 366.431 44.5347  19
   1  -2  11 465.529 46.1376   3
   1   2  11 431.246 45.9721   3
   1  -2  12-16.7396 23.8220  19
   1   2  12 2.44131 28.2957  19
   1  -2  13 36.6934 18.0160  19
   1   2  13 42.0679 23.0005  19
   1   2  13 43.7454 20.6737   4
   1  -2  13 30.0185 19.8076   4
  -1   2 -14 1433.19 56.5372   5
  -1  -2 -14 1377.88 56.7165   5
   1   3 -14 130.549 18.0626   5
   1  -3 -14 118.243 17.7177   5
  -1  -3  13 716.105 44.4496   3
  -1   3  13 711.263 44.6046   3
   1  -3 -13 587.171 42.2905   5
   1   3 -13 692.185 43.7523   5
  -1   3  12 4883.66 193.420  19
  -1  -3  12 5424.80 194.027   3
  -1   3  12 5382.80 193.742   3
  -1  -3  11 8667.88 407.245   8
  -1  -3  11 8767.99 412.158   7
  -1   3  11 8225.21 402.573   7
  -1   3  11 9405.52 329.323  19
  -1   3  11 9776.12 323.873   3
  -1  -3  11 9952.77 324.388   3
   1   3 -11 8178.18 417.185   2
   1  -3 -11 7819.72 409.805   2
   1  -3 -10 4182.16 255.481   9
  -1  -3  10 4533.76 251.486   8
  -1   3  10 4555.95 250.191   7
  -1  -3  10 4757.82 257.219   7
   1  -3 -10 4409.09 261.552   2
   1   3 -10 4419.96 261.940   2
  -1   3  10 4332.48 175.003  20
   1  -3  -9 140.608 61.1663   9
  -1  -3   9 127.134 59.6117   8
  -1   3   9 160.859 58.1859   7
   1  -3  -9 134.091 61.2492   2
   1   3  -9 174.741 66.2439   2
  -1   3   9 169.131 33.7975  20
   1  -3  -9 123.596 28.9098  13
  -1   3   8 14173.5 541.499   7
   1  -3  -8 15085.3 573.396   9
  -1   3   8 13475.1 510.256   8
  -1  -3   8 14507.6 550.204   8
   1  -3  -8 14441.6 559.027   2
   1   3  -8 14109.4 557.828   2
  -1   3   8 14171.6 470.457  20
   1  -3  -8 13977.6 465.841  13
   1   3  -7 1957.00 138.855   2
   1  -3  -7 2193.33 147.327   2
  -1  -3   7 2166.18 142.770   8
  -1   3   7 2025.20 116.897   8
   1  -3  -7 1975.65 147.669   9
   1   3  -6 105.904 47.6191   2
   1  -3  -6 89.0067 47.8327   2
  -1  -3   6 15.7725 40.3208   8
   1  -3  -6 19.5726 44.0153   9
  -1   3   6 108.662 34.0709   8
   1   3  -5 1511.93 100.281   2
   1  -3  -5 1480.54 100.749   2
  -1   3   5 1301.36 76.5170   8
   1  -3  -5 1435.86 107.972   9
   1  -3  -4 1819.74 106.603   2
   1   3  -4 2077.89 109.363   2
  -1   3   4 2127.26 91.5690   8
   1  -3  -4 2077.60 121.648   9
   1   3  -3 46.6737 30.3902   2
   1  -3  -3 79.4549 30.4298   2
  -1   3   3 73.2628 19.5899   8
   1  -3  -2 5175.91 187.214   2
   1   3  -2 5211.93 186.644   2
   1  -3  -2 5107.65 207.955   9
   1  -3  -1 18397.9 585.811   2
   1   3  -1 18604.0 588.237   1
   1  -3  -1 18102.0 587.959   1
   1   3  -1 18452.2 585.722   2
   1  -3  -1 17470.4 609.413   9
   1  -3   0 75824.3 2394.33   1
   1   3   0 77577.3 2394.68   1
   1  -3   1 28838.9 908.818   1
   1   3   1 28451.7 909.446   1
   1  -3   1 28485.0 903.651   7
   1  -3   1 29150.3 912.578   8
   1  -3   2 6787.56 239.689   8
   1   3   2 6725.29 239.437   7
   1  -3   2 6558.44 231.053   7
   1  -3   3 21886.5 729.242   8
   1   3   3 23302.5 730.422   7
   1  -3   3 21422.2 721.275   7
   1  -3   4 10364.3 362.775   7
   1   3   4 9896.30 365.433   7
   1   3   5 9554.62 314.268   3
   1  -3   5 9637.64 314.468   3
   1  -3   5 9537.76 358.017   7
   1   3   5 9979.41 364.580   7
   1  -3   6 983.537 50.1773   3
   1   3   6 868.593 47.2960   3
   1  -3   6 889.103 87.6152   8
   1  -3   6 934.244 83.8659   7
   1   3   6 900.608 85.9860   7
   1  -3   7 2846.82 167.025   7
   1   3   7 3132.72 176.285   7
   1  -3   7 2968.52 175.209   8
   1   3   7 2957.87 116.748   3
   1  -3   7 3052.98 117.646   3
   1   3   7 2911.38 127.165  20
  -1  -3  -7 3158.96 122.610  16
   1  -3   8 3743.26 210.900   7
   1   3   8 4082.56 218.114   7
   1   3   8 3970.29 149.346   3
   1  -3   8 3900.39 149.169   3
   1   3   8 3988.95 160.396  20
   1  -3   8 4066.85 158.353  19
   1  -3   8 3575.69 151.690  12
   1  -3   9 1404.25 130.121   7
   1   3   9 1482.40 135.171   7
   1   3   9 1553.16 91.2439  20
   1  -3   9 1659.68 88.5401  19
   1  -3   9 1726.48 82.8923   3
   1   3   9 1636.30 81.6757   3
   1   3  10 1022.58 114.992   7
   1  -3  10 1173.81 119.437   7
  -1  -3 -10 1206.22 134.464   9
   1   3  10 1135.25 77.6787  20
   1  -3  10 1128.23 72.6452  19
   1   3  10 1154.60 79.4561  19
  -1   3 -10 1111.77 125.523   2
   1  -3  10 1377.93 72.6476   3
  -1  -3 -10 998.649 124.265   2
   1   3  10 1295.00 71.6417   3
   1   3  11 6388.37 235.670  20
   1   3  11 6366.56 238.250  19
   1  -3  11 5905.03 227.629  19
   1   3  11 6042.91 223.146   3
   1  -3  11 6238.48 224.446   3
   1   3  12 26.9334 30.4467  19
   1  -3  12 69.9386 25.6815  19
   1  -3  13 3.55343 16.4592  19
   1   3  13 16.8306 22.0873  19
   1  -3  13 28.0175 18.8299   4
   1   3  13 8.94814 17.9785   4
  -1  -3 -14-2.14258 11.0707   5
  -1   3 -14 6.77628 10.3372   5
   1  -4 -14 75.6792 14.2441   5
   1   4 -14 59.7061 13.2605   5
  -1   4  13 804.418 47.3343  19
  -1  -4  13 993.223 49.9069   3
   1  -4 -13 893.085 49.5134   5
  -1   4  13 875.259 49.0763   3
   1   4 -13 966.456 49.3755   5
  -1   4  12 2943.09 128.914  19
   1   4 -12 3080.66 125.893   5
  -1   4  12 3201.86 126.385   3
  -1  -4  12 3176.05 126.198   3
   1  -4 -12 3303.26 127.559   5
  -1   4  11 417.521 47.4861  19
  -1  -4  11 472.038 45.5883   3
  -1   4  11 436.699 43.9627   3
   1  -4 -10 337.104 76.3179   9
  -1  -4  10 394.076 78.5526   8
  -1   4  10 308.533 72.3384   7
  -1  -4  10 353.747 74.9459   7
   1   4 -10 316.019 79.2741   2
   1  -4 -10 322.446 73.9585   2
  -1   4  10 258.981 40.8055  20
  -1  -4   9 8.81808 49.2688   8
   1  -4  -9 21.9791 57.5595   9
  -1   4   9 7.92069 48.1102   7
   1   4  -9-19.0076 49.7781   2
   1  -4  -9 75.4090 56.5151   2
  -1   4   9-4.69568 26.7294  20
   1  -4  -9 18.7051 27.4956  13
   1   4  -8 215.202 61.0106   2
   1  -4  -8 304.828 68.2039   2
  -1  -4   8 384.515 71.0246   8
  -1   4   8 308.706 64.0294   7
   1  -4  -8 427.843 82.6790   9
   1  -4  -8 307.800 33.9794  13
   1  -4  -7 75.8549 45.5202   2
   1   4  -7 62.1093 48.4300   2
  -1  -4   7 33.9282 46.2290   8
  -1   4   7 34.3255 42.4092   7
   1  -4  -7 77.8114 52.5403   9
   1   4  -6 851.113 83.0516   2
   1  -4  -6 893.175 85.7499   2
  -1  -4   6 908.779 88.3427   8
  -1   4   6 965.150 65.3984   8
   1  -4  -6 933.831 101.344   9
   1  -4  -5 25453.4 871.958   2
   1   4  -5 26123.8 873.013   2
   1  -4  -5 26232.8 901.752   9
  -1   4   5 26052.7 840.574   8
   1  -4  -4 69193.6 2247.90   2
   1   4  -4 70646.0 2248.59   2
  -1   4   4 71714.0 2221.05   8
   1  -4  -3 7432.94 269.985   2
   1   4  -3 7222.60 268.801   2
  -1   4   3 7656.10 246.540   8
   1  -4  -2 4616.30 170.142   2
   1   4  -2 4645.33 170.106   2
   1  -4  -2 4739.34 200.626   9
   1  -4  -1 1995.13 80.8371   2
   1   4  -1 2177.99 82.2394   2
   1  -4  -1 2085.65 111.502   9
   1  -4   0 60.9822 18.6069   1
   1   4   0 72.3669 18.8022   1
   1   4   1 5629.44 194.554   1
   1  -4   1 5639.67 193.953   1
   1  -4   1 5681.39 199.097   8
   1  -4   2 21656.2 704.715   8
   1  -4   2 21553.6 692.575   7
   1  -4   3 2773.63 130.011   8
   1   4   3 3020.58 130.776   7
   1  -4   3 2797.04 121.388   7
   1  -4   4 29401.3 964.220   7
   1   4   4 30250.7 972.489   7
   1  -4   4 29022.3 974.529   8
   1   4   5 34954.5 1097.97   3
   1  -4   5 34439.2 1097.78   3
   1  -4   5 35442.4 1145.79   7
   1   4   5 36103.6 1152.48   7
   1   4   6 714.242 43.1122   3
   1  -4   6 822.789 45.0660   3
   1   4   6 727.517 80.6933   7
   1  -4   6 755.493 77.3264   7
   1  -4   7 1613.15 118.480   7
   1   4   7 1568.57 119.051   7
   1   4   7 1646.31 72.7567   3
   1  -4   7 1520.32 71.3574   3
   1   4   7 1521.99 81.5401  20
   1  -4   7 1495.34 78.6055  19
  -1  -4  -7 1668.84 78.1851  16
   1  -4   7 1491.47 79.0323  12
   1   4   8 3443.49 203.566   7
   1  -4   8 3563.82 201.841   7
   1  -4   8 3738.17 140.836   3
   1   4   8 3569.11 139.719   3
   1   4   8 3705.49 153.282  20
   1  -4   8 3631.70 148.723  19
   1  -4   8 3518.63 147.699  12
  -1  -4  -9 15879.4 695.097   9
   1  -4   9 16417.9 653.250   7
   1   4   9 16801.9 657.808   7
   1  -4   9 17274.4 579.483  19
   1   4   9 17500.1 585.227  20
   1  -4   9 17943.0 571.139   3
   1   4   9 17457.6 569.742   3
   1  -4  10 9670.34 431.932   7
   1   4  10 9999.65 439.035   7
  -1  -4 -10 9359.06 465.691   9
   1  -4  10 10444.7 349.938   3
   1   4  10 10399.6 349.559   3
  -1  -4 -10 8858.95 442.863   2
  -1   4 -10 9644.45 452.866   2
   1   4  10 10198.0 363.893  20
   1   4  10 10383.7 367.328  19
   1  -4  10 10547.2 357.981  19
   1  -4  11 79.2666 30.5919   3
   1   4  11 81.2039 29.1735   3
   1   4  11 83.8297 36.3416  20
   1   4  11 101.310 38.7419  19
   1  -4  11 60.1327 29.2580  19
   1   4  12 343.330 34.2606   4
   1  -4  12 352.287 34.5565   4
   1  -4  12 348.769 34.7003  19
   1   4  12 397.496 44.2002  19
   1   4  12 336.481 42.3680  20
   1   4  13 195.951 22.7951   4
   1  -4  13 203.593 22.7247   4
   1   4  13 242.889 29.7117  19
  -1  -5  14 31.4901 12.4463  15
  -1   5  13 9.14244 18.0945   3
   1   5 -13 7.99818 16.7441   5
   1  -5 -13-1.19274 17.3630   5
  -1  -5  13 3.33649 16.9664   3
  -1   5  13 7.90591 17.5725  19
   1  -5 -12 5146.09 186.164   5
  -1   5  12 5176.94 185.474   3
  -1  -5  12 5183.01 185.026   3
   1   5 -12 5006.89 185.284   5
  -1   5  12 5152.89 193.266  19
  -1  -5  11 5188.78 194.223   3
  -1   5  11 5392.62 195.033   3
  -1   5  11 5290.22 206.078  19
   1   5 -10 3141.88 217.724   2
  -1   5  10 3993.75 151.376   3
  -1  -5  10 3971.73 151.704   3
   1  -5 -10 3853.49 231.160   2
  -1  -5  10 3870.55 232.370   8
  -1   5  10 3295.89 211.654   7
  -1  -5  10 3719.47 223.536   7
   1  -5 -10 3869.10 254.846   9
   1  -5 -10 3990.86 154.304  13
   1   5  -9-9.16200 45.4580   2
   1  -5  -9 36.6689 52.0072   2
  -1  -5   9 24.9471 49.8759   7
  -1   5   9 38.6417 48.7324   7
   1  -5  -9 71.2326 66.3455   9
  -1  -5   9 118.315 58.0612   8
   1  -5  -9 58.6604 29.6151  13
   1   5  -8 16.1677 44.5468   2
   1  -5  -8 89.2657 53.0051   2
   1  -5  -8 43.5681 57.1032   9
  -1  -5   8 114.861 62.3725   8
  -1   5   8 88.3869 48.6578   7
   1  -5  -8 107.171 30.1888  13
   1   5  -7 18839.4 663.653   2
   1  -5  -7 18034.2 660.782   2
  -1   5   7 18629.1 648.731   7
   1  -5  -7 18091.5 698.544   9
   1  -5  -7 17593.4 586.510  13
   1  -5  -6 4064.98 202.610   2
   1   5  -6 4272.67 204.169   2
  -1   5   6 4090.03 192.964   7
   1  -5  -6 4353.45 235.685   9
   1   5  -5 1166.66 84.7147   2
   1  -5  -5 1000.69 81.0363   2
  -1   5   5 1055.63 76.4931   7
   1  -5  -5 987.960 105.169   9
   1   5  -4 1713.72 94.6870   2
   1  -5  -4 1695.78 96.0827   2
   1   5  -3 39.2289 23.8007   2
   1  -5  -3 54.0043 25.9821   2
   1  -5  -3 71.1907 47.2036   9
   1  -5  -2 8179.02 274.252   2
   1   5  -2 7938.81 273.651   2
   1  -5  -2 8048.61 316.654   9
  -1   5   2 7937.57 265.485   7
   1  -5  -1 4027.49 173.838   9
  -1  -5   1 3509.54 136.565   9
   1  -5   0 8498.23 278.154   1
   1   5   0 8491.93 278.719   1
   1   5   1 1892.91 74.7663   1
   1  -5   1 1829.41 73.6887   1
   1  -5   1 1667.05 78.7994   8
   1   5   2 24854.3 818.490   1
   1  -5   2 26908.1 819.172   1
   1  -5   2 25359.0 812.898   7
   1  -5   2 24979.4 828.953   8
   1  -5   3 1229.56 78.9931   8
   1  -5   3 1124.58 66.0872   7
   1  -5   4 6801.99 274.408   8
   1  -5   4 6885.60 261.434   7
   1   5   4 7262.20 272.376   7
   1   5   5 29320.2 943.514   3
   1  -5   5 30330.8 944.024   3
   1  -5   5 29736.5 1004.62   8
   1  -5   5 29813.9 989.752   7
   1   5   5 31178.9 1000.63   7
   1  -5   6 442.148 32.5114   3
   1   5   6 407.899 32.5213   3
   1   5   6 394.846 61.9077   7
   1  -5   6 360.091 57.5290   7
   1  -5   6 369.455 65.7779   8
   1  -5   7 5353.08 241.576   7
   1   5   7 4915.91 242.807   7
   1   5   7 4910.04 178.999   3
   1  -5   7 4963.91 179.526   3
   1   5   7 4948.86 192.761  20
   1  -5   7 5220.50 189.918  19
   1  -5   7 5084.12 191.154  12
   1   5   8 767.321 92.8817   7
   1  -5   8 888.770 96.8644   7
   1  -5   8 943.896 56.9393   3
   1   5   8 1002.52 57.2436   3
   1  -5   8 1006.06 63.4362  19
   1   5   8 1015.62 69.0288  20
   1  -5   8 1000.04 64.4026  12
  -1  -5  -8 1028.31 65.2829  16
   1   5   9 224.107 64.2320   7
   1  -5   9 345.014 69.6738   7
  -1  -5  -9 339.186 86.0242   9
   1   5   9 244.084 45.9729  20
   1  -5   9 295.632 39.4941  19
   1   5   9 320.458 37.2296   3
   1  -5   9 315.655 38.0782   3
   1  -5  10 734.210 94.4592   7
  -1  -5 -10 847.296 121.083   9
  -1  -5 -10 879.455 107.825   2
  -1   5 -10 828.335 105.922   2
   1  -5  10 831.409 94.8847   1
   1   5  10 932.482 58.7750   3
   1  -5  10 1050.05 61.0294   3
   1   5  10 947.630 70.4566  20
   1   5  10 1002.09 74.2391  19
   1  -5  10 1007.14 63.9257  19
   1   5  11 1075.53 69.9394  20
   1   5  11 980.510 70.3533  19
   1  -5  11 843.600 57.7522  19
   1  -5  12 41.0092 21.0186   4
   1   5  12 41.2155 20.9880   4
   1   5  12 58.9493 31.0407  19
   1   5  12 6.41197 27.8305  20
   1  -5  12 20.3932 20.2091  19
  -1  -5 -13 18.9340 15.2342   5
  -1   5 -13 0.93551 13.7408   5
   1   5  13 1.55323 20.2127  19
  -1  -6  14 95.3610 12.9310  15
   1   6 -13 579.983 31.1653   5
  -1   6  13 488.414 35.4076  19
  -1  -6  13 599.657 37.4936  15
  -1   6  12 903.893 49.0475   3
   1  -6 -12 762.509 47.7009   5
  -1  -6  12 844.150 48.1340   3
   1   6 -12 922.714 49.2540   5
  -1   6  12 955.988 58.8161  19
  -1   6  11 1576.02 76.4732   3
  -1  -6  11 1688.20 76.7550   3
   1  -6 -11 1536.22 76.5705   5
   1   6 -11 1578.68 76.1443   5
   1  -6 -10 3628.50 226.554   2
   1   6 -10 3614.96 226.134   2
  -1   6  10 4027.47 152.516   3
  -1  -6  10 4095.87 153.053   3
  -1  -6  10 4242.18 241.672   8
   1  -6 -10 3612.79 254.396   9
  -1  -6  10 3409.64 214.770   7
   1  -6 -10 4088.69 158.463  13
  -1  -6   9 4800.80 173.961   3
   1   6  -9 4418.70 247.547   2
   1  -6  -9 4421.43 249.989   2
  -1  -6   9 4904.71 252.645   7
   1  -6  -9 4855.96 296.225   9
  -1   6   9 4536.63 240.083   7
   1  -6  -9 4611.87 179.663  13
   1  -6  -8 180.616 53.8647   2
   1   6  -8 224.538 60.1306   2
  -1   6   8 225.901 55.2235   7
   1  -6  -8 202.033 74.3017   9
   1  -6  -8 216.039 33.1522  13
   1  -6  -7 53.5890 41.7531   2
   1   6  -7 92.2127 45.3316   2
   1  -6  -7 31.6871 59.9263   9
  -1   6   7 50.8567 38.9009   7
   1  -6  -7 52.3284 27.8220  13
   1   6  -6 3288.47 174.318   2
   1  -6  -6 3527.23 179.015   2
  -1   6   6 3578.35 171.760   7
   1  -6  -6 3569.22 217.917   9
  -1  -6   6 3678.92 194.285   8
   1  -6  -5 123.377 39.0570   2
   1   6  -5 224.879 42.3229   2
  -1   6   5 245.300 42.9582   7
   1   6  -4 5350.84 216.354   2
   1  -6  -4 5322.92 216.630   2
  -1   6   4 5970.17 215.015   7
   1  -6  -4 5547.84 265.128   9
   1   6  -3 601.218 46.3950   2
   1  -6  -3 533.330 44.3944   2
  -1   6   3 649.806 42.7569   7
   1  -6  -3 610.340 80.4250   9
   1  -6  -2 1197.14 56.8337   2
   1   6  -2 1215.14 56.8719   2
  -1   6   2 1129.71 47.7197   7
  -1  -6   1 56.2678 24.8063   9
   1  -6  -1 63.7868 46.9314   9
   1  -6   1 21119.9 668.467   1
   1   6   1 20504.4 669.992   1
   1  -6   1 21909.9 681.634   8
   1   6   2 1440.38 70.4214   1
   1  -6   2 1581.36 70.6878   1
   1  -6   2 1601.96 83.0330   8
   1  -6   2 1517.99 63.7629   7
   1   6   3 1557.56 81.1272   1
   1  -6   3 1611.47 80.7936   1
   1  -6   3 1600.66 94.2123   8
   1  -6   3 1656.16 79.8076   7
   1  -6   4 17.7024 28.9991   7
   1  -6   4 60.0759 38.2649   8
   1  -6   5 227.086 23.2267   3
   1   6   5 239.007 22.8072   3
   1  -6   5 222.346 40.6038   7
   1  -6   5 211.187 50.0319   8
   1  -6   6 1840.84 117.527   7
   1   6   6 2054.56 131.206   7
   1  -6   6 1766.01 131.024   8
   1   6   6 1905.99 79.5555   3
   1  -6   6 1982.77 80.1121   3
   1   6   6 1885.40 92.8695  20
   1  -6   6 1977.14 92.3831  12
   1  -6   7-29.8321 49.7288   8
   1  -6   7-11.8479 40.3317   7
   1   6   7 6.57633 44.3139   7
   1  -6   7 5.02720 27.4424  12
   1   6   7-20.5880 32.1518  20
   1  -6   7-17.8662 24.4786  19
   1  -6   7 20.5526 21.7015   3
   1   6   7-10.1632 21.3697   3
  -1  -6  -8 2043.16 185.870   9
   1  -6   8 2295.80 149.559   7
   1   6   8 2137.86 113.051  20
   1  -6   8 2304.66 107.017  19
   1   6   8 2345.78 97.2516   3
   1  -6   8 2361.84 98.2896   3
   1  -6   9 1129.03 105.312   7
  -1  -6  -9 1465.38 156.232   9
   1   6   9 1147.01 78.9985  20
   1  -6   9 1047.20 67.8279  19
  -1   6  -9 928.744 110.500   2
  -1  -6  -9 976.611 109.418   2
   1   6   9 1260.25 64.5728   3
   1  -6   9 1167.24 63.7131   3
  -1  -6 -10 4695.48 296.737   9
   1  -6  10 4252.30 237.470   7
   1   6  10 4851.48 176.158   3
   1   6  10 4347.29 236.395   1
   1  -6  10 4613.43 238.689   1
   1   6  10 4987.37 192.820  20
   1  -6  10 4797.53 183.664  19
   1  -6  11 227.687 29.0274   4
   1   6  11 209.524 28.6597   4
   1   6  11 243.309 43.9416  19
   1  -6  11 177.823 30.2851  19
   1   6  11 200.293 38.2641  20
   1  -6  12 632.953 37.9609   4
   1   6  12 622.017 37.5685   4
   1   6  12 611.056 47.5913  20
   1   6  12 601.412 49.8013  19
   1   6  13 85.4472 22.1900  19
  -1   7  13 101.431 19.3347  19
  -1  -7  13 86.0020 17.7083  15
  -1   7  12 165.225 31.3454  19
  -1  -7  11 989.611 52.1043   3
  -1   7  11 893.513 51.5693   3
   1  -7 -11 898.154 52.0699   5
   1   7 -11 920.877 50.5048   5
   1  -7 -10 679.444 46.3319   5
  -1   7  10 734.020 47.6417   3
  -1  -7  10 728.025 47.4542   3
   1   7 -10 650.279 45.1332   5
   1  -7 -10 677.411 111.124   9
  -1  -7  10 675.472 87.1598   7
   1  -7 -10 727.429 54.6154  13
  -1  -7   9 21.4577 23.5545   3
  -1   7   9 33.3195 24.8007   3
   1  -7  -9 24.8365 39.4556   2
  -1  -7   9 28.0487 53.0298   8
   1  -7  -9 13.4096 58.3324   9
  -1  -7   9 30.9456 47.5961   7
   1  -7  -9 32.6768 31.1376  13
   1  -7  -8-14.9309 38.4222   2
   1   7  -8 7.27947 39.4211   2
   1  -7  -8 38.4466 61.0635   9
  -1  -7   8 17.5377 43.4885   8
   1  -7  -8 22.6240 28.6071  13
   1   7  -7 3216.15 176.359   2
   1  -7  -7 3016.01 173.927   2
  -1   7   7 3163.11 169.663   7
   1  -7  -7 3735.78 241.127   9
  -1  -7   7 3483.70 199.980   8
   1   7  -6 5480.09 248.657   2
   1  -7  -6 5902.02 254.446   2
  -1   7   6 6253.88 250.412   7
  -1  -7   6 6031.27 275.959   8
   1  -7  -5 7259.55 289.956   2
   1   7  -5 7330.82 288.901   2
  -1   7   5 7551.75 284.682   7
   1  -7  -5 7852.35 358.957   9
  -1  -7   5 7925.44 317.810   8
   1   7  -4 3770.85 160.419   2
   1  -7  -4 3647.34 160.056   2
  -1   7   4 3808.58 153.675   7
   1  -7  -4 4258.68 224.128   9
   1  -7  -3 9900.06 341.913   2
   1   7  -3 10110.5 342.637   2
   1  -7  -3 10519.9 415.492   9
   1  -7  -2 24167.0 812.669   9
   1  -7  -2 22958.8 735.741  10
   1  -7  -1 6914.21 226.803  10
  -1  -7   1 6698.50 225.363  10
   1  -7  -1 6834.66 285.415   9
  -1  -7   1 6443.31 246.807   9
  -1  -7   0 41149.4 1289.97  10
   1  -7   0 41452.7 1290.90  10
  -1  -7   0 39683.5 1327.09   9
  -1  -7  -1 4230.92 148.413  10
   1  -7   2 16735.3 544.167   1
   1  -7   2 17283.2 567.590   8
   1  -7   3 2786.50 112.656   1
   1   7   3 2540.99 111.621   1
   1  -7   3 2603.32 129.945   8
   1  -7   3 2493.78 104.942   7
   1   7   4 5325.24 217.130   1
   1  -7   4 5900.46 219.210   1
   1  -7   4 5745.94 240.293   8
   1  -7   4 5567.16 215.012   7
   1  -7   5 6022.98 238.940   1
   1  -7   5 5969.15 199.193   3
   1  -7   5 5725.16 257.848   8
   1  -7   5 5696.36 235.264   7
   1  -7   6 310.392 49.8539   7
   1  -7   6 241.253 34.5140  12
   1  -7   6 264.903 60.3933   8
   1  -7   6 326.380 28.2517   3
   1   7   6 343.150 41.8710  20
   1  -7   6 291.788 33.5510  19
  -1  -7  -6 225.166 34.8713  16
   1  -7   7 366.361 58.0869   7
   1  -7   7 322.657 68.6036   8
   1   7   7 356.139 31.8984   3
   1  -7   7 372.216 32.3855   3
   1  -7   7 373.814 39.9913  19
   1   7   7 354.517 45.8586  20
   1  -7   7 390.841 45.0187  12
  -1  -7  -8 10327.9 500.332   9
   1  -7   8 10041.2 416.387   7
  -1  -7  -8 9759.70 435.043   2
   1  -7   8 10989.6 353.548   3
   1   7   8 10722.0 352.825   3
   1   7   8 10026.2 416.578   1
   1  -7   8 10326.2 416.323   1
   1  -7   8 10498.6 366.043  19
   1   7   8 10798.3 373.570  20
  -1  -7  -8 10369.4 356.573  13
  -1  -7  -9 2477.91 210.672   9
   1  -7   9 2671.16 163.130   1
  -1  -7  -9 2728.88 182.776   2
   1  -7   9 2725.72 121.278  19
   1   7   9 2954.35 132.415  20
   1  -7  10 499.324 38.1999   4
   1   7  10 447.692 37.2747   4
   1  -7  10 425.931 43.0337  19
   1   7  10 501.282 54.0115  20
   1  -7  11 337.395 28.9510   4
   1   7  11 363.627 47.7717  19
   1  -7  11 295.205 32.2188  19
   1   7  11 334.664 44.2374  20
   1   7  12 1293.48 64.0681  20
   1   7  12 1345.45 69.6779  19
   1   7  13 109.829 21.2638  19
  -1   8  13 12.0020 13.5601  19
  -1  -8  13 2.75301 11.9431  15
  -1   8  12 24.2082 24.3738  19
  -1  -8  12 16.3704 18.8818  15
  -1  -8  11 2480.96 106.888  15
   1  -8 -10 2254.61 95.2180   5
   1  -8 -10 2430.47 107.266  13
  -1  -8   9 319.281 29.0462   3
   1  -8  -9 251.929 28.9305   5
   1  -8  -9 195.599 80.8538   9
  -1  -8   9 388.708 78.4315   8
  -1  -8   9 350.199 65.0383   7
   1  -8  -9 215.199 40.0651  13
  -1  -8   8 393.856 32.4800   3
  -1  -8   8 333.668 65.6470   7
   1  -8  -8 259.287 91.7730   9
  -1  -8   8 409.145 79.2401   8
   1  -8  -8 411.653 45.1499  13
   1  -8  -7 277.655 52.3830   2
  -1  -8   7 349.030 73.4016   8
   1  -8  -7 310.516 37.2000  16
   1  -8  -6 1074.20 83.1514   2
  -1  -8   6 1052.43 102.957   8
   1  -8  -6 952.119 56.6952  16
   1  -8  -5 1102.61 76.5670   2
  -1  -8   5 1104.49 97.1530   8
   1  -8  -5 1138.68 126.488   9
   1  -8  -4 107.194 26.0967   2
   1  -8  -4 43.7208 65.3965   9
   1  -8  -3 6063.84 211.486  10
   1  -8  -3 6046.30 290.639   9
   1  -8  -2 11160.8 367.401  10
   1  -8  -2 11163.3 445.738   9
   1  -8  -1 13961.1 448.844  10
  -1  -8   1 13738.8 447.522  10
  -1  -8   1 13654.1 474.939   9
   1  -8   0 819.897 44.2318  10
  -1  -8   0 841.342 71.6260   9
  -1  -8   0 752.215 42.6782  10
  -1  -8  -1 4240.11 149.002  10
  -1  -8  -1 3817.58 192.527   9
   1  -8   2 2748.84 124.783   8
  -1  -8  -2 2787.44 162.756   9
  -1  -8  -2 2746.08 106.682  10
   1  -8   3 3264.06 153.660   8
   1  -8   4 5041.50 223.665   8
   1  -8   5 5625.31 251.865   8
   1  -8   5 5462.47 222.168   1
   1  -8   5 5376.38 200.579  19
   1   8   5 5447.39 206.033  20
   1  -8   5 5681.74 207.044  12
  -1  -8  -5 5555.87 200.068  16
   1  -8   6 594.468 79.8117   8
  -1  -8  -6 879.601 121.163   9
   1  -8   6 879.738 70.8783   1
  -1  -8  -6 717.375 73.2628   2
   1   8   6 850.113 61.5839  20
   1  -8   6 857.126 55.6701  19
  -1  -8  -6 813.303 55.6582  16
  -1  -8  -7 1026.09 137.149   9
   1  -8   7 904.885 59.2630  19
   1   8   7 918.507 68.6096  20
  -1  -8  -7 856.128 61.7837  16
   1  -8   8 21.2523 19.3956   4
   1   8   8-17.8389 33.2261  20
   1  -8   8 29.1833 28.9725  19
  -1  -8  -8 10.1216 32.8379  16
  -1  -8  -9 9383.42 458.886   9
   1  -8   9 8710.78 292.160   4
   1  -8   9 8712.42 305.847  19
   1   8   9 9006.26 317.166  20
  -1  -8  -9 8380.57 298.787  13
   1  -8  10 300.915 35.3061  19
   1   8  10 273.828 44.2266  20
   1   8  11 405.466 47.5132  19
   1   8  11 378.147 40.6923  20
   1  -8  11 331.243 29.8000  15
   1   8  12 139.207 25.6066  20
   1   8  12 215.507 31.9458  19
   1   8  13 684.031 37.3945  19
  -1  -9  13-4.52728 9.39450  15
   1  -9 -12 13.2059 18.6642  10
  -1   9  12 14.8507 20.7415  19
  -1  -9  12 3.78844 15.7314  15
   1  -9 -11 593.897 47.1139  10
  -1  -9  11 581.471 42.4892  15
  -1  -9  10 69.6026 28.1213  15
   1  -9 -10 122.212 32.9628  13
   1  -9  -9 972.429 140.130   9
  -1  -9   9 862.481 102.058   8
  -1  -9   9 974.955 62.1983  15
   1  -9  -9 956.154 64.9535  13
  -1  -9   8 1112.76 113.708   8
   1  -9  -8 1076.98 149.214   9
   1  -9  -8 1125.49 71.1693  13
  -1  -9   7 5085.23 265.205   8
   1  -9  -7 4871.02 192.286  16
   1  -9  -6 1919.77 179.746   9
  -1  -9   6 2307.91 154.393   8
   1  -9  -6 2091.77 93.9815  16
  -1  -9   6 2127.73 95.1651  15
  -1  -9   5 790.998 83.7335   8
   1  -9  -5 757.489 47.9131  16
  -1  -9   5 793.570 49.4775  15
   1  -9  -4 1290.77 132.053   9
   1  -9  -4 1318.61 67.6546  10
  -1  -9   4 1167.72 95.2509   8
  -1  -9   4 1371.25 64.4973  15
   1  -9  -4 1233.85 65.9650  14
   1  -9  -3 763.232 47.3840  10
   1  -9  -3 605.477 93.0555   9
   1  -9  -2 2264.77 155.097   9
   1  -9  -2 2124.41 90.6712  10
  -1  -9   1 9827.55 331.360  10
   1  -9  -1 10054.2 331.801  10
  -1  -9   0 1460.52 100.107   9
  -1  -9   0 1458.09 66.1957  10
  -1  -9  -1 3461.42 128.355  10
  -1  -9  -1 3184.87 176.350   9
  -1  -9  -2 1359.26 113.530   9
  -1  -9  -2 1344.19 65.7736  10
   1  -9   3 78.0976 29.0376   8
  -1  -9  -3 85.3255 27.3770  10
  -1  -9  -3 89.5578 52.5883   9
  -1  -9  -4 1002.95 117.241   9
   1  -9   4 1030.76 85.6384   8
   1   9   4 1079.51 65.0450  20
   1  -9   4 1121.67 61.6361  19
  -1  -9  -4 1009.12 59.3166  15
   1  -9   4 1274.87 65.2386  12
  -1  -9  -4 1053.58 59.1622  16
  -1  -9  -5 55.2184 64.5612   9
   1  -9   5 164.567 33.4266  12
   1  -9   5 83.4600 44.3242   8
   1  -9   5 147.838 29.7773  19
   1   9   5 134.453 34.8855  20
  -1  -9  -5 108.975 30.4080  16
   1  -9   5 115.069 22.4785  15
   1   9   6 4125.80 170.119  20
   1  -9   6 3979.19 161.426  19
   1  -9   6 4054.18 154.290  15
  -1  -9  -6 4213.27 162.688  16
  -1  -9  -7 1937.27 187.494   9
   1   9   7 1996.92 102.996  20
   1  -9   7 1959.53 94.5074  19
   1  -9   7 1877.02 86.3127  15
  -1  -9  -7 1881.89 95.7985  16
   1   9   8 3867.29 157.424  20
   1  -9   8 3309.56 142.432  19
  -1  -9  -8 3712.95 149.469  16
   1  -9   8 3311.79 136.920  15
   1  -9   9 13.1993 23.5394  19
   1   9   9 25.6589 33.5073  20
  -1  -9  -9 17.0913 24.2971  13
   1  -9   9 7.36942 20.3562  15
   1   9  10 315.230 42.9871  20
   1  -9  10 265.131 28.2555  15
   1   9  11 321.649 42.2628  19
   1   9  11 303.348 36.4145  20
  -1  -9 -12 91.8633 19.7244  10
   1   9  12 61.4043 23.1753  19
  -1  10  12 102.378 22.6499  19
  -1 -10  12 84.8569 15.7558  15
   1 -10 -11 1223.31 64.3968  10
  -1 -10  11 1202.93 60.5593  15
   1 -10 -10 4161.46 160.063  10
  -1 -10  10 3746.00 151.926  15
   1 -10 -10 4022.59 155.171  13
   1 -10  -9 6791.11 246.393  10
   1 -10  -9 6710.68 242.099  13
  -1 -10   9 6322.69 237.467  15
  -1 -10   8 4474.29 251.346   8
  -1 -10   8 4846.93 182.715  15
   1 -10  -8 4692.95 186.157  13
   1 -10  -7 43.0926 71.3628   9
  -1 -10   7 139.290 54.7976   8
  -1 -10   7 152.693 30.0398  15
   1 -10  -6 453.954 95.9194   9
   1 -10  -6 352.260 42.2832  10
  -1 -10   6 261.600 60.7290   8
   1 -10  -6 250.581 34.3443  16
  -1 -10   6 358.077 36.2659  15
   1 -10  -5 157.316 76.4409   9
  -1 -10   5 167.000 47.5643   8
   1 -10  -5 133.077 32.4819  10
  -1 -10   5 194.118 27.8484  15
   1 -10  -5 150.007 27.4489  16
   1 -10  -4 840.730 57.0785  10
  -1 -10   4 981.114 86.3317   8
   1 -10  -4 1105.28 127.635   9
  -1 -10   4 966.813 54.0157  15
   1 -10  -4 972.431 58.3682  14
   1 -10  -3 291.950 34.3688  10
  -1 -10   3 308.357 51.1193   8
   1 -10  -3 192.992 71.4742   9
   1 -10  -3 358.049 36.1005  14
  -1 -10   3 288.658 29.6346  15
   1 -10  -2 904.183 53.3326  10
  -1 -10   2 885.126 49.3124  15
   1 -10  -2 831.563 51.6987  14
  -1 -10   1 126.292 25.6240  10
  -1 -10   0 17.8981 21.1178  10
  -1 -10   0 5.31284 37.2641   9
  -1 -10  -1 11662.1 385.341  10
  -1 -10  -1 11167.8 450.896   9
  -1 -10  -2 4212.50 150.629  10
  -1 -10  -2 3763.73 214.064   9
  -1 -10  -2 3830.51 146.943  22
  -1 -10  -2 3797.48 147.791  15
  -1 -10  -3 3320.54 209.486   9
  -1 -10  -3 3601.35 138.066  10
   1 -10   3 3570.67 137.822  12
  -1 -10  -3 3382.97 133.274  14
  -1 -10  -3 3289.88 134.493  15
  -1 -10  -4 1561.86 78.5990  10
  -1 -10  -4 1272.09 135.433   9
   1  10   4 1425.75 81.3458  20
   1 -10   4 1564.52 77.8601  19
  -1 -10  -4 1351.26 73.7293  15
   1 -10   4 1469.11 67.3275  15
  -1 -10  -4 1442.56 73.6294  16
   1 -10   4 1597.03 78.7231  12
  -1 -10  -5 5297.81 301.193   9
   1 -10   5 4932.80 187.180  19
   1  10   5 5142.69 195.562  20
  -1 -10  -5 4918.08 185.193  16
   1 -10   5 4672.17 176.610  15
  -1 -10  -6 930.426 132.836   9
   1 -10   6 733.443 54.6762  19
   1  10   6 798.508 66.6554  20
  -1 -10  -6 834.718 58.9761  16
   1 -10   6 785.028 48.9403  15
  -1 -10  -7 257.929 87.2485   9
   1 -10   7 217.668 34.7885  19
   1  10   7 221.156 44.0253  20
  -1 -10  -7 232.829 39.0625  16
   1 -10   7 158.341 25.6718  15
  -1 -10  -8 249.324 96.9412   9
   1  10   8 253.542 44.9715  20
   1 -10   8 180.978 33.5447  19
  -1 -10  -8 217.668 38.3087  16
   1 -10   8 177.191 28.2592  15
   1 -10   9 702.650 48.4939  19
  -1 -10  -9 712.168 49.1842  13
   1 -10   9 602.273 42.8936  15
   1  10  10 32.5530 29.4221  20
  -1 -10 -10 40.0374 21.3896  13
  -1 -10 -11 17.3657 20.2731  10
   1  10  11 29.0275 27.5801  19
   1  10  11 4.46912 21.8345  20
   1  10  12 32.6987 19.4859  19
  -1  11  12 12.6460 15.4821  19
  -1 -11  12 13.8481 9.10259  15
   1 -11 -11 146.145 24.3816  10
  -1 -11  11 183.182 21.8978  15
   1 -11 -10 614.293 47.6936  10
  -1 -11  10 603.977 41.7084  15
   1 -11 -10 585.776 46.4979  13
   1 -11  -9 91.2993 32.6980  10
   1 -11  -9 60.1212 32.5575  13
  -1 -11   9 135.958 29.3006  15
   1 -11  -8 1667.94 89.7252  10
  -1 -11   8 1511.35 81.3953  15
   1 -11  -8 1659.06 88.1980  13
  -1 -11   7 109.913 45.9238   8
   1 -11  -7 93.9329 35.8344  10
   1 -11  -7 14.7357 71.7291   9
  -1 -11   7 116.783 27.7286  15
   1 -11  -6 1098.35 147.091   9
   1 -11  -6 1130.08 72.7776  10
  -1 -11   6 1217.85 110.772   8
   1 -11  -6 1021.91 60.9259  16
  -1 -11   6 1193.05 66.9906  15
   1 -11  -5 699.466 54.7167  10
  -1 -11   5 743.596 80.8317   8
   1 -11  -5 779.848 121.113   9
   1 -11  -5 565.053 43.5270  16
  -1 -11   5 804.782 50.4757  15
   1 -11  -4 2712.87 207.324   9
   1 -11  -4 2673.35 113.270  10
  -1 -11   4 2190.77 142.028   8
  -1 -11   4 2602.63 108.515  15
   1 -11  -3 170.818 32.0821  10
  -1 -11   3 187.374 42.1868   8
  -1 -11   3 189.917 27.7656  15
   1 -11  -3 178.419 31.4490  14
  -1 -11   2 385.310 33.6530  22
  -1 -11   2 445.522 35.3818  15
   1 -11  -2 413.461 38.7974  14
  -1 -11   1 234.707 32.2662  10
  -1 -11   1 219.945 27.5787  22
  -1 -11   1 231.628 26.8512  15
   1 -11  -1 273.310 33.2878  14
  -1 -11   0 76.7733 25.7234  10
  -1 -11   0 8.41916 18.8595  22
  -1 -11   0 57.2645 19.5063  15
  -1 -11  -1 3875.97 146.582  10
  -1 -11  -1 3445.17 199.058   9
  -1 -11  -1 3622.51 141.483  22
  -1 -11  -1 3759.61 143.097  15
  -1 -11  -1 3766.09 142.832  14
  -1 -11  -2 568.177 44.4903  10
  -1 -11  -2 519.687 78.7919   9
  -1 -11  -2 460.982 38.8093  22
  -1 -11  -2 475.112 39.8829  15
  -1 -11  -2 487.663 40.1447  14
  -1 -11  -3 1113.91 64.1457  10
  -1 -11  -3 1170.62 122.949   9
  -1 -11  -3 1053.02 60.5232  14
  -1 -11  -3 1080.45 62.5627  15
  -1 -11  -3 1043.21 60.5099  16
  -1 -11  -4 3684.10 139.671  10
  -1 -11  -4 3680.72 234.602   9
   1  11   4 3370.49 142.124  20
  -1 -11  -4 3293.21 134.475  15
  -1 -11  -4 3028.50 131.115  16
   1 -11   4 3060.49 123.964  15
  -1 -11  -5 147.320 35.6789  10
   1  11   5 127.706 38.7159  20
  -1 -11  -5 191.086 34.9874  16
   1 -11   5 184.670 24.5168  15
  -1 -11  -6 2392.02 114.374  10
  -1 -11  -6 2577.06 211.069   9
   1  11   6 2424.96 118.413  20
   1 -11   6 2258.37 98.5704  15
  -1 -11  -6 2379.46 109.315  16
  -1 -11  -7 9529.11 321.485  10
  -1 -11  -7 8816.00 461.666   9
   1  11   7 8773.90 322.153  20
   1 -11   7 8599.54 303.416  15
  -1 -11  -7 8994.51 314.532  16
  -1 -11  -8 6644.34 237.064  10
   1  11   8 6280.05 236.545  20
  -1 -11  -8 6346.96 230.117  16
   1 -11   8 5834.24 216.899  15
  -1 -11  -9 2038.36 95.9921  10
   1  11   9 1821.63 93.3428  20
  -1 -11  -9 1862.44 86.5709  13
  -1 -11 -10 380.567 36.9052  10
   1  11  10 273.536 35.4959  20
  -1 -11 -10 327.527 28.8147  13
  -1 -11 -11 24.3205 17.3303  10
   1  11  11 25.9258 22.9316  19
   1  11  11 4.21687 16.4130  20
   1  11  12 180.486 19.5333  19
  -1 -12  11 575.053 31.1907  15
   1 -12 -10 694.167 47.0861  10
  -1 -12  10 725.924 42.6031  15
   1 -12 -10 771.113 47.9511  13
   1 -12  -9 328.594 38.4928  10
   1 -12  -9 337.333 40.4079  13
  -1 -12   9 314.680 32.7295  15
   1 -12  -8 2108.18 101.530  10
   1 -12  -8 2127.58 101.029  13
  -1 -12   8 1976.68 93.5113  15
   1 -12  -7 175.346 37.1750  10
  -1 -12   7 167.121 29.7190  15
   1 -12  -6 382.639 45.8599  10
   1 -12  -6 342.203 35.6979  16
  -1 -12   6 413.308 39.5138  15
   1 -12  -5 15704.0 515.865  10
  -1 -12   5 14991.3 508.943  15
   1 -12  -4 179.594 36.5493  10
  -1 -12   4 194.133 30.4469  15
  -1 -12   3 2290.36 99.6193  15
   1 -12  -3 2235.61 105.186  14
  -1 -12   2 341.445 33.8165  22
   1 -12  -2 371.631 32.8192  15
   1 -12  -2 357.026 41.0135  14
  -1 -12   2 411.338 36.6461  15
  -1 -12   1 2178.78 97.4055  22
  -1 -12   1 2332.45 99.2890  15
   1 -12  -1 2378.60 105.103  14
  -1 -12   0 540.647 44.7212  10
  -1 -12   0 425.273 37.1437  22
  -1 -12   0 411.259 37.3586  15
  -1 -12   0 429.423 38.3545  14
  -1 -12  -1 1636.22 82.9090  10
  -1 -12  -1 1684.73 79.0073  22
  -1 -12  -1 1668.88 79.9417  15
  -1 -12  -1 1674.11 80.7742  14
  -1 -12  -2 1793.88 86.7676  10
  -1 -12  -2 1756.72 145.149   9
  -1 -12  -2 1669.67 82.5106  14
  -1 -12  -2 1741.39 84.1060  15
  -1 -12  -3 4672.80 176.894  10
  -1 -12  -3 4527.71 267.130   9
   1  12   3 4681.50 182.783  20
  -1 -12  -3 4385.34 174.871  15
  -1 -12  -3 4447.86 171.995  16
  -1 -12  -4 262.912 40.6630  10
  -1 -12  -4 286.322 84.0378   9
   1  12   4 294.612 45.6026  20
  -1 -12  -4 210.949 37.1577  16
  -1 -12  -5 118.860 70.3631   9
  -1 -12  -5 43.6450 31.1089  10
   1  12   5 43.9567 35.8445  20
   1 -12   5 20.0622 17.9974  15
  -1 -12  -5 66.2939 32.8478  16
  -1 -12  -6 1646.81 176.798   9
  -1 -12  -6 1858.21 93.8204  10
   1  12   6 1770.69 96.8608  20
   1 -12   6 1563.07 75.8380  15
  -1 -12  -6 1758.65 89.6531  16
  -1 -12  -7 1399.90 78.5407  10
   1  12   7 1319.19 80.5806  20
  -1 -12  -7 1279.16 73.7183  16
   1 -12   7 1204.07 61.3270  15
  -1 -12  -8 132.160 32.9239  10
   1  12   8 110.212 34.2983  20
  -1 -12  -8 107.335 33.2101  16
  -1 -12  -9 312.416 36.6708  10
   1  12   9 230.703 35.1979  20
  -1 -12  -9 343.449 33.9111  13
  -1 -12 -10 182.962 26.4521  10
   1  12  10 138.200 24.4236  20
  -1 -12 -10 155.549 21.1965  13
  -1  13  11 171.545 22.0708  19
   1 -13 -10 8.55173 18.0780  10
   1 -13 -10 19.4820 20.2541  13
  -1 -13  10 10.2443 14.2705  15
   1 -13  -9 961.747 59.2860  10
   1 -13  -9 1002.27 59.7533  13
  -1 -13   9 1095.08 54.1088  15
   1 -13  -8-15.8112 26.3651  10
   1 -13  -8-2.14073 30.3180  13
  -1 -13   8 46.3982 22.2305  15
   1 -13  -7 767.164 57.4989  10
  -1 -13   7 635.657 46.1889  15
   1 -13  -6 214.954 38.8277  10
  -1 -13   6 244.086 32.1915  15
   1 -13  -5 53.6978 33.2125  10
  -1 -13   5 43.5513 24.6511  15
   1 -13  -4-2.50511 33.0499  10
  -1 -13   4 10.1974 22.9618  22
  -1 -13   4-10.7999 23.3935  15
  -1 -13   3 3716.34 149.312  22
  -1 -13   3 3970.35 152.090  15
   1 -13  -3 3833.08 157.720  14
  -1 -13   2 3006.99 122.889  22
   1 -13  -2 2938.57 129.922  14
  -1 -13   2 3023.28 124.179  15
  -1 -13   1 2284.82 101.272  22
   1 -13  -1 2371.85 107.843  14
  -1 -13   1 2252.64 101.448  15
  -1 -13   0 1654.55 87.1998  10
  -1 -13   0 1713.60 81.8812  22
  -1 -13   0 1630.80 83.3986  14
  -1 -13   0 1826.29 84.8098  15
   1 -13   0 1736.77 88.5429  14
  -1 -13  -1 1550.10 82.2769  10
  -1 -13  -1 1374.69 75.3510  22
  -1 -13  -1 1490.97 77.9673  14
  -1 -13  -1 1637.53 79.6456  15
  -1 -13  -2 3437.41 141.962  10
  -1 -13  -2 3265.70 137.931  15
  -1 -13  -2 3423.17 137.390  14
  -1 -13  -3 8247.01 413.901   9
  -1 -13  -3 8927.85 316.231  10
   1  13   3 9257.97 323.596  20
  -1 -13  -3 8939.73 311.022  16
  -1 -13  -3 8847.49 315.021  15
  -1 -13  -4 338.546 43.4750  10
  -1 -13  -4 229.538 83.6098   9
   1  13   4 281.124 48.0037  20
  -1 -13  -4 301.769 40.2554  16
  -1 -13  -5 732.741 121.104   9
  -1 -13  -5 887.440 62.5475  10
   1  13   5 901.055 69.2992  20
  -1 -13  -5 879.523 59.8063  16
  -1 -13  -6 2851.73 129.030  10
   1  13   6 3071.44 135.516  20
  -1 -13  -6 2900.93 126.311  16
  -1 -13  -7 166.155 35.2417  10
   1  13   7 159.158 38.8312  20
  -1 -13  -7 151.556 34.6699  16
  -1 -13  -8 10.7783 26.5220  10
   1  13   8 19.4016 27.6588  20
  -1 -13  -8 3.57511 24.4661  13
  -1 -13  -9 48.0512 23.2739  10
   1  13   9 41.3757 23.8776  20
  -1 -13  -9 58.3806 21.6105  13
  -1 -13 -10 626.381 39.3648  10
   1  13  10 699.322 44.9282  19
   1  13  11 213.232 21.0376  19
   1 -14 -10 158.112 22.1741  13
   1 -14  -9 240.766 27.9770  10
   1 -14  -9 257.892 31.2463  13
  -1 -14   9 197.933 21.3314  15
   1 -14  -8 78.2374 26.0911  10
  -1 -14   8 55.4461 18.6248  22
   1 -14  -8 58.0015 30.0237  13
  -1 -14   8 70.1735 19.9057  15
   1 -14  -7 1162.90 69.4217  10
  -1 -14   7 1101.98 58.6703  22
   1 -14  -7 1248.75 71.0441  13
  -1 -14   7 1227.48 61.9619  15
   1 -14  -6 305.371 39.5575  10
  -1 -14   6 246.016 30.7421  22
  -1 -14   6 304.683 32.9556  15
   1 -14  -5 200.423 35.6144  10
  -1 -14   5 186.771 29.5052  22
  -1 -14   5 221.700 31.1995  15
   1 -14  -4 3510.96 149.211  10
  -1 -14   4 3606.56 141.728  22
  -1 -14   4 3541.71 142.243  15
  -1 -14   3 52.8263 23.3979  22
   1 -14  -3 23.0614 31.2390  14
  -1 -14   3 8.60819 22.0692  15
  -1 -14   2 142.542 27.5190  22
  -1 -14   2 134.543 29.2131  15
   1 -14  -2 102.390 32.3240  14
  -1 -14   1 641.988 47.8393  22
  -1 -14   1 717.413 50.5299  15
  -1 -14   1 699.104 51.5033  14
   1 -14  -1 719.182 58.4264  14
  -1 -14   0 4842.56 182.388  22
   1 -14   0 4989.67 189.962  14
  -1 -14   0 4860.20 184.233  15
  -1 -14   0 4729.73 184.399  14
  -1 -14  -1 107.294 33.6604  10
  -1 -14  -1 116.302 31.2214  14
  -1 -14  -1 131.353 30.0253  15
  -1 -14  -2 319.279 43.0249  10
  -1 -14  -2 284.735 36.1350  14
  -1 -14  -2 316.936 39.9350  16
  -1 -14  -2 306.993 37.2028  15
  -1 -14  -3 776.786 58.9435  10
   1  14   3 856.794 67.5532  20
  -1 -14  -3 750.091 53.3349  16
  -1 -14  -3 695.510 55.8024  15
   1  14   4 878.147 66.8550  20
  -1 -14  -4 1001.64 60.3194  16
  -1 -14  -5 2782.47 126.956  10
   1  14   5 2830.88 132.168  20
  -1 -14  -5 3095.12 125.031  16
  -1 -14  -6 11.7649 26.8889  10
   1  14   6 48.8189 33.0628  20
  -1 -14  -6-2.01477 28.8707  16
  -1 -14  -7 122.174 28.8578  10
   1  14   7 142.898 34.5696  20
  -1 -14  -7 170.539 30.2788  16
  -1 -14  -8 58.5864 23.9025  10
   1  14   8 49.5331 25.4860  20
  -1 -14  -8 79.5182 24.8295  13
  -1 -14  -9 750.789 44.4874  10
   1  14   9 713.896 40.1466  20
  -1 -14  -9 808.595 41.1794  13
   1  14  10 20.3919 15.0678  19
   1 -15  -9 12.3818 18.2904  13
   1 -15  -8-3.22018 19.3075  10
   1 -15  -8-13.9226 22.9176  13
  -1 -15   8 19.5391 14.3222  15
   1 -15  -7 1007.24 62.1846  10
  -1 -15   7 1108.40 55.2888  15
   1 -15  -6 941.692 60.3109  10
  -1 -15   6 957.648 51.5618  22
  -1 -15   6 989.003 54.5572  15
   1 -15  -5 1158.47 69.5965  10
  -1 -15   5 1032.83 57.4520  22
  -1 -15   5 1134.28 60.8423  15
  -1 -15   4 7.30212 20.6363  22
  -1 -15   4 28.0111 21.6759  15
  -1 -15   3 808.343 52.1117  22
  -1 -15   3 884.282 55.0357  15
  -1 -15   2 3758.96 152.239  22
  -1 -15   2 4191.65 158.069  14
   1 -15  -2 4091.47 164.155  14
  -1 -15   2 3829.24 154.418  15
  -1 -15   1 1277.11 69.7407  22
  -1 -15   1 1317.41 72.7528  14
  -1 -15   1 1393.39 74.1291  15
   1 -15  -1 1405.93 81.7468  14
  -1 -15   0 21.8602 25.9849  14
  -1 -15   0 51.0002 25.0913  15
   1 -15   0 57.1075 31.9610  14
  -1 -15  -1 200.202 32.6540  16
   1 -15   1 161.456 37.2478  14
  -1 -15  -1 142.573 30.5512  15
  -1 -15  -1 172.688 30.5124  14
  -1 -15  -2 718.764 54.4889  10
   1  15   2 726.101 61.4597  20
  -1 -15  -2 690.937 53.8277  15
  -1 -15  -2 674.627 49.8674  16
  -1 -15  -3 46.2856 30.1013  10
   1  15   3 61.1928 38.1924  20
  -1 -15  -3 44.1733 27.9333  16
  -1 -15  -4 97.4408 31.1057  10
   1  15   4 80.8160 37.8640  20
  -1 -15  -4 59.4098 29.0556  16
  -1 -15  -5 9.02761 26.3506  10
   1  15   5 34.9587 32.0439  20
  -1 -15  -5 30.0759 26.5035  16
  -1 -15  -6 337.459 37.6484  10
   1  15   6 296.466 40.2483  20
  -1 -15  -6 294.182 34.1331  16
  -1 -15  -7 958.795 55.4083  10
   1  15   7 902.022 54.7767  20
  -1 -15  -8 86.1050 20.4750  10
   1  15   8 73.1313 20.5424  20
  -1 -15  -8 126.155 23.1763  13
   1  15   9 75.9953 18.4709  19
  -1 -15  -9 73.1415 13.5942  13
   1 -16  -9 409.059 25.7530  13
   1 -16  -8 70.2913 21.3670  13
   1 -16  -7-1.57791 18.8584  10
   1 -16  -7 7.62753 24.7828  13
   1 -16  -6 272.992 32.7334  10
  -1 -16   6 255.752 25.9302  15
   1 -16  -5 400.049 40.6964  10
  -1 -16   5 468.729 35.4312  15
  -1 -16   4 10.5669 17.6191  22
  -1 -16   4-26.2625 21.5403  15
  -1 -16   3 18.1033 18.5331  22
  -1 -16   3 8.01126 24.6427  14
  -1 -16   3 9.41674 21.7542  15
  -1 -16   2 507.882 40.5462  22
   1 -16  -2 548.356 49.9828  14
  -1 -16   2 599.636 44.3087  15
  -1 -16   2 576.637 46.1238  14
  -1 -16   1-4.08220 21.4792  15
   1 -16  -1 29.3109 32.4036  14
  -1 -16   1 38.9680 24.3545  14
  -1 -16   0 1540.47 80.2717  14
  -1 -16   0 1625.72 82.7671  15
  -1 -16  -1 78.9796 26.8059  16
  -1 -16  -1 86.8832 27.4406  15
   1 -16   1 103.957 34.2930  14
  -1 -16  -1 45.8049 24.9128  14
   1  16   2 1059.97 71.3851  20
   1 -16   2 1112.89 69.2047  14
  -1 -16  -2 921.378 57.3656  16
  -1 -16  -3 610.082 48.5131  10
   1  16   3 508.096 51.2877  20
  -1 -16  -3 546.328 43.4216  16
   1 -16   3 583.720 51.2620  14
  -1 -16  -4 80.8050 27.5488  10
   1  16   4 153.150 35.6474  20
  -1 -16  -4 98.0567 27.4785  16
  -1 -16  -5 896.173 55.3680  10
   1  16   5 861.691 58.7964  20
  -1 -16  -5 834.911 50.3224  16
  -1 -16  -6 104.284 23.5381  10
   1  16   6 111.517 26.6116  20
  -1 -16  -7 99.0279 21.1637  10
   1  16   7 113.367 21.4774  20
  -1 -16  -7 117.332 24.3581  13
  -1 -16  -8 513.765 30.7475  13
   1 -17  -8 32.3740 13.0384  13
  -1 -17   7 16.2353 14.0637  14
  -1 -17   6 49.7842 17.7287  14
  -1 -17   5 44.4918 20.1955  14
  -1 -17   4 84.3145 22.4842  14
  -1 -17   4 64.6721 19.2479  15
  -1 -17   3 710.511 46.8756  14
  -1 -17   3 738.060 45.0490  15
  -1 -17   2 1356.84 68.4544  14
  -1 -17   2 1353.70 67.4653  15
  -1 -17   1 461.420 39.3849  15
   1 -17  -1 540.145 47.5264  14
  -1 -17   1 604.556 43.1766  14
  -1 -17   0 2250.46 97.2973  14
   1 -17   0 2340.56 106.127  14
  -1 -17   0 2224.68 98.1297  15
   1  17   1 287.817 42.9530  20
   1 -17   1 311.017 40.6462  14
   1  17   2 79.4369 32.9808  20
   1 -17   2 2.13591 27.4227  14
   1  17   3 1259.93 71.6034  20
   1 -17   3 1267.05 70.5894  14
   1  17   4 215.880 33.8447  20
   1 -17   4 245.431 33.2298  14
   1  17   5 43.5798 23.4295  20
   1 -17   5 91.0907 24.2875  14
   1 -17   6 25.4018 19.1267  14
   1 -17   7 257.452 22.9320  14
  -1 -17  -7 243.882 22.2598  13
  -1 -18   6 0.63261 9.45250  14
   1 -18  -6 9.57843 16.0009  13
   1 -18  -5 250.840 27.3655  13
  -1 -18   5 218.614 21.4461  14
  -1 -18   4 6.63934 16.2521  14
  -1 -18   3 90.4677 19.8207  14
  -1 -18   2 100.181 21.4861  14
  -1 -18   1 140.825 21.6125  15
  -1 -18   1 103.729 22.8642  14
   1  18   0 130.481 31.7915  20
   1 -18   0 209.489 31.9060  14
   1  18   1 115.378 31.2928  20
   1 -18   1 157.210 29.6401  14
   1  18   2 3.52932 25.6921  20
   1 -18   2 27.4817 24.3285  14
   1  18   3 257.961 32.4666  20
   1 -18   3 318.467 33.6447  14
   1  18   4 15.8514 19.7783  20
   1 -18   4 12.6816 19.2890  14
   1 -18   5 433.213 31.3675  14
  -1 -18  -6 426.258 26.9916  13
   1 -18   6 454.110 27.6655  14
   1 -19  -4 55.0081 16.4921  13
   1 -19  -3 84.3297 17.3895  13
   1  19  -2 18.5070 22.1275  20
   1  19  -1 13.7282 21.1999  20
   1  19   0 166.079 25.8476  20
   1  19   1 2.53454 19.5662  20
   1  19   2 17.1935 16.9542  20
   1 -19   2 8.59270 16.8466  14
   1 -19   3 51.3878 17.5136  14
   1 -19   4 9.87035 13.6078  14
  -1 -19  -5 99.6074 13.9794  13
   2   0 -14 2296.66 88.8885   5
   2   0 -13-10.1029 24.2362   5
  -2   0  13-1.61342 23.1699   3
  -2   0  12 437.452 44.0714   3
   2   0 -12 494.015 44.7786   5
  -2   0  11 38.0042 54.6689   7
   2   0 -11-9.42423 28.2518   5
   2   0 -11 22.1251 55.9078   2
  -2   0  10 70.7422 46.5108   8
   2   0 -10-10.7558 60.1014   2
  -2   0   9-29.6043 43.7856   8
   2   0  -9 38.5327 51.3175   2
  -2   0   8 24796.8 866.591   8
   2   0  -8 24573.5 892.058   2
  -2   0   7-5.57965 36.0022   8
   2   0  -7 70.7085 48.6322   2
   2   0  -6 1624.74 71.8135  11
   2   0  -6 1397.89 110.920   2
   2   0  -5-12.6139 18.5705  11
   2   0  -5-23.4097 41.4882   2
   2   0  -4 11925.3 427.382   2
   2   0  -3 28.1088 33.0085   2
   2   0  -2 117590. 3652.17   1
   2   0  -2 115262. 3647.71   2
   2   0  -1-23.5105 35.3579   1
   2   0   0 53503.1 1693.75   1
   2   0   1 13.9460 29.4784   1
   2   0   2 14712.1 498.160   1
   2   0   3 3.16267 33.2722   1
   2   0   4 89962.0 2804.50   3
   2   0   5-9.42574 19.9821   3
   2   0   6 410.342 35.3136   3
   2   0   7 24.5251 29.6975  19
   2   0   7-8.37681 26.4762   3
   2   0   8 3548.81 148.387  19
   2   0   8 3412.11 138.203   3
   2   0   9-15.0051 35.5100  20
   2   0   9 27.1590 35.9474  19
   2   0   9 43.2826 49.8104   1
   2   0   9 2.14684 33.0820   3
   2   0  10 1462.80 89.4961  20
   2   0  10 1412.28 87.9042  19
   2   0  10 1315.61 128.411   1
   2   0  11-5.57177 32.0639  19
   2   0  11 34.7501 28.9519   4
   2   0  12 3952.91 159.470  19
   2   0  12 4136.44 153.363   4
   2   0  13 16.1779 20.8276  19
   2   0  13-3.68843 17.8973   4
  -2   0 -14 3.77820 9.36935   5
   2   1 -14 132.043 20.1526   5
   2   1 -13 118.800 27.0570   5
  -2   1  13 102.127 27.0987   3
   2   1 -12-2.12148 27.8391   5
  -2   1  12 30.1404 29.3174   3
  -2   1  11 1402.41 132.221   7
  -2  -1  11 1521.59 140.960   7
  -2  -1  11 1330.29 121.746   8
   2   1 -11 1161.38 132.952   2
   2   1 -11 1505.04 79.3403   5
  -2  -1  10 534.898 81.7931   8
  -2   1  10 597.338 77.4799   8
  -2   1  10 498.440 89.9907   7
   2   1 -10 506.055 94.5736   2
  -2   1   9 955.189 94.8298   8
  -2  -1   9 889.844 100.430   8
   2   1  -9 916.792 111.566   2
  -2   1   8 1603.08 118.888   8
  -2  -1   8 1763.45 132.147   8
   2   1  -8 1721.27 142.506   2
  -2   1   7 7882.32 318.660   8
  -2  -1   7 7468.85 326.594   8
   2  -1  -7 7868.90 329.944   9
   2   1  -7 8144.84 344.810   2
   2   1  -6 2638.66 102.807  11
   2  -1  -6 2550.72 146.418   9
   2   1  -6 2217.38 144.635   2
   2   1  -5 2581.27 100.167  11
   2  -1  -5 2681.23 142.914   9
   2   1  -5 2665.16 143.543   2
   2   1  -4 1030.19 78.3502   2
   2   1  -3 4353.25 180.342   2
   2   1  -2 999999. 31008.1   2
   2   1  -2 997700. 31012.2   1
   2   1  -1 4428.27 169.866   2
   2   1  -1 4421.90 173.646   1
   2   1   0 14083.6 471.662   1
   2   1   1 435.507 44.8659   1
   2   1   2 506.049 50.4880   1
   2  -1   3 18683.4 633.876   7
   2   1   3 19042.1 635.609   1
   2   1   4 2155.11 119.570   7
   2   1   4 1771.39 75.1664   3
   2  -1   5 4413.84 202.296   7
   2   1   5 4482.67 206.255   7
   2   1   5 4342.09 154.798   3
   2   1   6 608.090 76.6060   7
   2  -1   6 691.033 80.3178   7
   2   1   6 793.637 46.3040   3
   2  -1   7 27.2962 48.3587   7
   2   1   7 41.9622 50.4839   7
   2  -1   7 32.9815 30.8036  20
   2   1   7 89.2768 30.6676  19
   2  -1   7 78.2069 28.3935  19
   2   1   7 72.0632 28.6271   3
   2   1   8 226.657 68.1142   7
   2  -1   8 212.800 31.6163  12
   2  -1   8 166.475 60.1616   7
   2   1   8 225.617 42.7620  20
   2  -1   8 206.788 36.7996  19
   2   1   8 262.705 42.1139  19
   2   1   8 313.822 39.4681   3
   2   1   9 2773.32 185.154   7
   2  -1   9 2522.63 179.102   7
   2   1   9 2579.64 124.262  19
   2  -1   9 2687.88 124.326  19
   2   1   9 2655.75 124.540  20
   2   1   9 2481.69 113.562   3
   2   1   9 2340.75 171.670   1
   2   1  10 9259.17 333.421  19
   2   1  10 9509.93 333.266  20
   2  -1  10 9145.85 331.379  20
   2  -1  10 8903.74 329.526  19
   2   1  10 8711.42 401.227   1
   2   1  11 213.506 44.5027  20
   2  -1  11 113.541 35.3594  19
   2   1  11 147.706 39.8042  19
   2   1  11 129.724 31.2380   4
   2  -1  12 163.614 32.1508  19
   2   1  12 147.246 32.3972  19
   2   1  12 173.579 29.4335   4
   2  -1  13 115.332 22.3824  19
   2   1  13 110.199 23.9772  19
   2   1  13 138.511 21.2648   4
  -2   1 -14 5.96307 8.98671   5
   2   2 -14 2703.39 100.220   5
   2  -2 -14 2709.96 100.471   5
  -2   2  13 2461.83 97.9627   3
  -2  -2  13 2216.85 95.8745   3
   2  -2 -13 2269.07 96.6696   5
   2   2 -13 2339.90 97.4039   5
  -2   2  12 1663.38 83.3675   3
  -2  -2  12 1568.60 81.6114   3
   2  -2 -12 1614.50 82.5191   5
   2   2 -12 1848.65 85.6962   5
   2  -2 -11 387.216 83.3146   2
   2   2 -11 328.159 81.9813   2
   2  -2 -11 395.075 42.9340   5
   2   2 -11 452.525 44.9089   5
  -2   2  11 273.210 73.5703   7
  -2  -2  11 508.787 79.2225   8
   2  -2 -10 158.680 69.9617   2
   2   2 -10 171.562 68.5699   2
  -2  -2  10 123.460 55.1476   8
  -2   2  10 207.894 64.1968   7
   2  -2  -9 19.1560 58.1833   2
   2   2  -9 67.7146 57.2373   2
  -2   2   9 18.8667 36.7118   8
  -2  -2   9 33.3464 47.9780   8
   2  -2  -8 2940.01 189.759   2
   2   2  -8 2991.74 191.860   2
   2  -2  -8 3108.13 190.478   9
  -2  -2   8 3086.02 184.052   8
  -2   2   8 3076.36 166.968   8
   2  -2  -7 10619.9 419.846   2
   2   2  -7 10011.9 415.695   2
   2  -2  -7 9587.18 414.522   9
  -2  -2   7 10383.7 407.561   8
  -2   2   7 10156.5 385.988   8
   2  -2  -6 538.469 75.0006   2
   2   2  -6 572.695 75.1485   2
   2   2  -6 728.464 42.9316  11
   2  -2  -6 574.864 76.5767   9
  -2   2   6 535.282 58.5193   8
   2  -2  -6 582.755 39.6725  11
   2  -2  -5 458.414 63.1241   2
   2   2  -5 465.921 61.9049   2
   2   2  -5 547.702 34.7435  11
   2  -2  -5 562.445 69.9564   9
   2  -2  -5 568.750 36.6304  11
   2   2  -4 23651.5 785.653   2
   2  -2  -4 23400.1 785.581   2
   2  -2  -4 23163.4 797.947   9
   2   2  -3 32648.3 1065.57   2
   2  -2  -3 32873.6 1066.10   2
   2   2  -2 36035.1 1146.40   1
   2  -2  -2 35648.7 1145.76   1
   2   2  -2 35949.6 1141.58   2
   2  -2  -2 34523.0 1140.70   2
   2  -2  -1 65102.8 2078.55   1
   2   2  -1 65338.3 2074.56   2
   2  -2  -1 66008.0 2074.78   2
   2   2  -1 67019.4 2079.66   1
   2  -2   0 144351. 4533.55   1
   2   2   0 145876. 4534.76   1
   2  -2   1 242.027 36.0607   1
   2   2   1 298.668 39.0311   1
   2   2   2 1866.56 96.8026   1
   2  -2   2 1849.04 94.5240   1
   2   2   3 7868.56 290.664   1
   2  -2   3 7961.55 289.646   1
   2  -2   3 7544.18 286.727   7
   2   2   4 2607.56 97.4383   3
   2  -2   4 2543.24 96.9555   3
   2  -2   4 2673.17 137.696   7
   2   2   4 2591.69 141.442   7
   2   2   5 6702.73 226.914   3
   2  -2   5 6572.49 226.631   3
   2  -2   5 6479.84 272.887   7
   2   2   6 296.041 32.0472   3
   2  -2   6 278.308 30.3875   3
   2  -2   6 281.097 61.5135   7
   2   2   6 247.199 61.0047   7
   2  -2   7 121.268 58.0855   7
   2   2   7 212.957 60.3950   7
   2  -2   7 133.779 28.8159  12
   2  -2   7 161.061 31.0191   3
   2   2   7 191.241 30.7577   3
   2  -2   7 169.602 32.1954  19
   2  -2   7 179.865 34.7342  20
  -2  -2  -7 139.413 30.6298  16
   2  -2   8 8386.89 365.570   7
   2   2   8 8179.72 368.572   7
   2   2   8 8546.84 288.515   3
   2  -2   8 8532.61 287.930   3
   2  -2   8 8529.30 300.465  19
   2   2   8 8156.81 299.183  20
   2   2   8 8489.26 301.708  19
   2  -2   8 7469.80 287.648  12
   2  -2   9 6575.79 314.992   7
   2   2   9 6686.28 315.313   1
   2  -2   9 6839.63 316.153   1
   2  -2   9 6572.75 234.936   3
   2   2   9 6655.48 235.179   3
   2   2   9 6403.12 247.603  19
   2   2   9 6378.20 246.086  20
   2  -2   9 6642.69 246.171  19
   2  -2   9 5952.67 233.703  12
   2  -2  10 11680.1 404.430  19
   2   2  10 11646.6 408.380  20
   2   2  10 11525.1 407.450  19
   2   2  10 11187.4 478.719   1
   2  -2  10 11433.5 480.736   1
   2   2  11 34.3710 34.0158  19
   2   2  11 37.1198 34.4743  20
   2  -2  11 44.5665 30.9261  19
   2  -2  11 15.8355 27.8460   4
   2   2  11 17.7689 27.5072   4
   2  -2  12 399.510 39.7543  19
   2   2  12 393.382 42.8861  19
   2   2  12 314.542 34.4111   4
   2  -2  12 369.132 34.8763   4
   2  -2  13 84.8547 20.7863  19
   2   2  13 98.3931 23.7155  19
   2   2  13 95.9237 19.9567   4
   2  -2  13 121.978 20.6205   4
   2   3 -14 212.113 19.8966   5
   2  -3 -14 156.418 19.4968   5
   2   3 -13 33.8548 22.3405   5
  -2   3  13 58.5819 24.0117   3
  -2  -3  13 12.6876 21.9192   3
   2  -3 -13 32.3399 21.9880   5
   2   3 -12 352.428 38.9812   5
  -2   3  12 435.288 42.3743   3
  -2  -3  12 397.461 40.6357   3
   2  -3 -12 359.041 39.1747   5
   2   3 -11 249.708 36.3695   5
   2  -3 -11 241.103 36.0954   5
   2   3 -10 517.048 91.4820   2
   2  -3 -10 604.249 94.2503   2
  -2   3  10 561.728 87.7028   7
  -2  -3  10 422.762 80.5667   8
   2   3  -9 2807.62 193.184   2
   2  -3  -9 2687.90 189.817   2
  -2  -3   9 3110.93 196.071   8
  -2   3   9 2624.45 177.425   7
   2   3  -8 679.392 91.0649   2
   2  -3  -8 536.195 82.5090   2
  -2  -3   8 588.830 84.1194   8
   2  -3  -8 512.921 84.3574   9
   2  -3  -8 675.527 49.3021  13
   2  -3  -7 455.101 72.4688   2
   2   3  -7 602.106 79.7752   2
   2  -3  -7 448.885 76.0818   9
  -2  -3   7 612.566 77.6540   8
  -2   3   7 394.527 53.6191   8
   2  -3  -7 544.493 42.6795  13
   2   3  -6 1239.89 101.387   2
   2  -3  -6 1589.48 109.987   2
  -2   3   6 1230.84 82.2146   8
   2  -3  -6 1381.94 117.308   9
   2  -3  -5 6210.18 272.152   2
   2   3  -5 6408.41 273.306   2
   2  -3  -5 6764.31 295.808   9
   2   3  -5 6736.94 227.741  11
   2  -3  -5 6915.53 228.749  11
   2  -3  -4 4022.03 180.811   2
   2   3  -4 4066.19 180.352   2
   2  -3  -4 4146.21 198.832   9
   2   3  -3 355.020 47.7527   2
   2  -3  -3 278.964 45.5266   2
   2   3  -2 6272.39 232.073   2
   2   3  -2 6332.21 236.816   1
   2  -3  -2 6218.70 236.318   1
   2  -3  -2 6216.46 232.132   2
   2   3  -1 5597.69 205.464   1
   2  -3  -1 5243.27 198.866   2
   2  -3  -1 5296.02 202.845   1
   2   3  -1 5388.62 199.625   2
   2  -3   0 594.329 49.6462   1
   2   3   0 623.920 50.0245   1
   2   3   1 2922.40 126.462   1
   2  -3   1 2908.44 124.998   1
   2   3   2 18443.0 618.409   1
   2  -3   2 18666.9 616.892   1
   2   3   3 602.033 58.6087   1
   2  -3   3 499.371 54.2002   1
   2  -3   3 532.832 53.2542   7
   2   3   4 2581.16 96.1799   3
   2   3   4 2714.92 134.518   1
   2  -3   4 2686.10 133.214   1
   2  -3   4 2518.59 95.6685   3
   2  -3   4 2602.56 130.578   7
   2   3   5 7733.80 261.294   3
   2  -3   5 7839.69 261.595   3
   2  -3   5 7827.84 309.354   7
   2   3   5 8012.11 319.212   7
   2   3   6 3653.12 136.112   3
   2  -3   6 3661.30 136.200   3
   2   3   6 3819.54 195.845   7
   2  -3   6 3535.51 185.316   7
   2  -3   7 564.017 76.7420   7
   2   3   7 540.213 81.1791   7
   2   3   7 583.841 42.5045   3
   2  -3   7 630.122 44.6087   3
   2   3   7 523.502 50.4657  20
   2  -3   7 546.095 48.7049  20
   2  -3   7 544.079 49.3302  19
  -2  -3  -7 604.191 46.1336  16
   2  -3   7 521.176 45.5538  12
   2  -3   8 391.066 73.3255   7
   2   3   8 400.836 41.3890   3
   2  -3   8 383.209 71.7580   1
   2  -3   8 340.948 40.5489   3
   2   3   8 315.738 69.3150   1
   2   3   8 399.712 48.6924  19
   2  -3   8 461.433 48.2915  19
   2   3   8 377.063 47.4119  20
   2  -3   8 429.529 50.3633  20
   2  -3   8 403.321 43.7243  12
   2  -3   9 3192.35 200.039   7
   2  -3   9 3230.35 134.464   3
   2   3   9 3367.44 201.156   1
   2  -3   9 3322.05 200.972   1
   2   3   9 3319.74 135.086   3
   2   3   9 3328.64 149.517  19
   2  -3   9 3511.07 146.958  19
   2   3   9 3322.11 148.005  20
   2  -3   9 3038.97 136.538  12
   2   3  10 548.509 81.5720   1
   2  -3  10 598.453 48.8285   4
   2   3  10 699.581 62.8249  20
   2   3  10 619.555 60.0008  19
   2  -3  10 635.031 57.5546  19
   2   3  11 1868.12 88.6971   4
   2  -3  11 2000.55 90.4365   4
   2   3  11 2069.06 102.825  20
   2  -3  11 1885.44 95.8931  19
   2   3  11 2015.13 103.548  19
   2  -3  12 100.876 24.5674   4
   2   3  12 94.6026 25.0552   4
   2  -3  12 38.6825 25.8528  19
   2   3  12 102.041 31.8353  19
   2  -3  13 864.323 46.6213  19
   2   3  13 1114.67 54.5825  19
   2  -4 -14 18.4748 11.7877   5
   2   4 -14 27.3780 11.3988   5
  -2  -4  14 17.3250 12.6220  15
   2  -4 -13 1592.57 70.8293   5
  -2   4  13 1615.42 70.8971   3
  -2  -4  13 1617.70 70.4244   3
   2   4 -13 1622.39 70.6751   5
  -2  -4  12 3358.55 129.712   3
  -2   4  12 3273.08 129.623   3
   2   4 -12 3191.39 129.638   5
   2  -4 -12 3225.98 129.624   5
  -2   4  11 497.299 46.2237  19
   2   4 -11 596.754 46.7149   5
   2  -4 -11 590.984 46.5721   5
   2   4 -10 71.9876 56.5913   2
   2   4 -10 41.4136 25.8134   5
   2  -4 -10 20.4078 52.5258   2
   2  -4 -10 21.8613 25.8024   5
  -2  -4  10 94.5684 56.7091   8
  -2   4  10 8.46509 46.5865   7
   2  -4  -9 4148.22 240.898   2
   2   4  -9 3812.13 234.557   2
  -2  -4   9 4058.00 236.755   8
  -2   4   9 3973.57 224.213   7
   2  -4  -9 4112.74 161.339  13
   2  -4  -8 215.468 66.3259   2
   2   4  -8 240.196 68.2192   2
  -2  -4   8 197.899 66.9651   8
   2  -4  -8 223.666 72.3077   9
   2  -4  -8 220.623 37.3043  13
   2  -4  -7 1869.90 130.890   2
   2   4  -7 1657.78 126.736   2
   2  -4  -7 1666.60 142.790   9
  -2  -4   7 1731.04 130.744   8
   2  -4  -7 1503.11 77.6713  13
   2  -4  -6 12421.1 472.364   2
   2   4  -6 12308.2 471.489   2
   2  -4  -6 12817.3 505.087   9
   2   4  -5 8985.54 345.785   2
   2  -4  -5 8968.23 346.607   2
   2  -4  -5 9550.89 382.160   9
  -2   4   5 8098.05 310.302   8
   2   4  -5 9184.73 295.578  11
   2  -4  -5 8916.13 295.438  11
   2  -4  -4 8425.00 321.260   2
   2   4  -4 8734.59 322.395   2
   2  -4  -4 8216.13 348.227   9
   2  -4  -3 5619.24 225.552   2
   2   4  -3 6023.15 227.556   2
   2  -4  -2 2001.12 97.9848   1
   2   4  -2 1785.38 90.6764   2
   2  -4  -2 1808.82 90.8124   2
   2   4  -2 1753.87 94.8983   1
   2   4  -1 41.6540 27.6337   1
   2  -4  -1 63.8699 29.1111   1
   2  -4   0 4098.79 164.760   1
   2   4   0 4404.26 167.586   1
   2   4   1 5501.43 206.692   1
   2  -4   1 5532.08 207.170   1
   2   4   2 14201.5 484.772   1
   2  -4   2 14305.2 483.778   1
   2  -4   3 7651.89 285.790   1
   2   4   3 7634.65 286.715   1
   2   4   4 20018.7 677.510   1
   2  -4   4 19929.1 676.155   1
   2  -4   4 19634.4 670.568   7
   2   4   5 34882.8 1113.65   3
   2   4   5 36591.4 1171.39   1
   2  -4   5 36540.3 1170.78   1
   2  -4   5 35381.6 1113.97   3
   2  -4   5 34362.4 1162.91   7
   2  -4   6 5671.30 255.013   7
   2   4   6 5612.61 256.162   1
   2  -4   6 6052.30 260.462   1
   2   4   6 5908.33 203.843   3
   2  -4   6 5748.01 203.262   3
   2   4   6 5931.94 216.225  20
   2  -4   6 5957.60 215.566  19
  -2  -4  -6 5680.11 207.828  16
   2  -4   6 5855.54 212.405  12
   2  -4   7 8442.43 363.282   7
   2  -4   7 9097.02 301.102   3
   2   4   7 8480.15 363.017   1
   2  -4   7 8789.06 366.552   1
   2   4   7 8758.80 300.121   3
   2   4   7 8930.57 314.436  20
   2  -4   7 8879.13 312.198  19
  -2  -4  -7 8614.88 304.670  16
   2  -4   7 8928.71 310.143  12
   2  -4   8 2908.11 179.993   7
   2   4   8 2941.82 120.368   3
   2   4   8 2731.02 176.091   1
   2  -4   8 2929.92 179.942   1
   2  -4   8 2956.94 121.333   3
   2   4   8 3016.52 135.663  20
   2  -4   8 2985.96 132.634  19
  -2  -4  -8 2824.04 125.822  16
   2  -4   8 3009.53 130.198  12
   2  -4   9 1323.83 121.295   7
   2   4   9 1416.92 124.271   1
   2  -4   9 1368.92 122.169   1
   2  -4   9 1321.06 81.3613  19
   2   4   9 1297.18 84.8652  19
   2   4   9 1217.59 83.4072  20
   2  -4   9 1256.54 76.8156  12
  -2  -4 -10 1071.08 132.563   9
   2   4  10 1168.79 114.197   1
   2  -4  10 1211.49 114.435   1
   2  -4  10 1212.66 67.2923   4
   2   4  10 1185.07 66.6852   4
   2  -4  10 1110.20 73.4764  19
   2   4  10 1219.47 81.3362  19
   2   4  10 1315.89 82.4919  20
   2  -4  11 1474.26 73.2519   4
   2   4  11 1500.27 73.2741   4
   2  -4  11 1426.31 79.4535  19
   2   4  11 1512.73 86.1603  20
   2   4  11 1490.63 87.3795  19
   2  -4  12 254.100 28.4009   4
   2   4  12 242.962 28.5504   4
   2  -4  12 208.714 30.3858  19
   2   4  12 264.598 36.1707  20
   2   4  12 247.088 37.9149  19
   2   4  13 63.2144 21.4939  19
   2  -4  13 48.9657 15.5655  19
  -2  -5  14 30.4951 12.2783  15
   2  -5 -13 30.3213 17.8945   5
  -2   5  13 41.5123 18.1072   3
  -2  -5  13 27.6208 17.9693   3
   2   5 -13-2.15922 16.6504   5
   2  -5 -12 440.787 36.8681   5
  -2   5  12 392.053 37.3017   3
  -2  -5  12 434.202 37.6394   3
   2   5 -12 436.021 36.5042   5
  -2   5  11 73.9739 28.1850  19
   2   5 -11 17.4584 23.8058   5
   2  -5 -11 15.7675 25.1552   5
  -2   5  11 16.8767 26.6940   3
  -2  -5  11 23.9585 27.4916   3
   2   5 -10 49.5254 52.7671   2
   2   5 -10 8.25056 24.7362   5
   2  -5 -10 69.3725 51.9079   2
   2  -5 -10-8.37049 25.4236   5
  -2   5  10 16.0282 44.7776   7
  -2  -5  10 19.2058 52.0030   8
   2   5  -9 530.301 86.5579   2
   2  -5  -9 541.861 85.4732   2
   2   5  -9 466.247 40.5742   5
   2  -5  -9 454.225 40.7736   5
  -2   5   9 412.800 74.2428   7
  -2  -5   9 357.317 79.9655   8
   2  -5  -9 478.856 47.7884  13
   2  -5  -8 389.403 70.3855   2
   2   5  -8 361.646 70.7512   2
   2  -5  -8 289.312 75.1927   9
  -2  -5   8 336.553 73.7043   8
  -2   5   8 442.097 67.5926   7
   2  -5  -8 441.952 44.5790  13
   2  -5  -7 10358.2 414.812   2
   2   5  -7 10167.0 411.789   2
   2  -5  -7 10459.6 453.018   9
  -2  -5   7 9849.78 418.375   8
   2  -5  -7 9856.77 341.648  13
   2  -5  -6 4613.86 223.732   2
   2   5  -6 4707.35 223.324   2
   2  -5  -6 4878.03 261.683   9
   2  -5  -5 6227.50 259.530   2
   2   5  -5 5704.64 253.059   2
   2   5  -5 6123.74 208.198  11
   2  -5  -5 6172.34 209.236  11
   2  -5  -5 6034.43 294.118   9
   2   5  -4 674.855 63.1821   2
   2  -5  -4 731.108 65.7225   2
   2   5  -3 1360.89 79.0258   2
   2  -5  -3 1256.31 79.4171   2
   2   5  -2 966.936 60.5880   2
   2  -5  -2 929.146 59.9329   2
   2   5  -1 242.774 37.0835   1
   2  -5  -1 253.883 35.2595   1
   2  -5   0 3230.14 135.009   1
   2   5   0 3363.40 136.482   1
   2   5   1 8740.64 309.412   1
   2  -5   1 8803.65 309.273   1
   2   5   2 9819.39 358.314   1
   2  -5   2 10709.8 360.898   1
   2   5   3 5637.32 224.471   1
   2  -5   3 5687.27 223.546   1
   2  -5   4 1322.50 57.2370   4
   2   5   4 1413.52 91.5448   1
   2  -5   4 1348.41 88.4565   1
   2   5   4 1324.74 57.0601   4
   2  -5   4 1414.69 86.6811   7
   2   5   5 3327.02 166.445   1
   2  -5   5 3602.60 169.849   1
   2  -5   5 3117.97 159.014   7
   2  -5   6 159.785 48.0321   7
   2  -5   6 124.749 30.0656  12
   2  -5   6 159.188 47.8404   1
   2   5   6 186.943 27.3678   3
   2   5   6 200.573 50.4223   1
   2  -5   6 209.878 32.9057  19
   2   5   6 157.186 35.8030  20
  -2  -5  -6 139.293 29.4516  16
   2  -5   7 107.503 49.8827   7
   2  -5   7 191.660 35.8722  12
   2  -5   7 172.134 48.9166   1
   2   5   7 166.320 50.4133   1
   2  -5   7 238.919 38.1989  19
   2   5   7 153.069 40.9415  20
  -2  -5  -7 161.919 33.3120  16
   2  -5   8 395.176 71.1228   7
   2  -5   8 417.152 72.2342   1
   2   5   8 434.808 72.6841   1
   2  -5   8 306.308 42.4807  19
   2   5   8 311.451 49.7874  20
  -2  -5  -8 371.411 46.0218  16
   2  -5   8 401.408 46.9787  12
   2  -5   9 172.890 35.7677  12
   2  -5   9 152.753 31.5835   4
   2   5   9 95.9084 54.0547   1
   2  -5   9 182.514 58.4533   1
   2   5   9 121.111 31.4155   4
   2  -5   9 196.935 40.8495  19
   2   5   9 129.237 41.2781  20
   2   5  10 253.093 33.5746   4
   2  -5  10 228.876 33.9515   4
   2  -5  10 228.390 38.2084  19
   2   5  10 245.011 46.7761  19
   2   5  10 198.079 45.5262  20
   2   5  11 109.326 25.8281   4
   2  -5  11 114.560 25.1590   4
   2  -5  11 96.4023 30.2589  19
   2   5  11 153.321 40.5582  20
   2   5  11 107.893 37.1558  19
   2   5  12 389.416 30.8046   4
   2  -5  12 393.842 30.7872   4
   2   5  12 455.763 42.6742  20
   2   5  12 480.276 44.2111  19
   2  -5  12 394.922 35.4653  19
  -2   5 -13 114.818 14.3241   5
   2   5  13 161.188 23.2557  19
  -2  -6  14 232.977 17.2965  15
   2   6 -13 18.0244 12.9518   5
  -2  -6  13 27.0802 16.6991  15
  -2   6  12 605.779 40.5222   3
  -2  -6  12 627.520 39.9525   3
   2  -6 -12 645.798 40.5668   5
   2   6 -12 637.094 39.0374   5
   2   6 -11 120.342 26.6310   5
   2  -6 -11 97.9844 25.7288   5
  -2   6  11 65.9803 26.9752   3
  -2  -6  11 67.6606 26.3685   3
   2  -6 -10 1466.73 131.685   2
   2   6 -10 1448.18 73.5937   5
   2  -6 -10 1409.02 74.0035   5
  -2  -6  10 1515.21 137.363   8
  -2  -6  10 1428.59 128.624   7
   2  -6 -10 1598.77 84.1336  13
   2   6  -9 295.255 71.9258   2
   2   6  -9 328.054 34.2083   5
   2  -6  -9 244.948 63.8000   2
   2  -6  -9 344.368 35.8596   5
  -2  -6   9 296.587 74.5302   8
   2  -6  -9 332.922 43.6819  13
   2  -6  -8 688.337 88.2334   2
   2   6  -8 580.235 82.4857   2
   2  -6  -8 569.193 42.3770   5
   2   6  -8 610.868 42.5766   5
   2  -6  -8 782.858 115.116   9
  -2   6   8 568.420 75.3889   7
   2  -6  -8 629.250 52.6617  13
   2  -6  -7 921.768 94.1272   2
   2   6  -7 987.168 95.6061   2
   2   6  -7 884.287 48.0462   5
   2  -6  -7 796.294 47.7039   5
  -2   6   7 927.704 86.1231   7
   2  -6  -7 806.456 113.790   9
   2  -6  -7 854.050 55.7839  13
   2  -6  -6 306.410 57.3402   2
   2   6  -6 423.662 61.1156   2
   2  -6  -6 424.630 90.3342   9
  -2   6   6 366.925 51.4017   7
   2  -6  -6 380.234 36.5541  13
   2   6  -5 609.914 66.6784   2
   2  -6  -5 641.002 68.0321   2
   2  -6  -5 670.840 97.1213   9
   2  -6  -4 56.1370 30.4978   2
   2  -6  -4 40.9263 14.0639  11
   2   6  -3 19655.9 655.704   2
   2  -6  -3 19830.5 655.626   2
   2  -6  -3 19648.2 627.995  10
   2   6  -2 815.911 55.4451   2
   2  -6  -2 836.957 55.3357   2
   2   6  -1 4240.64 171.900   1
   2  -6  -1 4675.30 174.207   1
   2   6   0 311.025 35.8868   1
   2  -6   0 191.607 31.1032   1
   2  -6   1 729.390 51.5520   1
   2   6   1 629.804 49.8639   1
   2  -6   2 12205.2 411.670   1
   2   6   2 11617.8 410.466   1
   2  -6   3 297.309 43.4323   1
   2   6   3 387.157 45.8803   1
   2   6   4 3387.43 157.230   1
   2  -6   4 3370.83 156.482   1
   2  -6   4 3302.00 116.977   4
   2   6   4 3169.11 116.121   4
   2  -6   5 798.279 70.4307   7
   2   6   5 897.955 77.1404   1
   2  -6   5 875.462 77.3895   1
   2   6   5 906.478 45.9830   4
   2  -6   5 969.663 46.3286   4
   2   6   5 816.593 57.1569  20
  -2  -6  -5 804.656 51.4797  16
   2  -6   5 942.422 57.0090  12
   2  -6   6 5.11474 35.8748   7
   2  -6   6 11.9826 26.7828  12
   2   6   6 26.0032 20.3227   4
   2  -6   6 5.53353 18.5511   4
   2   6   6 68.4918 40.4160   1
   2  -6   6 22.5878 37.2525   1
   2  -6   6 9.57502 25.0788  19
   2   6   6 30.8618 29.4936  20
  -2  -6  -6-8.04248 26.0935  16
   2  -6   7 18.7476 30.6058  12
   2  -6   7-12.0527 41.4492   7
   2   6   7 15.6561 23.0505   4
   2  -6   7 31.6880 22.4450   4
   2  -6   7-6.50381 39.5078   1
   2   6   7 111.533 46.0177   1
   2  -6   7-2.62283 29.6456  19
   2   6   7 37.3027 34.8623  20
  -2  -6  -7 24.9774 30.1252  16
   2   6   8 3480.84 134.237   4
   2   6   8 3230.24 189.904   1
   2  -6   8 3261.36 191.356   1
   2  -6   8 3529.89 134.743   4
   2   6   8 3539.24 155.938  20
   2  -6   8 3459.35 148.577  19
  -2  -6  -8 3478.27 145.116  16
   2  -6   8 3353.66 147.397  12
   2   6   9 2096.73 93.4894   4
   2   6   9 1902.55 145.726   1
   2  -6   9 2132.52 93.8167   4
   2  -6   9 2071.27 146.624   1
   2   6   9 2241.93 114.159  20
   2  -6   9 2298.81 107.822  19
   2   6  10 1487.27 73.7084   4
   2  -6  10 1635.07 75.5772   4
   2  -6  10 1517.10 83.6970  19
   2   6  10 1728.54 94.3247  20
   2   6  10 1544.81 93.3198  19
   2   6  11 14.2291 20.2948   4
   2  -6  11-1.42188 20.6075   4
   2   6  11 7.51631 31.0168  20
   2   6  11 26.4714 32.8719  19
   2  -6  11 14.4144 25.2560  19
   2   6  12 360.930 37.9928  19
   2  -6  12 274.857 28.2614  19
   2   6  12 354.067 36.9241  20
   2   6  13 1294.78 58.2946  19
  -2  -7  13 2081.25 82.8073  15
   2  -7 -12 4599.71 171.414  10
  -2   7  12 4558.34 172.489  19
   2   7 -11 1059.08 54.0239   5
  -2   7  11 955.182 53.9299   3
  -2  -7  11 993.589 53.2021   3
   2  -7 -11 1001.30 53.8237   5
   2   7 -10 2001.02 87.8721   5
  -2   7  10 1968.00 89.3266   3
  -2  -7  10 2071.17 89.3952   3
   2  -7 -10 1996.80 89.8457   5
   2  -7 -10 2193.27 102.012  13
   2  -7  -9 511.678 80.6685   2
   2  -7  -9 609.403 43.2680   5
   2   7  -9 563.170 41.1956   5
   2  -7  -9 586.999 52.2791  13
   2   7  -8 730.405 86.5815   2
   2  -7  -8 548.233 81.3325   2
   2  -7  -8 777.275 46.6934   5
   2  -7  -8 862.947 123.590   9
   2  -7  -8 739.354 57.4498  13
   2  -7  -7 113.240 21.1783   5
   2   7  -7 85.4507 45.7603   2
   2  -7  -7 80.8979 43.6029   2
  -2  -7   7 123.678 56.2203   8
   2  -7  -7 60.1277 65.1944   9
   2  -7  -7 87.9634 31.2546  13
   2   7  -6 10735.6 411.397   2
   2  -7  -6 10621.5 412.327   2
   2  -7  -6 10682.1 480.460   9
   2  -7  -5 11490.0 430.057   2
   2   7  -5 12012.2 431.919   2
   2   7  -4 131.121 33.8480   2
   2  -7  -4 212.013 37.2894   2
   2  -7  -4 274.842 72.0722   9
   2  -7  -3 229.050 32.4272   2
   2   7  -3 198.716 31.6209   2
   2  -7  -3 255.685 26.0340  10
   2  -7  -2 7934.10 264.517  10
   2  -7  -1 9062.02 298.443  10
   2   7   0 14022.0 482.792   1
   2  -7   0 14326.2 482.340   1
   2  -7   0 14872.0 471.009  10
  -2  -7   0 14797.4 468.778  10
   2  -7   1 3302.89 133.925   1
   2   7   1 3288.52 135.064   1
  -2  -7  -1 3284.51 120.048  10
   2   7   2 22695.3 764.190   1
   2  -7   2 23968.7 765.674   1
   2   7   3 14290.2 511.702   1
   2  -7   3 15678.6 514.851   1
   2  -7   4 392.888 26.5592   4
   2  -7   4 363.819 49.1156   1
   2   7   4 312.674 46.1028   1
   2   7   5 3043.02 162.329   1
   2  -7   5 3509.00 168.359   1
   2  -7   5 3629.96 123.606   4
   2   7   5 3276.59 139.953  20
   2  -7   5 3329.20 138.437  19
  -2  -7  -5 3126.11 131.125  16
   2  -7   6 4217.36 146.811   4
   2   7   6 3942.48 196.665   1
   2  -7   6 4056.32 197.592   1
   2   7   6 3992.44 145.529   4
   2   7   6 4003.66 166.725  20
   2  -7   6 3946.01 161.304  19
   2  -7   6 4085.05 162.820  12
  -2  -7  -6 3839.86 156.808  16
   2  -7   7 2583.93 104.182   4
   2   7   7 2533.92 103.535   4
   2  -7   7 2581.01 154.252   1
   2   7   7 2507.17 154.055   1
   2  -7   7 2633.91 120.113  19
   2   7   7 2576.89 125.689  20
  -2  -7  -7 2605.10 116.708  16
   2  -7   7 2703.87 121.134  12
   2   7   8 2393.71 99.1224   4
   2  -7   8 2346.05 99.4319   4
   2  -7   8 2199.25 149.392   1
   2   7   8 2306.74 119.783  20
   2  -7   8 2489.41 115.203  19
  -2  -7  -8 2405.61 113.592  16
   2  -7   8 2522.94 118.686  12
  -2  -7  -9 6713.19 376.204   9
   2   7   9 7039.74 264.917  20
   2  -7   9 6937.40 256.171  19
   2  -7   9 7003.12 240.682   4
   2   7   9 6763.21 239.686   4
   2   7  10 79.8591 38.0475  20
   2  -7  10 9.50863 27.6655  19
   2   7  10 14.7696 20.7411   4
   2  -7  10 47.3668 20.5358   4
   2   7  11 55.6728 32.6955  20
   2  -7  11 38.7077 24.1199  19
   2   7  11 4.96878 30.8505  19
   2  -7  11 1.14646 9.91394   4
   2   7  12 375.272 37.3817  19
   2  -7  12 331.447 26.7119  19
   2   7  12 412.872 36.4661  20
   2   7  13 271.852 23.0836  19
   2  -8 -12 693.904 42.8747  10
  -2   8  12 903.672 48.9551  19
   2  -8 -11 305.419 35.4811  10
   2  -8 -10 7.35003 18.1993   5
   2  -8 -10 11.7079 31.8035  13
  -2  -8   9 1605.94 73.7316   3
   2  -8  -9 1672.63 75.7404   5
  -2  -8   9 1564.08 142.264   8
   2  -8  -9 1777.66 92.0426  13
  -2  -8   8 1935.78 156.413   8
   2  -8  -8 1897.49 95.5686  13
   2  -8  -7 1046.11 143.744   9
  -2  -8   7 898.142 105.842   8
   2  -8  -7 1133.55 68.5539  13
   2  -8  -6 1544.19 104.143   2
  -2  -8   6 1591.20 77.0807  15
   2  -8  -5 9811.67 378.735   2
   2  -8  -5 10441.6 467.310   9
  -2  -8   5 10604.2 350.079  15
   2  -8  -4 13406.0 474.429   2
   2  -8  -4 13958.8 455.506  10
  -2  -8   4 13932.1 455.162  15
   2  -8  -3 4081.12 149.219  10
   2  -8  -2 41.6392 20.4890  10
   2  -8  -1 34081.7 1059.70  10
  -2  -8   1 32980.4 1057.22  10
  -2  -8   0 21018.6 680.498  10
   2  -8   0 21687.5 683.062  10
  -2  -8  -1 207.947 24.3261  10
  -2  -8  -2 1167.15 58.2106  10
   2  -8   3 843.401 59.6700   1
   2  -8   4 3257.28 150.157   1
   2  -8   4 3364.11 135.157  19
   2   8   4 3179.37 135.350  20
   2  -8   4 3394.30 133.595  12
  -2  -8  -4 3065.14 129.620  15
   2  -8   5 1160.93 85.4171   1
   2  -8   5 1210.53 70.4512  19
   2   8   5 1017.29 71.9522  20
   2  -8   5 1222.86 69.5145  12
   2  -8   6 3246.09 137.217  19
   2   8   6 3174.22 142.450  20
  -2  -8  -6 3116.94 132.569  16
   2  -8   7 391.042 32.9471   4
   2  -8   7 368.798 46.0190  19
   2   8   7 516.230 56.0355  20
  -2  -8  -7 463.986 50.9191  16
   2  -8   7 497.616 51.8510  12
   2  -8   8 6682.83 238.911   4
   2   8   8 7181.38 267.162  20
   2  -8   8 6895.13 258.790  19
   2  -8   8 7369.39 265.244  12
  -2  -8  -8 7203.88 259.041  16
   2  -8   9 848.637 46.1396   4
   2   8   9 790.647 67.7918  20
   2  -8   9 896.171 61.6077  19
   2  -8   9 698.245 44.3022  15
   2   8  10 405.082 50.1310  20
   2  -8  10 332.000 38.8470  19
   2  -8  11 517.662 38.3320  19
   2   8  11 494.531 45.3947  20
   2   8  12 45.2335 21.1250  20
   2   8  12 16.8673 20.5251  19
  -2   9  12 8.85613 17.5340  19
   2  -9 -11 36.1581 21.9273  10
   2  -9 -10 847.483 58.3755  10
   2  -9 -10 1009.65 64.9074  13
   2  -9  -9 3027.81 129.823  10
   2  -9  -9 3113.34 131.985  13
  -2  -9   8 9.18800 45.5701   8
   2  -9  -8 25.9444 33.4816  13
   2  -9  -7 144.277 34.1404  10
  -2  -9   7 148.649 59.0668   8
   2  -9  -7 115.841 37.2964  13
   2  -9  -6 779.337 54.8240  10
  -2  -9   6 622.513 84.9574   8
   2  -9  -5 35.7607 22.8897  10
   2  -9  -4 1.79635 20.1489  10
   2  -9  -3 3.28182 20.5662  10
   2  -9  -3 22.2051 20.4448  14
   2  -9  -2 5769.74 203.377  10
   2  -9  -1 100.225 21.6635  10
  -2  -9   1 117.174 23.4633  10
   2  -9   0 796.638 46.8980  10
  -2  -9   0 767.759 72.5790   9
  -2  -9   0 803.782 45.3172  10
  -2  -9  -1 6.10153 37.5636   9
  -2  -9  -1 63.5475 21.2781  10
  -2  -9  -2 1866.74 80.2663  10
   2  -9   2 1803.65 86.4863  19
  -2  -9  -2 1708.60 79.9683  15
  -2  -9  -3 530.300 40.3288  10
   2   9   3 542.985 47.8576  20
   2  -9   3 585.955 46.8509  19
  -2  -9  -3 466.375 39.4115  15
   2  -9   3 565.577 44.6425  12
   2   9   4 1917.97 98.9244  20
   2  -9   4 2046.68 97.8023  19
  -2  -9  -4 1979.04 93.1803  15
   2  -9   4 2117.61 96.9104  12
   2  -9   5 4114.95 170.610  19
   2   9   5 4276.72 175.001  20
   2  -9   5 4374.29 171.923  12
   2   9   6 6797.16 251.893  20
   2  -9   6 6357.38 243.857  19
  -2  -9  -7 1063.97 143.208   9
   2  -9   7 925.352 65.6512  19
   2   9   7 1006.78 77.6388  20
  -2  -9  -8 214.507 82.5538   9
   2   9   8 195.019 45.9651  20
   2  -9   8 229.422 39.2407  19
   2   9   9 81.7486 38.2335  20
   2  -9   9 33.8274 26.7352  19
   2   9  10-34.0511 33.9903  19
   2   9  10 22.0439 32.2279  20
   2  -9  10-15.4774 22.8941  19
  -2  -9 -11 46.9256 20.7746  10
   2  -9  11 24.8239 16.7458  19
   2   9  11-5.39238 25.1646  20
  -2  10  12 113.902 18.5572  19
  -2 -10  12 125.931 17.8679  15
   2 -10 -11 428.637 35.2458  10
   2 -10 -10 510.262 44.6941  10
   2 -10 -10 725.665 52.6419  13
   2 -10  -9 8156.49 296.280  10
   2 -10  -9 8679.14 300.986  13
  -2 -10   8 1359.39 127.664   8
   2 -10  -8 1439.02 80.6860  10
   2 -10  -8 1544.04 85.0366  13
  -2 -10   7 1932.85 151.228   8
   2 -10  -7 2019.86 98.4437  10
   2 -10  -7 2078.29 101.443  13
   2 -10  -6 23.1346 27.3760  10
  -2 -10   6-8.03518 44.2100   8
  -2 -10   5 1193.17 108.230   8
   2 -10  -5 1281.40 70.2071  10
   2 -10  -4 1074.69 61.2759  10
   2 -10  -3 5.53716 21.4675  10
   2 -10  -2 588.621 42.3923  10
   2 -10  -2 552.741 43.4403  14
   2 -10  -1 6363.60 222.638  10
  -2 -10   1 6219.48 219.067  10
  -2 -10   1 6079.08 220.284  22
   2 -10  -1 6412.33 223.844  14
  -2 -10   0 993.847 54.1648  10
  -2 -10   0 1048.66 56.5098  22
  -2 -10  -1 98.1815 44.1450   9
  -2 -10  -1 68.9505 22.3253  10
  -2 -10  -1 42.7799 21.8716  22
   2 -10   2 130.451 24.4387  12
  -2 -10  -2 177.597 28.2594  10
  -2 -10  -2 159.758 54.0324   9
  -2 -10  -2 156.070 27.3519  22
  -2 -10  -3 3221.87 131.811  10
  -2 -10  -3 3250.81 209.768   9
   2 -10   3 3388.18 139.722  19
   2  10   3 3141.89 140.580  20
   2 -10   3 3404.89 135.512  12
  -2 -10  -4 1918.50 90.6687  10
  -2 -10  -4 1647.02 157.795   9
   2  10   4 1889.56 99.4561  20
   2 -10   4 1854.28 95.7732  19
  -2 -10  -4 1887.07 91.6457  15
   2 -10   4 1908.34 92.5251  12
  -2 -10  -5 21842.6 711.950  10
  -2 -10  -5 22213.3 857.606   9
   2  10   5 21720.9 722.520  20
   2 -10   5 20928.6 716.489  19
   2 -10   5 22452.0 718.424  12
  -2 -10  -6 408.183 103.177   9
   2 -10   6 355.879 45.6562  19
   2  10   6 315.552 52.7745  20
   2 -10   6 462.489 51.1101  12
  -2 -10  -7 1539.87 169.918   9
   2  10   7 1294.87 85.7673  20
   2 -10   7 1366.95 80.2887  19
   2  10   8 258.343 45.4401  20
   2 -10   8 261.753 39.1805  19
  -2 -10  -8 179.757 29.9221  13
   2 -10   9 276.120 36.3200  19
   2  10   9 334.449 47.0253  20
  -2 -10 -10 271.976 33.9959  10
   2  10  10 321.069 39.4533  20
   2  10  10 283.312 39.8198  19
  -2 -10 -11 446.758 33.5580  10
   2  10  11 446.368 37.1554  20
  -2 -11  12 179.202 16.8495  15
  -2 -11  11 123.689 21.0751  15
   2 -11 -10 243.446 30.8612  10
  -2 -11  10 281.522 31.2357  15
   2 -11 -10 269.837 37.0241  13
   2 -11  -9 995.214 62.5653  10
  -2 -11   9 1008.64 61.3206  15
   2 -11  -9 1115.84 67.8159  13
   2 -11  -8 52.0419 29.0842  10
   2 -11  -8 87.1555 36.3067  13
  -2 -11   8 68.1100 29.9421  15
  -2 -11   7 41.1972 43.2380   8
   2 -11  -7 118.951 31.1702  10
  -2 -11   7 79.9025 27.6533  15
   2 -11  -6 421.213 43.5849  10
  -2 -11   6 453.715 71.2272   8
  -2 -11   6 377.280 41.4523  15
  -2 -11   5 781.178 85.8504   8
   2 -11  -5 782.108 55.4704  10
  -2 -11   5 745.747 53.3488  15
  -2 -11   4 921.690 88.7936   8
   2 -11  -4 894.449 58.2406  10
  -2 -11   4 995.082 58.4560  15
   2 -11  -3 7575.25 267.200  10
   2 -11  -2 3502.33 140.704  10
  -2 -11   2 3600.72 139.408  22
   2 -11  -1 4192.87 159.043  10
  -2 -11   1 4218.65 157.492  22
   2 -11  -1 3960.31 160.188  14
  -2 -11   0 4827.80 177.523  10
  -2 -11   0 4767.77 178.859  22
  -2 -11  -1 30.1189 22.5818  10
  -2 -11  -1 13.7990 20.7488  22
  -2 -11  -2 6036.07 206.744  10
  -2 -11  -2 5445.42 205.693  22
   2 -11   2 5600.45 204.065  12
  -2 -11  -3 3944.08 152.251  10
  -2 -11  -3 3751.60 234.507   9
   2  11   3 3763.89 161.760  20
   2 -11   3 3895.23 153.461  12
  -2 -11  -4 402.125 91.4329   9
  -2 -11  -4 589.250 47.5994  10
   2  11   4 470.991 53.9216  20
  -2 -11  -4 462.667 46.6959  16
   2 -11   4 510.710 48.6414  12
  -2 -11  -5 6727.81 247.506  10
  -2 -11  -5 6245.22 356.991   9
   2  11   5 7035.09 259.666  20
   2 -11   5 6720.92 252.403  19
   2 -11   5 6773.31 251.971  12
  -2 -11  -5 6726.50 247.217  16
  -2 -11  -6 40.2222 29.6566  10
  -2 -11  -6 123.463 77.8026   9
   2 -11   6 19.4498 31.6426  19
   2  11   6 3.19008 40.5818  20
  -2 -11  -6 19.9935 35.7343  16
  -2 -11  -7 55.0117 32.8591  10
  -2 -11  -7 126.616 72.4255   9
   2  11   7 49.8954 37.4368  20
   2 -11   7 47.3729 31.7131  19
  -2 -11  -7 66.8584 38.1224  16
  -2 -11  -8 61.0265 30.1117  10
   2  11   8 88.2388 37.5190  20
   2 -11   8 109.206 30.4040  19
  -2 -11  -8 49.2590 25.7995  13
  -2 -11  -9 1319.70 70.8632  10
   2  11   9 1269.32 76.1544  20
  -2 -11 -10 689.281 44.6130  10
   2  11  10 717.326 50.7245  19
   2  11  10 774.319 50.9253  20
   2  11  11 300.475 25.9902  20
   2  11  11 275.748 27.8630  19
  -2 -12  11 10.5343 13.2092  15
   2 -12 -10 20.1134 18.9310  10
  -2 -12  10 39.8387 18.8508  15
   2 -12 -10 47.9957 25.9182  13
   2 -12  -9 1275.47 68.8598  10
   2 -12  -9 1358.67 73.4374  13
  -2 -12   9 1333.19 67.7748  15
   2 -12  -8 1217.94 70.7492  10
   2 -12  -8 1345.37 77.4087  13
  -2 -12   8 1279.95 70.1022  15
   2 -12  -7 3762.70 153.486  10
  -2 -12   7 3795.03 151.774  15
  -2 -12   6-22.2685 48.4329   8
   2 -12  -6 4.80417 27.0506  10
  -2 -12   6 57.5656 26.3151  15
  -2 -12   5 212.011 55.0780   8
   2 -12  -5 246.330 36.5540  10
  -2 -12   5 255.649 35.7705  15
   2 -12  -4 3863.52 154.029  10
  -2 -12   4 3769.55 152.274  15
   2 -12  -3 1149.97 67.5166  10
  -2 -12   3 1158.76 64.9739  22
  -2 -12   3 1223.77 67.7291  15
   2 -12  -2-6.60170 26.9062  10
  -2 -12   2 20.8683 22.7868  22
  -2 -12   2 21.1145 21.7375  15
   2 -12  -1 2281.88 104.166  10
  -2 -12   1 2416.62 102.167  22
  -2 -12   1 2132.63 100.174  15
  -2 -12   0 2309.60 100.016  10
  -2 -12   0 2266.46 101.835  22
  -2 -12   0 2201.94 101.458  15
  -2 -12  -1 25.0212 22.7681  10
  -2 -12  -1 21.3923 23.4514  22
  -2 -12  -1-2.18960 23.1376  15
  -2 -12  -2 32.2362 25.8735  10
  -2 -12  -3 391.009 40.5684  10
  -2 -12  -3 342.063 79.6300   9
   2  12   3 373.162 54.3935  20
  -2 -12  -3 392.157 43.6406  16
  -2 -12  -4 611.398 102.736   9
  -2 -12  -4 606.168 50.8357  10
   2  12   4 618.036 60.0087  20
  -2 -12  -4 599.584 53.4874  16
  -2 -12  -5 828.744 59.6250  10
  -2 -12  -5 656.858 109.206   9
   2  12   5 848.162 69.2576  20
  -2 -12  -5 799.800 60.5120  16
  -2 -12  -6 757.596 120.320   9
  -2 -12  -6 787.215 57.8460  10
   2  12   6 832.614 70.1929  20
  -2 -12  -6 824.780 62.1722  16
  -2 -12  -7 1535.31 82.0332  10
   2  12   7 1604.84 91.5869  20
  -2 -12  -7 1615.78 86.5153  16
  -2 -12  -8 142.761 30.4160  10
   2  12   8 161.257 40.4214  20
  -2 -12  -8 203.576 34.9932  16
  -2 -12  -8 184.317 28.0310  13
  -2 -12  -9 20.7250 21.0544  10
   2  12   9 12.2271 27.6826  20
   2  12  10 180.814 26.1862  20
   2  12  10 208.747 28.0127  19
   2  12  11 12.6582 12.3994  19
  -2  13  11 58.2146 14.1609  19
  -2 -13  11 39.9846 9.83907  15
  -2 -13  10 23.0949 15.2399  22
  -2 -13  10 21.9705 14.9360  15
   2 -13  -9 384.828 35.2295  10
  -2 -13   9 403.365 34.1994  15
   2 -13  -8 481.504 42.7322  10
   2 -13  -8 529.964 48.4111  13
  -2 -13   8 560.529 41.3707  15
   2 -13  -7 2139.16 97.3250  10
  -2 -13   7 1960.44 93.2194  15
   2 -13  -6 2068.38 99.2718  10
  -2 -13   6 2055.80 96.2408  15
   2 -13  -5 140.646 34.1438  10
  -2 -13   5 76.6605 28.0056  15
   2 -13  -4 3989.63 161.418  10
  -2 -13   4 4062.43 159.011  22
  -2 -13   4 4053.31 160.154  15
   2 -13  -3 147.328 32.7759  10
  -2 -13   3 125.611 30.0544  22
  -2 -13   3 125.775 27.6738  15
   2 -13  -2 3435.29 142.887  10
  -2 -13   2 3489.72 141.048  22
  -2 -13   2 3485.97 141.599  15
  -2 -13   1 1075.54 64.5406  22
  -2 -13   1 931.115 57.8397  14
  -2 -13   1 1108.10 64.1410  15
  -2 -13   0 448.665 42.0055  22
  -2 -13   0 444.622 43.1726  15
  -2 -13  -1 652.058 49.3769  10
  -2 -13  -1 501.852 46.3411  22
  -2 -13  -1 575.825 47.6880  15
  -2 -13  -2 1038.62 63.6699  10
  -2 -13  -2 1015.92 64.8073  15
  -2 -13  -3 4735.76 184.644  10
   2  13   3 5113.09 199.715  20
  -2 -13  -3 4818.45 186.485  16
  -2 -13  -3 4730.94 189.053  15
  -2 -13  -4 3814.00 160.295  10
   2  13   4 4157.82 175.848  20
  -2 -13  -4 4203.96 163.474  16
  -2 -13  -5 2804.85 123.486  10
   2  13   5 2974.80 136.260  20
  -2 -13  -5 2776.41 125.397  16
  -2 -13  -6 34.1412 27.1213  10
   2  13   6-14.7610 36.7772  20
  -2 -13  -6 34.3768 32.2316  16
  -2 -13  -7 478.617 43.1892  10
   2  13   7 620.464 55.1352  20
  -2 -13  -7 530.573 48.7806  16
  -2 -13  -8 163.125 28.9350  10
   2  13   8 148.939 34.6114  20
  -2 -13  -8 146.180 31.3661  16
  -2 -13  -8 152.833 25.9802  13
  -2 -13  -9 536.970 38.4036  10
   2  13   9 572.307 42.4512  19
   2  13  10 189.452 20.6996  20
   2  13  10 169.017 21.9344  19
  -2 -14  10 223.473 17.0817  22
  -2 -14  10 327.668 20.6331  15
  -2 -14   9 382.597 27.7837  22
   2 -14  -9 421.514 35.8244  13
  -2 -14   9 412.938 29.5832  15
   2 -14  -8 77.3722 24.1433  10
  -2 -14   8 91.3496 21.1858  22
  -2 -14   8 94.5748 21.9259  15
   2 -14  -7 15.9523 23.6774  10
  -2 -14   7 13.7139 20.4923  22
  -2 -14   7 12.6526 21.8911  15
   2 -14  -6 2095.77 98.5868  10
  -2 -14   6 2044.06 94.5026  22
   2 -14  -6 2236.26 102.501  13
  -2 -14   6 2096.44 95.9705  15
   2 -14  -5 6469.09 237.021  10
  -2 -14   5 6406.91 232.185  22
  -2 -14   5 6439.26 234.013  15
   2 -14  -4 2385.56 109.368  10
  -2 -14   4 2346.90 104.331  22
  -2 -14   4 2307.81 105.776  15
   2 -14  -3 916.107 61.2910  10
  -2 -14   3 934.238 58.1580  22
  -2 -14   3 918.690 60.7638  15
  -2 -14   2 288.820 37.0958  22
  -2 -14   2 272.342 35.0485  15
  -2 -14   2 225.012 31.9253  14
  -2 -14   1 365.749 41.3893  22
  -2 -14   1 397.173 37.4062  14
  -2 -14   1 340.848 41.2714  15
  -2 -14   0 7905.61 280.493  22
  -2 -14   0 8196.03 282.669  15
  -2 -14   0 7594.99 272.981  14
  -2 -14  -1 9517.01 334.335  10
  -2 -14  -1 9769.08 338.176  15
  -2 -14  -2 688.969 52.1384  10
   2  14   2 547.595 59.2834  20
  -2 -14  -2 662.658 54.1823  16
  -2 -14  -2 650.731 53.3345  15
  -2 -14  -3 32.3726 26.9417  10
   2  14   3 78.9690 39.2228  20
  -2 -14  -3 59.0524 32.9528  16
  -2 -14  -3 54.5422 31.1084  15
  -2 -14  -4 34.0588 26.7746  10
   2  14   4 114.823 40.5693  20
  -2 -14  -4 99.7183 33.5737  16
  -2 -14  -5 2274.88 106.279  10
   2  14   5 2470.65 121.091  20
  -2 -14  -5 2493.00 109.990  16
  -2 -14  -6 1738.94 87.3840  10
   2  14   6 1969.15 99.9614  20
  -2 -14  -6 2004.55 91.8263  16
   2  14   7 1990.36 93.6168  20
  -2 -14  -7 1938.21 87.1200  16
  -2 -14  -8-11.6059 19.6623  10
   2  14   8 31.3442 25.0136  20
  -2 -14  -8 46.2476 18.7516  13
   2  14   9 295.840 27.6483  20
   2  14   9 275.465 26.1427  19
  -2 -15   9 27.8511 11.7163  15
   2 -15  -9 61.6348 19.3420  13
   2 -15  -8 206.789 26.3603  10
  -2 -15   8 244.956 23.0450  22
  -2 -15   8 248.713 23.7600  15
   2 -15  -7 5.07759 20.2285  10
  -2 -15   7-6.91035 17.4749  22
  -2 -15   7 13.4381 18.4839  15
   2 -15  -6 355.682 37.6577  10
  -2 -15   6 312.861 31.8620  22
  -2 -15   6 352.832 34.1338  15
   2 -15  -6 402.340 41.1011  13
   2 -15  -5 5014.47 188.445  10
  -2 -15   5 4873.13 182.668  22
  -2 -15   5 5016.24 184.784  15
   2 -15  -4 33.8994 25.5508  10
  -2 -15   4 31.7321 24.0276  22
  -2 -15   4 12.4309 22.8999  15
  -2 -15   3 12.4079 22.9344  22
  -2 -15   3 5.43106 21.6384  14
  -2 -15   3 10.8318 23.5587  15
  -2 -15   2 217.350 32.1219  22
  -2 -15   2 178.593 32.5255  15
  -2 -15   2 192.851 29.0033  14
   2 -15  -2 235.718 38.5551  14
  -2 -15   1 8.69062 24.3741  22
   2 -15  -1 10.3598 32.1636  14
  -2 -15   1 43.3683 26.6440  15
  -2 -15   1 3.60414 21.5424  14
  -2 -15   0 81.1824 26.6713  22
  -2 -15   0 69.5617 27.8112  15
  -2 -15  -1 922.146 61.8226  15
  -2 -15  -2 1631.80 85.1946  10
   2  15   2 1916.57 99.7842  20
  -2 -15  -2 1689.78 90.3992  15
  -2 -15  -2 1784.09 88.0622  16
  -2 -15  -3 459.122 42.6813  10
   2  15   3 589.646 59.0951  20
  -2 -15  -3 485.519 45.8111  16
  -2 -15  -4 1852.76 90.6165  10
   2  15   4 2107.36 105.988  20
  -2 -15  -4 1943.53 92.0981  16
  -2 -15  -5 46.7895 24.4649  10
   2  15   5 53.7998 35.5252  20
  -2 -15  -5 28.9028 27.7008  16
  -2 -15  -6 5.19328 20.9027  10
   2  15   6 24.4726 30.9872  20
  -2 -15  -6 40.9120 26.9456  16
  -2 -15  -7 196.361 25.9969  10
   2  15   7 231.349 33.8707  20
  -2 -15  -7 245.224 29.6498  16
   2  15   8 106.216 22.9060  20
  -2 -15  -8 157.391 16.6522  13
   2 -15   9 1.87462 9.35640  14
  -2 -16   8 119.879 15.3133  15
  -2 -16   7-1.90831 12.5883  22
   2 -16  -7-5.55359 22.0650  13
  -2 -16   7-1.13052 14.6698  15
  -2 -16   7 9.82003 12.5825  14
  -2 -16   6 32.7143 16.7399  22
  -2 -16   6 46.3520 17.6164  14
   2 -16  -6 47.2476 27.1082  13
  -2 -16   6 45.2127 19.1345  15
  -2 -16   5 119.862 23.8862  22
  -2 -16   5 145.636 22.5157  14
  -2 -16   5 134.724 24.6636  15
   2 -16  -5 163.238 31.3099  13
  -2 -16   4 31.9515 21.1155  22
  -2 -16   4 56.1223 20.3583  14
  -2 -16   4 40.0593 21.9467  15
  -2 -16   3 1416.78 70.7943  22
  -2 -16   3 1443.30 73.0360  15
  -2 -16   3 1346.41 66.4213  14
  -2 -16   2 9.53236 22.1760  22
  -2 -16   2 14.2133 19.2489  14
  -2 -16   2 8.18224 23.7102  15
  -2 -16   1 162.598 29.4842  22
   2 -16  -1 125.807 34.9998  14
  -2 -16   1 172.766 30.9815  15
  -2 -16   0 1113.33 66.0136  15
   2 -16   0 1061.83 71.2417  14
   2  16   1 1002.95 72.5443  20
  -2 -16  -1 1138.65 63.8821  16
  -2 -16  -1 1022.77 63.6129  15
   2  16   2 356.473 46.8565  20
  -2 -16  -2 307.327 38.3076  16
   2  16   3 346.250 47.7118  20
  -2 -16  -3 286.619 36.2013  16
  -2 -16  -4 37.7084 21.9960  10
   2  16   4 47.9800 34.0810  20
  -2 -16  -4 53.9603 28.1596  16
  -2 -16  -5 104.405 22.3596  10
   2  16   5 88.6375 32.1157  20
  -2 -16  -5 137.802 27.6540  16
  -2 -16  -6 88.1663 20.7008  10
   2  16   6 85.3712 29.2053  20
  -2 -16  -6 119.554 25.0315  16
   2  16   7-2.41709 17.9429  20
  -2 -16  -7 7.10509 14.6601  13
   2 -16   7 10.3081 16.7103  14
   2 -16   8 232.321 18.5400  14
   2 -17  -7 550.251 32.6496  13
  -2 -17   7 503.203 26.7862  15
  -2 -17   6 68.3185 15.5592  15
   2 -17  -6 86.2099 22.0555  13
  -2 -17   5 653.719 39.3594  15
   2 -17  -5 688.305 43.4875  13
  -2 -17   4 507.917 35.2772  22
  -2 -17   4 594.356 38.7999  15
   2 -17  -4 562.498 40.4059  13
  -2 -17   3-12.8758 18.4597  22
  -2 -17   3 22.7168 19.8373  15
  -2 -17   2 1312.22 67.1965  15
  -2 -17   1 263.803 32.7234  15
   2 -17  -1 331.767 39.3877  14
   2  17   0 741.357 57.9043  20
  -2 -17   0 651.107 45.8541  16
  -2 -17   0 648.746 46.6621  15
   2 -17   0 729.535 53.5753  14
  -2 -17  -1 614.111 44.5568  16
  -2 -17  -1 570.494 45.7633  15
   2 -17   1 613.761 50.4540  14
   2  17   2 162.801 37.7735  20
  -2 -17  -2 157.060 27.5008  16
   2  17   3 647.105 50.8094  20
  -2 -17  -3 570.711 40.9360  16
   2  17   4 225.448 34.1317  20
  -2 -17  -4 195.466 27.2896  16
   2  17   5 6.20963 23.7817  20
  -2 -17  -5-24.6745 19.1881  16
   2  17   6 325.862 28.0626  20
   2 -17   7 4.86892 10.5250  14
   2 -18  -6 40.0405 13.2709  13
   2 -18  -5-29.9084 17.1838  13
  -2 -18   5 9.39598 10.7167  15
   2 -18  -4-7.10083 16.7434  13
  -2 -18   4 8.18112 13.0065  15
  -2 -18   3 358.457 28.6997  15
  -2 -18   2 353.634 30.2382  15
   2  18  -1-1.92668 28.7268  20
  -2 -18   1 9.87979 18.6216  15
   2  18   0 249.656 36.4945  20
   2  18   1 17.0461 28.2393  20
   2 -18   1-16.7390 22.5589  14
   2  18   2 1673.13 80.9525  20
   2 -18   2 1681.27 77.8505  14
   2  18   3 327.926 35.2326  20
   2  18   4 8.96931 18.9429  20
   2  18   5 34.0350 14.7023  20
   2  19  -4 59.4837 17.0130  20
   2  19  -3 11.7081 18.6800  20
   2  19  -2 407.593 33.9040  20
   2  19  -1 15.0001 21.4727  20
   2  19   0 541.745 38.9244  20
   2  19   1 67.2622 22.8450  20
   2  19   2 12.4168 19.1144  20
   2  19   3-2.56532 13.6914  20
   3   0 -14 106.068 18.0714   5
  -3   0  14 36.9751 11.6020  15
   3   0 -13 19.5910 22.0846   5
  -3   0  13-30.7218 21.4390   3
   3   0 -12 3248.73 132.508   5
   3   0 -11 27.3360 29.4885   5
  -3   0  10 390.450 69.7509   8
   3   0 -10 548.585 95.2615   2
   3   0 -10 450.205 45.7856   5
  -3   0   9 30.9181 41.1784   8
   3   0  -9-2.22329 26.5750   5
   3   0  -9 41.6652 51.6592   2
  -3   0   8 35.1674 41.0460   8
   3   0  -8-46.6404 55.9277   2
   3   0  -8 17.9673 22.5628   5
   3   0  -7 8.15896 24.1346  11
   3   0  -7-5.20480 18.4845   5
   3   0  -7 24.1427 51.3255   2
   3   0  -6 4390.44 162.795  11
   3   0  -6 4298.21 224.005   2
   3   0  -5 25.7088 20.4392  11
   3   0  -5-22.7175 46.2174   2
   3   0  -4 27173.9 865.972  11
   3   0  -4 27590.5 921.055   2
   3   0  -3 24.1941 41.3258   2
   3   0  -3 22.7231 44.8648   1
   3   0  -2 9634.30 368.063   1
   3   0  -2 10165.0 362.946   2
   3   0  -1 3.71472 41.5095   1
   3   0   0 104858. 3309.91   1
   3   0   1 7.45854 35.5387   1
   3   0   2 25860.2 817.104   4
   3   0   2 25905.5 865.559   1
   3   0   3-8.71610 19.3374   4
   3   0   3 22.6012 43.5221   1
   3   0   4 2881.96 108.112   4
   3   0   4 2664.45 152.247   1
   3   0   5-17.2055 23.7905   4
   3   0   5 17.8923 42.6272   1
   3   0   6 21584.4 722.716  20
   3   0   6 21296.1 722.074  21
   3   0   6 22192.5 725.952  19
   3   0   6 23406.0 715.818   4
   3   0   6 22446.6 792.921   1
   3   0   7-34.4777 22.4067  12
   3   0   7 7.85607 50.6847   1
   3   0   7 11.2989 26.9207   4
   3   0   7-4.72268 27.0795  21
   3   0   7-2.59028 29.2740  20
   3   0   8 5013.17 184.427   4
   3   0   8 5107.00 263.103   1
   3   0   8 4586.71 193.514  20
   3   0   9 2.19027 35.0687   4
   3   0   9-37.0628 63.7233   1
   3   0   9-15.0711 37.6576  20
   3   0   9 15.5672 36.3378  19
   3   0  10 1232.97 70.3873   4
   3   0  10 1205.34 78.6065  19
   3   0  11 20.5083 26.2169   4
   3   0  11-2.53618 31.3006  19
   3   0  12 82.6471 22.5848   4
   3   0  12 87.1379 28.4836  19
   3   0  13-9.07203 15.6003  19
   3   1 -14 39.5165 15.0712   5
  -3  -1  14 15.8039 10.6320  15
   3   1 -13 79.1652 24.1338   5
  -3   1  13 53.4768 23.4425   3
   3   1 -12 319.282 38.4171   5
   3   1 -11 131.645 32.8486   5
  -3  -1  10 503.300 80.8035   8
   3   1 -10 701.627 102.816   2
   3   1 -10 603.678 50.3995   5
  -3  -1   9 99.2904 50.9648   8
  -3   1   9 63.6142 42.4595   8
   3   1  -9 10.4147 57.3609   2
   3   1  -9 115.464 30.6549   5
  -3  -1   8 2056.44 147.719   8
  -3   1   8 1688.15 129.262   8
   3   1  -8 1996.38 161.874   2
   3   1  -8 2084.26 92.2547   5
   3   1  -7 20.3510 21.6954  11
   3   1  -7 32.9328 20.2434   5
   3   1  -7-8.04752 46.9679   2
   3   1  -6 317.058 32.9492  11
   3   1  -6 292.362 63.4765   2
   3   1  -5 3386.65 128.527  11
   3   1  -5 3440.00 181.848   2
   3   1  -4 4084.97 148.299  11
   3   1  -4 4191.63 194.358   2
   3   1  -3 23607.3 818.757   2
   3   1  -3 25364.2 830.659   1
   3   1  -2 8368.13 316.542   1
   3   1  -2 8039.13 307.243   2
   3   1  -1 647.459 70.5265   1
   3   1   0 11458.1 413.429   1
   3   1   1 12153.3 435.642   1
   3   1   2 6213.69 207.133   4
   3   1   2 6023.75 251.105   1
   3   1   3 1469.89 64.2003   4
   3   1   3 1604.51 107.045   1
   3   1   4 13625.6 492.029   1
   3   1   4 13218.1 431.949   4
   3   1   5 305.026 31.4141   4
   3   1   5 275.703 60.7290   1
   3  -1   6 1916.28 89.4331  12
   3   1   6 1967.01 91.3016  21
   3  -1   6 1821.89 92.8455  20
   3   1   6 1873.13 93.1873  20
   3   1   6 1907.24 93.7683  19
   3  -1   6 1986.62 93.1953  21
   3   1   6 2040.53 87.1618   4
   3   1   6 1987.35 140.295   1
   3  -1   7 615.586 48.5986  12
   3  -1   7 718.597 56.1438  20
   3   1   7 701.090 57.3917  20
   3   1   7 669.239 55.4532  19
   3   1   7 726.568 52.2604  21
   3  -1   7 630.571 51.2153  21
   3   1   7 715.425 50.7711   4
   3   1   7 652.833 87.0716   1
   3  -1   8-4.63673 25.2108  12
   3   1   8 22.8176 30.1283   4
   3   1   8 26.2108 53.7436   1
   3  -1   8 11.9723 32.6773  19
   3  -1   8-22.7534 35.6412  20
   3   1   8 2.92252 34.4635  20
   3   1   8 25.7402 26.0498  21
   3   1   9 1759.04 87.4108   4
   3   1   9 1588.57 139.716   1
   3  -1   9 1742.97 96.5182  19
   3  -1   9 1851.15 97.1146  20
   3   1   9 1714.12 99.1728  20
   3  -1   9 1432.84 80.4268  12
   3   1  10 19.0550 29.9880   4
   3  -1  10-5.82465 32.6713  19
   3   1  10 47.9125 36.1474  19
   3   1  11 51.5186 26.1943   4
   3  -1  11 77.2514 32.7589  19
   3   1  11 74.0444 34.7353  19
   3   1  12 1355.65 63.4772   4
   3  -1  12 1315.47 68.4522  19
   3   1  12 1386.87 71.6926  19
   3   1  13 18.2878 17.5070  19
   3  -1  13-6.52195 16.6158  19
   3   2 -14 514.888 28.5506   5
   3  -2 -14 556.189 29.3249   5
   3   2 -13 2474.92 99.1373   5
  -3   2  13 2427.93 98.5414   3
  -3  -2  13 2509.50 98.6480   3
   3  -2 -13 2324.51 98.2363   5
   3  -2 -12 1348.39 71.6466   5
   3   2 -12 1365.33 71.1847   5
   3  -2 -11 11.0111 28.6738   5
   3   2 -11 55.5418 29.9576   5
   3  -2 -10 7398.65 379.297   2
   3   2 -10 7886.34 386.415   2
   3  -2 -10 8035.17 278.163   5
   3   2 -10 7768.06 277.295   5
  -3  -2  10 6967.76 353.840   8
   3  -2  -9 1166.66 128.959   2
   3   2  -9 1102.11 126.994   2
   3   2  -9 1230.07 68.5288   5
   3  -2  -9 1119.67 66.5906   5
  -3  -2   9 1031.06 113.589   8
   3  -2  -8 4032.07 235.785   2
   3   2  -8 3904.22 232.110   2
   3   2  -8 4049.95 151.398   5
   3  -2  -8 3851.99 150.101   5
  -3  -2   8 3835.07 215.795   8
  -3   2   8 3346.40 190.869   8
   3   2  -7 815.493 95.6319   2
   3  -2  -7 808.047 96.6382   2
   3   2  -7 678.716 44.6432   5
   3  -2  -7 633.043 43.8283   5
   3   2  -7 741.586 50.1999  11
   3  -2  -7 630.180 47.0027  11
  -3   2   7 630.495 70.3754   8
   3   2  -6 33.8138 47.4741   2
   3  -2  -6 67.8667 49.4368   2
   3   2  -6 80.7591 24.5322  11
   3  -2  -6 59.8527 21.3439  11
   3   2  -5 3808.24 195.743   2
   3  -2  -5 3954.00 197.950   2
   3   2  -5 3851.68 144.488  11
   3  -2  -5 4004.10 145.879  11
   3   2  -4 455.425 62.8026   2
   3  -2  -4 415.202 59.8318   2
   3   2  -4 447.119 33.3003  11
   3  -2  -4 468.873 33.7515  11
   3  -2  -3 2763.19 146.790   1
   3   2  -3 2602.74 139.291   2
   3  -2  -3 2967.75 143.601   2
   3   2  -3 2674.54 144.872   1
   3   2  -2 11625.2 414.389   1
   3  -2  -2 11302.8 412.822   1
   3   2  -2 11255.4 404.675   2
   3  -2  -2 11081.3 405.085   2
   3   2  -1 2977.92 142.967   1
   3  -2  -1 2783.14 139.274   1
   3   2   0 11350.3 408.546   1
   3  -2   0 11279.3 407.071   1
   3  -2   1 1248.89 86.4720   1
   3   2   1 1237.83 87.9811   1
   3  -2   2 488.803 32.1030   4
   3  -2   2 623.028 63.7239   1
   3   2   2 505.118 32.3388   4
   3   2   2 637.651 64.6591   1
   3   2   3 17.6517 18.1961   4
   3  -2   3 32.5444 19.8400   4
   3  -2   3 76.6118 45.3463   1
   3   2   3 4.61211 39.1141   1
   3  -2   4 10335.0 343.192   4
   3   2   4 10852.0 403.596   1
   3  -2   4 10599.1 401.911   1
   3   2   4 10383.2 343.258   4
   3  -2   5 745.067 45.3135   4
   3   2   5 823.259 86.8692   1
   3  -2   5 674.867 80.5149   1
   3   2   5 765.397 46.3512   4
   3  -2   6 317.571 37.5952  12
   3  -2   6 492.706 38.2917   4
   3  -2   6 433.779 70.6639   1
   3   2   6 472.740 74.4638   1
   3   2   6 429.989 38.0585   4
   3   2   6 327.617 38.0896  21
   3   2   6 392.799 42.5189  20
   3  -2   6 360.339 41.8408  20
   3   2   6 404.060 42.1003  19
   3  -2   6 427.167 41.2920  21
  -3  -2  -6 385.474 35.5222  16
   3   2   7 13982.4 460.385   4
   3  -2   7 14404.8 460.998   4
   3   2   7 13866.0 543.414   1
   3  -2   7 13617.1 542.174   1
   3  -2   7 14114.8 474.409  19
   3  -2   7 14099.6 470.751  20
   3   2   7 14229.5 473.110  20
   3   2   7 14271.5 474.503  19
   3   2   7 12711.2 462.675  21
   3  -2   7 13504.1 465.330  12
   3   2   8 4531.81 252.833   1
   3  -2   8 4806.24 257.809   1
   3  -2   8 4872.37 182.083   4
   3   2   8 4671.81 180.717   4
   3   2   8 4820.67 194.377  20
   3  -2   8 5072.43 196.656  19
   3  -2   8 4887.68 192.034  20
   3  -2   8 4634.50 185.363  12
   3   2   9 7034.86 247.240   4
   3  -2   9 7066.98 247.657   4
   3   2   9 6778.87 329.273   1
   3  -2   9 6883.60 331.951   1
   3  -2   9 6805.48 259.075  19
   3  -2   9 6451.50 247.300  12
   3  -2  10 440.469 42.7587   4
   3   2  10 397.725 41.6307   4
   3  -2  10 395.051 49.3688  19
   3   2  10 378.063 51.3463  19
   3  -2  11-10.6731 24.4682   4
   3   2  11 7.09705 25.2448   4
   3   2  11 51.1558 31.3693  19
   3  -2  11-4.82172 27.5459  19
   3   2  12 313.274 29.2394   4
   3  -2  12 308.080 29.6330   4
   3   2  12 303.205 35.5326  19
   3  -2  12 327.361 34.5378  19
   3  -2  13 545.050 32.5453  19
   3   2  13 552.190 33.7156  19
   3   3 -14 1221.12 45.9852   5
   3  -3 -14 1210.08 46.1244   5
   3   3 -13 23.4933 20.3530   5
  -3   3  13-9.03331 20.5880   3
  -3  -3  13 17.8080 20.4436   3
   3  -3 -13 11.7165 20.0625   5
   3  -3 -12 116.202 27.9769   5
   3   3 -12 158.493 29.5104   5
   3   3 -11 413.446 42.6515   5
   3  -3 -11 447.197 42.7388   5
   3  -3 -10 1130.00 127.871   2
   3   3 -10 1360.66 140.126   2
   3   3 -10 1481.52 77.4876   5
   3  -3 -10 1492.99 79.0657   5
  -3   3  10 1199.52 124.187   7
  -3  -3  10 1462.25 134.743   8
   3  -3  -9 2160.08 174.383   2
   3   3  -9 2736.29 189.891   2
   3   3  -9 2399.18 107.190   5
   3  -3  -9 2397.77 107.133   5
  -3  -3   9 2499.71 178.990   8
   3  -3  -8-13.8005 24.3300   5
   3  -3  -8 9.12367 53.2420   2
   3   3  -8 25.5199 25.4013   5
   3   3  -8-18.2555 54.0004   2
  -3  -3   8-8.35929 48.0991   8
   3   3  -7 70.3970 22.2411   5
   3  -3  -7 57.1163 23.1031   5
   3  -3  -7 111.300 53.0455   2
   3   3  -7 39.4414 56.9318   2
   3   3  -7 78.4213 25.4997  11
   3  -3  -7 36.2975 27.5976  13
   3  -3  -6 2956.65 173.855   2
   3   3  -6 2842.13 172.596   2
   3   3  -6 2983.17 117.553  11
   3  -3  -6 2895.49 117.316  11
   3  -3  -5 1997.04 124.383   2
   3   3  -5 1699.39 118.326   2
   3  -3  -5 1705.95 76.1012  11
   3   3  -5 1665.45 75.3547  11
   3  -3  -4 3502.31 175.591   2
   3   3  -4 3494.40 175.084   2
   3   3  -4 3692.44 133.539  11
   3  -3  -4 3643.66 133.098  11
   3  -3  -3 986.759 83.2263   1
   3   3  -3 947.886 77.5601   2
   3  -3  -3 1009.18 79.4644   2
   3   3  -3 992.380 84.2701   1
   3   3  -2 2235.45 123.838   1
   3  -3  -2 2286.97 125.578   1
   3   3  -2 2331.00 121.332   2
   3  -3  -2 2277.93 119.305   2
   3  -3  -1 545.641 61.3518   1
   3   3  -1 420.695 56.4038   1
   3   3   0 13741.2 482.770   1
   3  -3   0 13638.3 481.119   1
   3   3   1 4041.24 181.630   1
   3  -3   1 4164.77 181.857   1
   3   3   2 6762.12 230.232   4
   3  -3   2 7033.04 230.581   4
   3  -3   2 7175.77 275.737   1
   3   3   2 7035.58 276.679   1
   3  -3   3 13457.4 427.286   4
   3   3   3 13598.7 481.950   1
   3  -3   3 13454.4 479.604   1
   3   3   3 12837.0 426.787   4
   3  -3   4 3579.64 131.363   4
   3   3   4 3502.09 180.627   1
   3  -3   4 3812.87 183.746   1
   3   3   4 3566.89 131.803   4
   3   3   5 571.871 39.3422   4
   3  -3   5 481.900 39.0427   4
   3   3   5 469.529 69.9974   1
   3  -3   5 493.112 71.2751   1
   3  -3   6 1542.40 78.2808  12
   3  -3   6 1585.58 73.6243   4
   3   3   6 1600.62 73.5682   4
   3   3   6 1557.37 121.382   1
   3  -3   6 1627.21 124.030   1
   3  -3   6 1472.90 78.5921  20
   3   3   6 1554.57 78.4698  21
   3   3   6 1465.05 82.2856  20
   3  -3   6 1445.49 79.9545  21
   3   3   6 1376.95 80.2595  19
  -3  -3  -6 1567.06 74.6092  16
   3   3   7 15133.2 498.522   4
   3  -3   7 15708.7 499.771   4
   3   3   7 14847.1 581.407   1
   3  -3   7 15495.4 585.403   1
   3  -3   7 14861.8 509.117  20
   3   3   7 14678.5 512.369  20
   3  -3   7 15608.5 513.438  19
   3   3   7 15000.5 513.066  19
  -3  -3  -7 14796.8 501.036  16
   3  -3   7 15074.2 507.382  12
   3   3   8 19839.3 646.453   4
   3  -3   8 20115.8 646.928   4
   3   3   8 19449.8 738.417   1
   3  -3   8 19130.0 737.083   1
   3  -3   8 19871.0 660.713  19
   3   3   8 20174.3 663.069  19
   3  -3   8 19250.6 653.288  12
   3  -3   9 54.1503 28.9704  12
   3   3   9 31.5476 31.5345   4
   3  -3   9 61.2717 31.3436   4
   3   3   9 116.257 52.2129   1
   3  -3   9 35.6166 57.4690   1
   3  -3   9 48.1441 34.6672  19
   3   3  10 43.8600 28.6452   4
   3  -3  10 32.0552 28.1862   4
   3  -3  10 13.9252 31.6035  19
   3   3  11 40.2428 25.6629   4
   3  -3  11 28.6150 23.7589   4
   3   3  11 60.1022 34.1232  20
   3   3  11 40.3491 31.7222  19
   3  -3  11 51.0377 30.2992  19
   3   3  12 316.275 28.9741   4
   3  -3  12 303.099 27.7746   4
   3   3  12 323.876 35.8413  19
   3  -3  12 305.025 32.9248  19
   3   3  13 241.590 23.5446  19
   3  -3  13 239.157 21.3770  19
  -3  -4  14 899.564 38.8198  15
  -3   4  13 3776.42 140.053   3
  -3  -4  13 3947.84 140.422   3
   3  -4 -13 4177.12 141.546   5
   3   4 -13 4111.54 141.063   5
  -3  -4  13 3607.29 141.519  15
  -3   4  12 1443.74 72.5336   3
  -3  -4  12 1522.53 72.3257   3
   3  -4 -12 1609.14 73.7684   5
   3   4 -12 1488.43 72.5763   5
   3   4 -11 9.98008 25.4644   5
   3  -4 -11 20.0240 25.6939   5
   3   4 -10 40.7638 27.2406   5
   3  -4 -10 29.7640 49.2214   2
   3   4 -10 9.97057 52.2394   2
   3  -4 -10 45.3016 28.4923   5
  -3  -4  10 113.239 57.3327   8
  -3   4  10 41.1720 50.6699   7
   3  -4  -9 1819.39 154.710   2
   3   4  -9 1761.80 154.480   2
   3   4  -9 1800.35 87.3017   5
   3  -4  -9 1876.15 88.9033   5
  -3  -4   9 1957.73 155.946   8
   3   4  -8 934.371 105.631   2
   3  -4  -8 1054.31 112.255   2
   3   4  -8 886.106 55.3817   5
   3  -4  -8 882.891 55.3428   5
  -3  -4   8 874.070 104.587   8
   3  -4  -8 1015.05 63.4785  13
   3   4  -7 696.013 88.9154   2
   3  -4  -7 608.140 85.3286   2
   3   4  -7 689.047 44.5624   5
   3  -4  -7 671.982 44.6860   5
   3  -4  -6 552.304 75.1939   2
   3   4  -6 585.605 74.9513   2
   3   4  -6 634.640 42.9933  11
   3  -4  -6 561.461 40.7231  11
   3  -4  -5 8115.33 321.043   2
   3   4  -5 7470.67 314.671   2
   3  -4  -5 7426.11 259.550  11
   3   4  -5 7737.46 260.172  11
   3   4  -4 16414.8 570.090   2
   3  -4  -4 16179.2 569.437   2
   3  -4  -4 15491.9 517.317  11
   3   4  -4 16483.0 518.944  11
   3   4  -3 47.6479 37.0425   2
   3  -4  -3 35.9256 35.5832   2
   3   4  -3-14.1780 18.0617  11
   3  -4  -3 17.7506 15.9915  11
   3   4  -2 23860.6 812.916   1
   3   4  -2 24354.4 805.982   2
   3  -4  -2 24244.7 805.426   2
   3  -4  -2 24149.7 813.751   1
   3  -4  -1 471.152 56.1486   1
   3   4  -1 450.043 57.0542   1
   3   4   0 24987.6 841.100   1
   3  -4   0 25475.0 841.320   1
   3  -4   1 10445.6 371.722   1
   3   4   1 9663.64 369.391   1
   3   4   2 22743.7 736.992   4
   3  -4   2 23256.0 737.116   4
   3   4   2 24093.1 788.828   1
   3  -4   2 25072.0 789.252   1
   3   4   3 16570.2 540.447   4
   3  -4   3 17219.5 540.757   4
   3   4   3 16255.6 592.786   1
   3  -4   3 17276.0 594.501   1
   3  -4   4 16567.1 538.672   4
   3   4   4 16692.4 539.134   4
   3   4   4 17017.5 600.729   1
   3  -4   4 17307.1 601.448   1
   3  -4   5 436.030 40.2126  12
   3   4   5 442.849 35.5190   4
   3  -4   5 391.205 33.6561   4
   3   4   5 412.439 66.8335   1
   3  -4   5 375.366 63.3559   1
   3   4   5 432.080 44.8829  20
   3  -4   5 404.681 40.3183  21
  -3  -4  -5 405.098 36.1823  16
   3  -4   6 796.236 57.6023  12
   3   4   6 1003.83 54.5434   4
   3   4   6 923.611 93.9330   1
   3  -4   6 935.709 94.0965   1
   3  -4   6 939.629 53.3536   4
   3   4   6 847.656 62.7885  20
   3  -4   6 801.868 60.1044  19
  -3  -4  -6 896.114 55.8659  16
   3  -4   7 139.854 33.6722  12
   3   4   7 150.350 30.3268   4
   3  -4   7 143.368 30.2562   4
   3   4   7 227.134 59.2039   1
   3  -4   7 186.862 57.8740   1
   3   4   7 150.012 38.2639  19
   3  -4   7 164.985 38.2419  19
  -3  -4  -7 160.988 34.0021  16
   3  -4   8 383.442 44.7346  12
   3  -4   8 472.159 43.4477   4
   3   4   8 345.664 39.1438   4
   3   4   8 347.238 72.7433   1
   3  -4   8 277.718 68.4885   1
   3   4   8 300.169 48.5234  19
   3  -4   8 423.870 49.5259  19
   3   4   9 2374.53 167.583   1
   3  -4   9 2420.98 168.673   1
   3   4   9 2285.16 103.024   4
   3  -4   9 2306.71 103.904   4
   3  -4   9 2280.34 114.811  19
   3   4   9 2380.30 118.994  19
   3  -4   9 2464.06 111.961  12
   3  -4  10 99.7977 29.0667   4
   3   4  10 72.9675 28.1864   4
   3  -4  10 91.6774 36.4263  19
   3   4  10 52.6417 39.2887  20
   3   4  11-1.54540 22.1991   4
   3  -4  11 35.6892 22.5941   4
   3  -4  11 19.8793 26.5785  19
   3   4  11 24.2809 32.3846  20
   3   4  12 262.542 25.0095   4
   3  -4  12 261.001 25.4133   4
   3  -4  12 343.559 31.9787  19
   3   4  12 253.504 32.7616  19
   3   4  13 110.797 18.3262  19
   3   5 -13 2596.02 96.5918   5
   3  -5 -13 2704.24 97.7245   5
  -3  -5  13 2629.65 101.370  15
   3   5 -12 8.62745 20.0738   5
  -3   5  12 7.18853 22.5484   3
  -3  -5  12 1.40163 22.3597   3
   3  -5 -12 13.2268 20.4669   5
   3   5 -11 597.401 44.8269   5
   3  -5 -11 643.599 46.3798   5
   3   5 -10 46.1277 25.0737   5
   3  -5 -10 14.2651 24.3740   5
  -3  -5  10 38.1363 55.6450   8
   3   5  -9 104.279 28.3020   5
   3  -5  -9 104.153 27.8410   5
   3  -5  -9 37.1875 48.7933   2
   3   5  -9 92.3547 52.4689   2
  -3  -5   9 87.4315 57.5572   8
  -3   5   9 174.089 54.6848   7
   3  -5  -8 1311.28 122.576   2
   3   5  -8 1143.95 114.687   2
   3   5  -8 1120.31 62.5378   5
   3  -5  -8 1100.73 62.1291   5
  -3  -5   8 1061.99 116.362   8
   3  -5  -8 1151.32 71.3436  13
   3   5  -7 4149.89 226.024   2
   3  -5  -7 4214.83 227.023   2
   3   5  -7 4229.54 156.378   5
   3  -5  -7 4179.25 157.133   5
   3  -5  -6 4331.18 214.976   2
   3   5  -6 4134.94 211.027   2
   3   5  -6 4122.94 148.866   5
   3  -5  -6 4051.58 149.204   5
   3  -5  -6 3831.47 150.935  11
   3   5  -6 4182.30 152.432  11
   3  -5  -6 4054.72 156.761  13
   3  -5  -5 1084.12 92.3490   2
   3   5  -5 948.433 86.4065   2
   3   5  -5 1032.44 52.9985  11
   3  -5  -5 934.796 51.3208  11
   3   5  -4 227.754 44.5280   2
   3  -5  -4 271.763 48.0369   2
   3   5  -4 230.018 25.1083  11
   3  -5  -4 188.404 22.8462  11
   3  -5  -4 182.573 20.2888  10
   3   5  -3 35.5269 30.2409   2
   3  -5  -3 39.5811 31.9875   2
   3   5  -3 37.6741 16.8087  11
   3  -5  -3 10.6033 14.9614  11
   3   5  -2 1643.19 101.498   1
   3  -5  -2 1543.56 98.1429   1
   3   5  -1 108.789 39.1893   1
   3  -5  -1 74.0814 37.2615   1
   3   5   0 10455.7 389.259   1
   3  -5   0 11030.1 391.053   1
   3   5   1 5770.03 237.109   1
   3  -5   1 5754.72 236.351   1
   3   5   2 7071.66 287.729   1
   3  -5   2 7618.76 291.290   1
   3   5   3 5465.35 189.475   4
   3   5   3 5702.55 240.717   1
   3  -5   3 5551.20 189.701   4
   3  -5   3 5726.92 239.558   1
   3   5   4 2969.17 111.258   4
   3  -5   4 2886.71 110.760   4
   3   5   4 2912.93 158.742   1
   3  -5   4 2977.54 159.222   1
   3  -5   5 7559.24 268.519  12
   3   5   5 7471.90 257.183   4
   3  -5   5 7825.16 258.075   4
   3   5   5 7625.76 320.279   1
   3  -5   5 7311.50 317.411   1
   3  -5   5 7910.02 273.029  19
   3   5   5 7221.17 271.624  20
  -3  -5  -5 7368.57 261.950  16
   3   5   6 1280.50 64.5648   4
   3  -5   6 1256.34 64.7006   4
   3   5   6 1319.41 111.738   1
   3  -5   6 1440.01 113.756   1
   3  -5   6 1347.08 76.8788  19
   3   5   6 1276.49 78.5783  20
   3  -5   6 1305.72 73.2311  12
  -3  -5  -6 1261.79 69.9445  16
   3  -5   7 5449.36 194.078   4
   3   5   7 5405.22 264.141   1
   3  -5   7 5405.06 264.872   1
   3   5   7 5434.50 194.212   4
   3  -5   7 5498.98 209.637  19
   3   5   7 4848.01 206.115  19
  -3  -5  -7 5106.47 199.966  16
   3  -5   7 5413.35 207.686  12
   3   5   8 10174.1 350.141   4
   3  -5   8 10047.1 350.456   4
   3   5   8 9609.93 428.225   1
   3  -5   8 10291.7 433.749   1
   3   5   8 10298.8 369.024  19
   3  -5   8 10439.0 366.929  19
   3  -5   8 10804.5 365.060  12
  -3  -5  -8 10642.4 360.125  16
   3  -5   9 158.970 38.2033  12
   3   5   9 94.9811 29.3219   4
   3  -5   9 80.4930 27.5103   4
   3  -5   9 106.590 47.9498   1
   3   5   9 66.0120 54.5209   1
   3   5   9 125.270 40.9854  19
   3   5   9 72.3119 41.1447  20
   3  -5   9 110.561 36.9202  19
   3   5  10 51.2990 24.0164   4
   3  -5  10 48.2218 26.0854   4
   3  -5  10 12.9768 30.8362  19
   3   5  10 28.5822 37.9322  20
   3   5  11 2.75565 19.5641   4
   3  -5  11 15.1946 19.3357   4
   3  -5  11 30.8962 26.3541  19
   3   5  11 34.7625 32.6674  20
   3  -5  12 43.9520 19.9505  19
   3   5  13 19.8415 12.1226  19
  -3  -6  13 458.826 30.6536  15
  -3   6  12 2317.26 93.9117   3
  -3  -6  12 2328.47 92.7283   3
   3   6 -12 2409.36 93.2666   5
   3  -6 -12 2451.15 94.5722   5
  -3  -6  12 2467.69 101.085  15
   3  -6 -11 705.196 46.5158   5
   3   6 -11 714.652 45.6927   5
   3   6 -10 136.230 26.8205   5
   3  -6 -10 155.477 28.8697   5
   3  -6  -9 798.566 101.139   2
   3   6  -9 923.287 104.143   2
   3   6  -9 898.155 54.7244   5
   3  -6  -9 970.717 56.9120   5
  -3  -6   9 984.337 113.665   8
   3  -6  -9 931.064 67.3201  13
   3   6  -8 3043.35 186.570   2
   3  -6  -8 3155.04 192.399   2
   3   6  -8 2993.97 120.292   5
   3  -6  -8 2892.61 120.203   5
  -3  -6   8 2974.58 198.990   8
   3  -6  -8 3110.76 132.029  13
   3  -6  -7 892.943 94.9676   2
   3   6  -7 961.936 96.3924   2
   3   6  -7 953.927 51.7146   5
   3  -6  -7 877.224 51.7984   5
   3   6  -6 2776.55 106.502   5
   3   6  -6 2810.99 161.900   2
   3  -6  -6 2802.36 163.269   2
   3  -6  -6 2594.10 106.148   5
   3  -6  -6 2799.81 116.662  13
   3   6  -5 9699.24 371.811   2
   3  -6  -5 9759.62 373.536   2
   3  -6  -5 8987.38 314.114  10
   3   6  -5 9718.06 316.909  11
   3  -6  -5 9384.76 316.551  11
   3  -6  -5 9818.84 322.953  13
   3   6  -4 4967.49 207.847   2
   3  -6  -4 4959.84 208.023   2
   3  -6  -4 4271.15 157.767  10
   3   6  -4 4641.07 160.188  11
   3  -6  -4 4457.79 159.683  11
   3   6  -3 2906.69 143.283   2
   3  -6  -3 3171.00 146.211   2
   3  -6  -3 2894.76 106.731  10
   3  -6  -3 2792.33 107.436  11
   3   6  -3 3028.86 108.932  11
   3  -6  -2 4217.53 151.588  10
   3  -6  -2 4651.93 153.976  11
   3   6  -1 719.366 64.4002   1
   3  -6  -1 754.703 65.1790   1
   3   6   0 5228.34 219.234   1
   3  -6   0 5460.13 220.868   1
   3   6   1 374.759 49.5249   1
   3  -6   1 297.683 46.8349   1
   3   6   2 2492.26 133.883   1
   3  -6   2 2559.83 135.338   1
   3   6   3 329.734 50.9250   1
   3  -6   3 368.280 52.6659   1
   3   6   4 318.144 56.7465   1
   3   6   4 378.187 30.3654   4
   3  -6   4 383.211 30.4077   4
   3  -6   4 282.541 52.1513   1
   3   6   4 241.144 37.8672  20
   3  -6   4 328.028 39.6353  19
  -3  -6  -4 363.854 36.4706  16
   3  -6   5 1206.10 70.4117  12
   3   6   5 1075.12 56.6560   4
   3  -6   5 1226.77 59.3141   4
   3   6   5 1214.81 100.122   1
   3  -6   5 1069.42 96.0672   1
   3   6   5 1144.85 73.5188  20
   3  -6   5 1402.61 74.8702  19
  -3  -6  -5 1154.70 65.6333  16
   3   6   6 11883.6 399.136   4
   3  -6   6 12332.9 400.163   4
   3   6   6 12091.8 472.581   1
   3  -6   6 11851.7 470.777   1
   3  -6   6 12416.0 418.524  19
  -3  -6  -6 11957.3 409.359  16
   3  -6   6 11789.3 415.056  12
   3  -6   7-19.9726 30.1447  12
   3  -6   7 7.46149 44.7353   1
   3   6   7-6.97542 23.1935   4
   3  -6   7-10.5449 24.1131   4
   3   6   7-7.51351 45.6361   1
   3  -6   7 23.6236 32.1103  19
  -3  -6  -7 23.8966 30.6580  16
   3  -6   8 46.7244 34.2017  12
   3   6   8 15.6972 44.6015   1
   3  -6   8 124.810 51.5353   1
   3   6   8 93.5458 28.5707   4
   3  -6   8 92.8402 27.8023   4
   3  -6   8 152.616 42.1723  19
   3   6   8 109.332 46.4761  20
   3   6   8 88.0052 37.5474  19
  -3  -6  -8 122.351 37.0997  16
   3   6   9 2498.15 106.483   4
   3  -6   9 2476.34 106.778   4
   3   6   9 2650.48 128.391  20
   3   6   9 2545.60 125.587  19
   3  -6   9 2685.80 122.602  19
   3  -6   9 2818.11 122.473  12
   3   6  10 550.274 39.6910   4
   3  -6  10 573.458 40.4037   4
   3  -6  10 593.562 51.9436  19
   3   6  10 605.998 59.3213  20
   3   6  10 636.075 56.0173  19
   3   6  11 258.394 24.8263   4
   3  -6  11 221.639 24.1698   4
   3   6  11 301.741 40.2783  20
   3  -6  11 229.258 33.6150  19
   3  -6  12 526.691 33.8983  19
  -3  -7  13 972.328 45.5030  15
  -3  -7  12 1269.14 62.9352  15
   3  -7 -11 1370.38 64.8925   5
  -3  -7  11 1367.46 63.1819   3
   3   7 -11 1392.73 63.5264   5
  -3  -7  11 1489.79 73.2019  15
   3  -7 -10 23.1485 21.2828   5
   3   7 -10 21.9870 20.3883   5
   3  -7 -10 14.4694 18.3760  10
  -3  -7  10 22.4857 26.2507  15
   3   7  -9-6.72477 21.3203   5
   3  -7  -9 14.0690 20.0212   5
   3  -7  -9 20.7085 33.4955  13
   3  -7  -8-7.57894 51.0897   2
   3   7  -8 41.1058 21.0826   5
   3  -7  -8 66.8177 23.0134   5
   3  -7  -8 53.9115 35.5161  13
   3  -7  -7 67.7288 20.6780   5
   3   7  -7 46.9306 39.7286   2
   3  -7  -7 137.308 46.3173   2
   3  -7  -6 200.955 24.1736   5
   3   7  -6 198.670 48.3120   2
   3  -7  -6 232.563 52.2675   2
   3  -7  -6 177.506 26.2628  10
  -3  -7   6 226.370 29.9175  15
   3  -7  -6 234.946 34.2566  13
   3   7  -5 552.859 62.4416   2
   3  -7  -5 529.637 63.0242   2
   3  -7  -5 465.008 33.6677  11
   3  -7  -5 508.353 36.5573  10
   3  -7  -5 505.120 42.3919  13
  -3  -7   5 523.726 39.8502  15
   3   7  -4 2336.33 124.795   2
   3  -7  -4 2023.81 118.819   2
   3  -7  -4 2017.46 84.6099  11
   3  -7  -4 2161.59 87.1327  10
  -3  -7   4 2334.01 93.0660  15
   3  -7  -3 808.996 42.3431  10
   3  -7  -3 691.637 38.7007  11
   3  -7  -2 1364.78 60.6832  10
   3  -7  -1 99.3441 34.5185   1
   3   7  -1 124.732 34.9686   1
   3  -7  -1 121.657 20.0216  10
   3   7   0 84.8881 33.1899   1
   3  -7   0 77.5294 30.5713   1
   3   7   1 7537.48 295.882   1
   3  -7   1 7939.72 297.143   1
   3   7   2 34.5830 36.0039   1
   3  -7   2 128.663 40.2989   1
  -3  -7  -2 78.8937 19.5222  10
   3  -7   3 1119.01 61.2422  12
   3   7   3 1078.36 85.8258   1
   3  -7   3 1180.36 87.1850   1
   3   7   3 1031.33 64.0673  20
  -3  -7  -3 983.496 56.8148  15
   3  -7   4 53.5840 26.9394  12
   3   7   4 26.3933 35.6296   1
   3  -7   4 42.1219 34.4147   1
   3   7   4 125.650 35.1146  20
   3  -7   4 86.7416 30.2733  19
  -3  -7  -4 69.7528 27.6419  16
   3   7   5 227.490 50.8588   1
   3  -7   5 254.956 51.0420   1
   3  -7   5 296.616 28.9928   4
   3   7   5 278.746 28.2241   4
   3  -7   5 299.848 42.7116  19
  -3  -7  -5 309.284 37.3755  16
   3  -7   6 2.77349 31.9206  12
   3   7   6 13.3012 37.7196   1
   3  -7   6 19.7908 33.3426   1
   3   7   6 19.8479 21.2141   4
   3  -7   6 27.9885 21.4990   4
   3  -7   6 23.1205 33.1430  19
  -3  -7  -6-11.6516 30.1571  16
   3   7   7 6094.52 218.703   4
   3  -7   7 5955.80 218.642   4
   3  -7   7 5859.13 286.157   1
   3  -7   7 6362.41 240.667  19
   3   7   7 6488.61 243.958  20
  -3  -7  -7 6389.54 233.118  16
   3  -7   7 6673.36 240.097  12
   3  -7   8 638.053 44.0174   4
   3   7   8 666.631 44.5235   4
   3   7   8 600.913 59.7388  19
   3  -7   8 618.412 57.2145  19
   3   7   8 635.820 64.2460  20
  -3  -7  -8 615.687 56.2646  16
   3  -7   8 607.411 56.7011  12
   3   7   9 1337.39 67.7261   4
   3  -7   9 1354.66 68.4752   4
   3  -7   9 1514.47 83.8870  19
   3   7   9 1647.58 92.2014  20
   3   7   9 1652.92 90.5765  19
   3  -7   9 1524.81 84.2702  12
   3  -7  10 87.5504 19.1296   4
   3   7  10 104.222 39.3859  20
   3   7  10 112.383 34.6556  19
   3  -7  10 131.893 30.8089  19
   3   7  11 61.4726 29.9033  20
   3  -7  11 113.661 25.7541  19
   3   7  11 41.0121 26.2124  19
   3  -7  12 1027.33 46.4436  19
  -3  -8  13 138.231 15.1817  15
  -3  -8  12 90.2757 20.2805  15
  -3  -8  11 170.147 28.3856  15
   3  -8 -10 1266.36 69.4804  10
  -3  -8  10 1802.31 81.6599  15
   3  -8  -9 2614.95 106.486   5
  -3  -8   9 2421.09 184.808   8
   3  -8  -9 2485.60 111.801  10
   3  -8  -9 2907.23 125.082  13
  -3  -8   9 2905.35 120.201  15
   3  -8  -8 4456.11 166.712   5
   3  -8  -8 4579.71 174.144  10
  -3  -8   8 4613.11 260.156   8
  -3  -8   8 4836.96 179.770  15
   3  -8  -7 55.1902 23.8818  10
  -3  -8   7 82.0035 25.8260  15
   3  -8  -6 591.297 68.3329   2
   3  -8  -6 783.460 49.5704  10
  -3  -8   6 723.423 49.5093  15
   3  -8  -6 722.094 54.8316  13
   3  -8  -5 51.8559 32.7679   2
   3  -8  -5 28.1819 19.1873  10
   3  -8  -5 35.0635 27.1668  13
  -3  -8   5 59.5054 23.9738  15
   3  -8  -4 1517.13 69.7936  10
  -3  -8   4 1500.53 72.2710  15
   3  -8  -3 5571.94 203.915  10
   3  -8  -3 6179.25 211.697  14
  -3  -8   3 6048.08 210.079  15
   3  -8  -2 1251.37 59.2071  10
   3  -8  -1 2716.30 105.558  10
   3  -8   0 104.897 29.9149   1
  -3  -8  -1 8040.42 271.562  10
   3  -8   1 7612.01 301.280   1
  -3  -8  -1 8456.36 278.748  22
  -3  -8  -2 3084.50 118.281  10
   3  -8   2 3051.57 148.353   1
  -3  -8  -2 3048.17 122.970  22
  -3  -8  -2 3207.64 123.941  15
  -3  -8  -3 1064.24 56.6934  10
   3  -8   3 1053.55 63.4833  12
   3  -8   3 1014.22 82.9949   1
   3  -8   3 1136.34 66.7974  19
   3   8   3 1099.17 67.9779  20
  -3  -8  -3 1150.69 61.7432  15
   3  -8   4 328.855 51.9187   1
   3  -8   4 450.855 46.9908  19
  -3  -8  -4 388.996 38.3244  15
   3  -8   4 400.557 41.1262  12
  -3  -8  -4 384.819 39.5343  16
   3  -8   5 236.453 40.0719  12
   3  -8   5 202.014 39.3826  19
  -3  -8  -5 244.980 38.0171  16
   3  -8   6 7117.38 269.581  19
  -3  -8  -6 7363.33 264.047  16
   3  -8   7 507.485 38.1863   4
   3  -8   7 509.114 53.2550  19
   3   8   7 598.904 62.7246  20
  -3  -8  -7 610.054 53.7031  16
   3  -8   7 571.414 55.1184  12
   3  -8   8 287.492 43.5562  12
   3  -8   8 147.546 24.5408   4
   3  -8   8 227.880 40.8696  19
   3   8   8 222.226 44.5655  19
   3   8   8 287.173 49.3877  20
  -3  -8  -8 226.322 41.5684  16
   3   8   9 2423.37 115.530  20
   3  -8   9 2195.94 106.677  19
   3   8   9 2141.76 109.793  19
   3  -8  10 535.282 44.9034  19
   3   8  10 575.188 53.0082  20
   3   8  10 559.455 48.7327  19
  -3  -8 -11 90.8960 19.9810  10
   3  -8  11 86.1547 22.0870  19
   3   8  11 83.8554 28.1746  20
   3   8  11 122.095 26.7542  19
   3   8  12 954.883 45.1183  19
  -3  -9  12 1057.37 50.2059  15
  -3  -9  11 1856.60 83.4189  15
   3  -9 -10-15.3187 12.2155  10
  -3  -9  10 1508.32 60.9280  15
  -3  -9   9 987.475 59.8690  15
   3  -9  -9 902.103 65.2573  13
  -3  -9   8 452.891 80.7804   8
   3  -9  -8 338.578 36.4259  10
  -3  -9   8 367.789 39.7414  15
  -3  -9   7-27.3497 50.9370   8
   3  -9  -7 22.2492 24.3361  10
   3  -9  -7 2.54903 33.5398  13
  -3  -9   7 21.1647 23.2154  15
   3  -9  -6 102.444 25.9514  10
   3  -9  -6 57.4010 33.8434  13
  -3  -9   6 117.142 27.6174  15
   3  -9  -5 10.8552 19.4377  10
  -3  -9   5 10.6090 21.7438  15
   3  -9  -5 4.37530 25.7107  13
   3  -9  -4 93.0040 23.8875  10
  -3  -9   4 118.929 24.6039  15
   3  -9  -3 36.7626 20.8786  10
  -3  -9   3 22.3585 20.5243  15
   3  -9  -3 33.9285 23.1506  14
   3  -9  -2 471.518 35.9898  10
   3  -9  -2 435.602 38.9476  14
  -3  -9   2 441.451 36.4410  15
  -3  -9   1 30.2993 21.0257  22
   3  -9  -1 5.41999 19.9664  14
  -3  -9   1 24.4026 19.1142  15
  -3  -9   0 3258.85 123.754  10
  -3  -9   0 3379.39 130.388  22
  -3  -9   0 3320.78 130.078  15
  -3  -9  -1 2740.67 109.778  10
  -3  -9  -1 2779.19 115.594  22
  -3  -9  -1 3051.27 117.377  15
  -3  -9  -2 2317.72 97.0030  10
   3  -9   2 2404.54 110.436  19
  -3  -9  -2 2392.30 102.813  22
  -3  -9  -2 2442.65 102.923  15
   3  -9   2 2280.55 102.740  12
  -3  -9  -3 2330.18 100.258  10
   3  -9   3 2427.35 112.907  19
  -3  -9  -3 2384.73 104.994  15
   3  -9   3 2422.16 108.140  12
  -3  -9  -4 1173.93 66.5632  10
   3  -9   4 1319.04 79.0280  19
  -3  -9  -4 1322.72 74.4132  16
   3  -9   4 1322.86 75.8635  12
  -3  -9  -4 1388.54 74.4024  15
   3  -9   5 1443.53 84.2781  19
  -3  -9  -5 1299.66 76.4758  16
   3  -9   5 1378.09 81.0726  12
   3   9   6 829.473 71.9298  20
   3  -9   6 949.659 68.7853  19
  -3  -9  -6 914.837 66.3993  16
   3  -9   7 2528.53 121.376  19
   3   9   7 2524.12 126.640  20
  -3  -9  -7 2533.98 118.033  16
   3   9   8 1439.93 86.1354  19
   3  -9   8 1380.87 83.2266  19
   3   9   8 1624.99 93.6851  20
  -3  -9  -8 1592.24 85.1411  16
   3  -9   8 1524.32 87.8681  12
   3   9   9 46.0631 38.3049  20
   3   9   9 71.2257 32.1918  19
   3  -9   9 18.9279 30.0343  19
  -3  -9 -10 138.753 23.9154  10
   3   9  10 131.410 35.4994  20
   3  -9  10 115.047 26.7354  19
   3   9  10 164.627 31.1025  19
   3   9  11 1929.01 83.6748  20
   3   9  11 1922.06 81.6366  19
  -3 -10  12 916.571 42.0891  15
  -3 -10  11 98.2111 20.9772  15
  -3 -10  10 10.9037 22.0784  15
   3 -10  -9 594.423 43.1397  10
   3 -10  -9 752.031 58.3835  13
  -3 -10   9 724.063 50.9914  15
   3 -10  -8 503.325 43.3675  10
  -3 -10   8 621.108 49.2132  15
   3 -10  -7 333.561 35.1785  10
  -3 -10   7 394.226 74.7255   8
   3 -10  -7 336.062 44.4328  13
  -3 -10   7 365.867 41.5206  15
   3 -10  -6 457.175 40.6054  10
   3 -10  -6 401.185 47.0393  13
  -3 -10   6 541.179 46.2914  15
   3 -10  -5 3463.84 139.978  10
  -3 -10   5 3734.07 144.543  15
   3 -10  -5 3479.48 145.778  13
   3 -10  -4 191.399 29.9738  10
  -3 -10   4 232.562 31.8609  15
   3 -10  -3 545.075 41.2146  10
   3 -10  -3 542.594 47.0161  14
  -3 -10   3 585.967 42.9474  15
   3 -10  -2 26.4784 22.4382  10
  -3 -10   2 47.4111 22.5415  22
  -3 -10   2 62.4079 22.9711  15
   3 -10  -2 68.9747 26.6280  14
  -3 -10   1 182.831 30.7885  22
   3 -10  -1 218.224 32.5708  14
  -3 -10   1 219.809 28.8538  15
  -3 -10   0 2751.20 111.386  10
  -3 -10   0 2997.23 119.166  22
  -3 -10   0 2829.34 117.839  15
  -3 -10  -1 1206.50 60.3665  10
  -3 -10  -1 1145.98 65.5087  22
   3 -10   1 1149.52 61.9153  12
  -3 -10  -1 1286.06 67.2951  15
  -3 -10  -2 2058.84 90.5186  10
  -3 -10  -2 2143.09 96.5572  22
   3 -10   2 1995.01 95.2172  12
  -3 -10  -2 2160.70 97.1163  15
  -3 -10  -3 1235.65 66.9390  10
   3 -10   3 1290.21 80.8126  19
  -3 -10  -3 1356.37 73.7708  15
   3 -10   3 1453.54 75.7981  12
  -3 -10  -4 2813.47 120.257  10
   3 -10   4 3024.30 135.950  19
  -3 -10  -4 2931.86 126.572  16
   3 -10   4 2892.59 129.026  12
  -3 -10  -5 6955.65 256.406  10
   3 -10   5 7260.38 271.142  19
   3  10   5 7265.40 274.763  20
  -3 -10  -5 7148.46 262.505  16
   3 -10   5 7486.17 268.556  12
  -3 -10  -6 3817.71 161.453  10
  -3 -10  -6 4025.13 278.345   9
   3 -10   6 4253.27 175.920  19
   3  10   6 4353.49 182.386  20
   3 -10   6 4356.71 174.195  12
  -3 -10  -6 4141.38 169.269  16
  -3 -10  -7 1697.09 87.5827  10
   3 -10   7 1745.05 97.3006  19
   3  10   7 1889.31 103.920  20
  -3 -10  -7 1982.85 97.3729  16
  -3 -10  -8 2.05923 24.0517  10
   3  10   8 44.1357 31.8537  19
   3 -10   8 56.6771 31.8066  19
   3  10   8 40.7841 39.8792  20
  -3 -10  -8 32.4118 33.9379  16
  -3 -10  -9 330.979 33.4564  10
   3 -10   9 396.163 40.4250  19
   3  10   9 338.356 39.7163  19
   3  10   9 443.604 47.5964  20
  -3 -10 -10 51.6712 18.2099  10
   3  10  10 59.2617 29.4320  20
   3  10  10 70.7954 24.9826  19
   3  10  11 437.804 31.2243  20
   3  10  11 359.792 28.3512  19
  -3 -11  12 285.831 18.1181  15
  -3 -11  11 947.333 46.4926  15
  -3 -11  10 2439.49 100.241  15
   3 -11  -9 96.0772 19.9529  10
  -3 -11   9 186.194 30.6245  15
   3 -11  -8 20.4108 22.2763  10
  -3 -11   8 62.7867 28.7390  15
  -3 -11   7 2421.40 168.656   8
   3 -11  -7 2309.62 106.004  10
   3 -11  -7 2514.94 115.341  13
  -3 -11   7 2617.77 112.064  15
  -3 -11   6 798.226 94.3549   8
   3 -11  -6 721.428 51.9514  10
   3 -11  -6 814.498 60.8140  13
  -3 -11   6 848.902 57.3506  15
   3 -11  -5 18.4226 24.8682  10
  -3 -11   5-11.4395 25.8567  15
   3 -11  -5 32.7374 30.8521  13
   3 -11  -4 28.1818 24.0767  10
  -3 -11   4 33.3434 26.7589  15
   3 -11  -3 667.803 47.5187  10
   3 -11  -3 703.665 53.3928  14
  -3 -11   3 620.924 47.2790  15
   3 -11  -2 31.3060 25.2517  10
   3 -11  -2 13.6801 25.0940  14
  -3 -11   2 8.44543 21.8353  15
  -3 -11   1 3593.38 137.943  15
   3 -11  -1 3193.13 137.541  14
  -3 -11   0 1567.55 73.8272  10
  -3 -11   0 1600.35 80.0266  15
   3 -11   0 1512.73 79.4363  14
  -3 -11  -1 2516.57 109.517  10
  -3 -11  -1 2955.49 118.589  15
  -3 -11  -2 825.995 52.3992  10
  -3 -11  -2 783.226 56.8641  22
   3 -11   2 810.857 54.5656  12
  -3 -11  -2 979.271 60.0187  15
  -3 -11  -3 3045.11 123.553  10
  -3 -11  -3 2766.69 201.426   9
  -3 -11  -3 2968.11 132.029  15
  -3 -11  -3 2982.65 130.029  16
   3 -11   3 3131.06 130.863  12
  -3 -11  -4 752.830 50.8347  10
  -3 -11  -4 560.273 102.914   9
   3  11   4 777.035 68.2547  20
   3 -11   4 772.781 58.3201  12
  -3 -11  -4 753.910 59.5015  16
  -3 -11  -5 2090.36 100.391  10
   3 -11   5 2297.45 114.516  19
   3  11   5 2368.14 120.377  20
   3 -11   5 2160.59 108.838  12
  -3 -11  -5 2330.20 108.301  16
  -3 -11  -6 1071.51 65.8516  10
  -3 -11  -6 1260.31 144.751   9
   3 -11   6 1187.60 77.9610  19
   3  11   6 1169.78 83.1285  20
  -3 -11  -6 1278.85 76.6767  16
   3 -11   6 1366.14 79.2891  12
  -3 -11  -7 2137.86 100.239  10
   3  11   7 2527.52 119.757  20
   3 -11   7 2153.34 109.501  19
  -3 -11  -7 2382.01 109.420  16
  -3 -11  -8 10.9367 20.7507  10
   3  11   8-20.4413 28.2894  19
   3  11   8 5.31695 36.8396  20
  -3 -11  -8 12.7247 30.5944  16
  -3 -11  -9 21.7830 19.1925  10
   3  11   9 55.4364 30.0013  20
   3  11   9 49.8042 25.2063  19
   3  11  10 103.509 25.3874  20
   3  11  10 62.5676 20.2480  19
  -3 -12  11 266.166 20.9028  22
  -3 -12   9 288.663 30.9794  15
   3 -12  -8 40.1502 22.0797  10
  -3 -12   8-1.96462 25.7854  15
   3 -12  -7 722.962 54.9671  13
  -3 -12   7 626.795 48.1993  15
   3 -12  -6 193.782 30.3291  10
  -3 -12   6 268.733 35.9138  15
   3 -12  -6 239.593 39.8548  13
  -3 -12   5 6210.12 297.741   8
   3 -12  -5 5986.79 227.805  10
  -3 -12   5 6517.20 234.245  15
   3 -12  -5 6596.31 234.828  13
   3 -12  -4-10.5982 23.6855  10
  -3 -12   4 9.10835 25.4449  15
   3 -12  -3 636.326 48.0420  10
  -3 -12   3 696.891 50.4702  15
   3 -12  -3 694.360 55.5273  14
   3 -12  -2 2666.73 118.587  14
  -3 -12   2 2473.23 112.101  15
  -3 -12   1 848.732 56.4768  15
   3 -12  -1 843.238 59.3432  14
   3 -12   0 532.986 49.0818  14
  -3 -12   0 525.710 47.3112  15
  -3 -12  -1 3169.29 130.908  10
  -3 -12  -1 3493.03 139.631  15
  -3 -12  -2 904.388 54.9403  10
  -3 -12  -2 905.021 62.1767  15
   3 -12   2 804.639 55.9433  12
  -3 -12  -3 437.168 40.7635  10
   3  12   3 480.101 56.4661  20
  -3 -12  -3 442.329 48.0885  15
   3 -12   3 440.623 42.9984  12
  -3 -12  -4 3238.51 137.108  10
   3 -12   4 3382.24 144.299  12
  -3 -12  -5 756.647 53.2106  10
   3  12   5 910.860 74.6566  20
  -3 -12  -6 2407.54 108.827  10
   3  12   6 2936.49 130.565  20
  -3 -12  -7-20.1652 21.7746  10
   3  12   7-27.6178 37.8029  20
  -3 -12  -8-1.53800 18.0777  10
   3  12   8 35.3621 23.0421  19
   3  12   8 4.65042 30.5111  20
   3  12   9 381.771 38.2708  20
   3  12   9 303.127 30.3316  19
   3  12  10 16.3681 17.4085  20
   3  12  10 4.65052 11.1332  19
  -3 -13  10 131.704 17.6454  22
  -3 -13   9 1407.88 64.7655  22
   3 -13  -8 4.32859 12.8694  10
   3 -13  -8 73.1958 30.3838  13
   3 -13  -7 2059.30 95.7280  10
   3 -13  -7 2542.38 105.872  13
  -3 -13   6 1246.15 67.1122  22
   3 -13  -6 1275.99 71.6795  13
   3 -13  -5 83.0379 27.6182  10
  -3 -13   5 101.544 29.9617  22
   3 -13  -4 189.871 32.8197  10
  -3 -13   4 143.028 32.6364  22
  -3 -13   3 1725.54 87.5747  22
  -3 -13   3 1695.38 87.0980  15
  -3 -13   2 2354.75 105.976  22
   3 -13  -2 2184.04 106.891  14
  -3 -13   2 2351.19 106.483  15
  -3 -13   1 500.894 46.1890  22
  -3 -13   1 566.191 47.3982  15
   3 -13  -1 500.373 49.4522  14
  -3 -13   0 563.400 49.1870  22
  -3 -13   0 549.121 47.2198  15
   3 -13   0 499.360 49.2153  14
  -3 -13  -1 2020.22 99.0731  15
   3 -13   1 2016.06 97.9291  14
  -3 -13  -2 563.795 45.0625  10
   3  13   2 599.671 62.7469  20
  -3 -13  -2 670.853 55.1975  15
  -3 -13  -3 85.6755 25.9121  10
   3  13   3 150.389 45.6164  20
  -3 -13  -3 106.726 34.7468  15
  -3 -13  -4 3176.17 133.549  10
   3  13   4 3680.06 157.074  20
  -3 -13  -5 933.959 58.0685  10
   3  13   5 1205.06 79.1642  20
  -3 -13  -6 75.4669 23.8048  10
   3  13   6 53.1922 41.4411  20
  -3 -13  -7 130.418 23.3900  10
   3  13   7 226.445 40.3865  20
  -3 -13  -8 50.9958 17.0850  10
   3  13   8 140.588 32.7290  20
   3  13   9 150.364 25.2607  20
  -3 -14  10 16.7697 9.40319  15
  -3 -14   9 95.5605 17.1249  22
  -3 -14   8 89.1299 20.6652  22
   3 -14  -8 111.315 27.3162  13
   3 -14  -7 62.6286 19.0693  10
  -3 -14   7 64.8119 23.6178  22
   3 -14  -7 67.0210 28.4769  13
   3 -14  -6 64.9987 23.8353  10
  -3 -14   6 96.2449 26.1679  22
   3 -14  -6 124.786 32.8094  13
  -3 -14   5 745.306 50.2412  22
   3 -14  -5 578.462 49.4589  13
  -3 -14   4 4011.59 158.505  22
   3 -14  -4 3991.00 156.265  13
  -3 -14   3 1814.91 89.7099  22
  -3 -14   2 170.950 32.2631  22
   3 -14  -2 173.857 36.2449  14
  -3 -14   1 829.913 58.1089  22
   3 -14  -1 823.118 61.6349  14
  -3 -14   0 1781.44 93.9103  22
   3 -14   0 2081.78 98.4716  14
   3 -14   1 2591.77 117.789  14
  -3 -14  -2 465.242 49.5246  16
  -3 -14  -2 434.923 47.6694  15
   3 -14   2 536.062 49.5822  14
  -3 -14  -3 113.473 26.5688  10
   3  14   3 129.624 45.8850  20
  -3 -14  -3 168.084 36.7943  16
  -3 -14  -4 37.1954 21.5233  10
   3  14   4 26.4543 39.4307  20
  -3 -14  -4 77.5105 33.7425  16
  -3 -14  -5 295.747 32.1443  10
   3  14   5 359.219 52.4084  20
  -3 -14  -6-22.6249 18.8479  10
   3  14   6 24.2380 32.9214  20
  -3 -14  -7 4.88127 15.5699  10
   3  14   7 33.7572 27.6544  20
   3  14   8 604.495 41.7302  20
   3  14   9 89.0065 16.1999  20
  -3 -15   9 250.968 17.9498  22
  -3 -15   9 343.278 20.5400  15
  -3 -15   8 429.468 27.7412  22
   3 -15  -8 406.254 32.6619  13
  -3 -15   8 396.697 28.7629  15
  -3 -15   7 176.236 24.1610  22
   3 -15  -7 198.602 29.1957  13
  -3 -15   7 220.238 25.5477  15
  -3 -15   6 964.927 52.8645  22
   3 -15  -6 921.900 55.0612  13
  -3 -15   5 7.19534 21.6518  22
   3 -15  -5 43.9790 25.9572  13
  -3 -15   4 415.944 40.9777  22
   3 -15  -4 469.978 40.6182  13
  -3 -15   3 326.309 36.2508  22
   3 -15  -3 340.263 35.3039  13
  -3 -15   2 1535.29 78.2044  22
   3 -15  -2 1346.01 67.9335  13
  -3 -15   1 102.264 27.3179  22
   3 -15  -1 67.5823 31.5243  14
   3 -15   0 40.9496 31.5447  14
   3  15   1 706.446 64.6568  20
   3 -15   1 830.817 58.4347  14
   3  15   2 590.320 57.2235  20
  -3 -15  -2 519.173 47.0908  16
   3 -15   2 503.825 47.6299  14
   3  15   3 2295.33 111.423  20
  -3 -15  -3 2134.32 100.479  16
   3 -15   3 2214.58 102.106  14
  -3 -15  -4 489.713 38.2220  10
   3  15   4 603.061 56.0930  20
  -3 -15  -4 510.193 47.2684  16
   3 -15   4 619.101 45.9132  14
  -3 -15  -5 197.129 25.5921  10
   3  15   5 222.251 39.5471  20
  -3 -15  -5 284.820 35.6221  16
   3 -15   5 255.968 30.2522  14
   3  15   6 76.6912 30.2400  20
   3 -15   6 60.5351 21.2535  14
  -3 -15  -6 52.6837 25.1749  16
   3  15   7 176.174 28.5172  20
   3 -15   7 163.260 20.6714  14
  -3 -15  -7 202.364 25.6064  16
   3  15   8 256.791 24.0431  20
  -3 -16   8 2.09200 9.73458  15
  -3 -16   7 606.627 32.9342  22
   3 -16  -7 556.040 35.6524  13
  -3 -16   7 594.613 34.6658  15
  -3 -16   6 19.5395 17.3373  22
   3 -16  -6-13.8532 19.8664  13
  -3 -16   6 19.6034 17.8882  15
  -3 -16   5 45.0026 20.5078  22
   3 -16  -5 52.5907 22.4457  13
  -3 -16   5 38.2406 20.2827  15
  -3 -16   4 1357.34 66.8949  22
   3 -16  -4 1279.76 64.3182  13
  -3 -16   4 1472.50 69.9713  15
  -3 -16   3-5.29725 21.3121  22
  -3 -16   3 12.8820 23.1993  15
  -3 -16   2 693.367 48.4910  22
   3 -16  -1 136.869 33.8099  14
   3  16   0 184.128 41.5027  20
   3 -16   0 90.9894 31.6327  14
   3  16   1 745.627 61.2737  20
   3 -16   1 620.131 50.1142  14
  -3 -16  -1 628.737 49.1285  16
   3  16   2 27.4366 36.1462  20
   3 -16   2 16.1318 25.8722  14
  -3 -16  -2-5.46518 26.9892  16
   3  16   3 318.268 44.4991  20
   3 -16   3 266.337 33.2977  14
  -3 -16  -3 270.766 35.2632  16
   3  16   4 129.462 35.6181  20
   3 -16   4 123.346 25.8553  14
  -3 -16  -4 105.081 29.3251  16
   3  16   5 1293.19 68.9743  20
  -3 -16  -5 1205.40 62.0403  16
   3 -16   5 1374.15 62.1843  14
   3  16   6 322.644 32.4974  20
  -3 -16  -6 322.738 28.0117  16
  -3 -16  -6 270.679 22.0516  13
   3 -16   6 325.580 26.0489  14
   3  16   7 160.804 20.1702  20
  -3 -17   7 74.3182 11.0235  15
  -3 -17   6 26.9310 12.6370  22
   3 -17  -6 55.4430 15.3693  13
  -3 -17   6 75.0385 15.1023  15
  -3 -17   5 6.19028 14.4375  22
  -3 -17   5 1.15679 15.5088  15
  -3 -17   4 176.133 22.9304  22
  -3 -17   4 199.366 24.4953  15
  -3 -17   3 2.75912 19.0711  22
  -3 -17   3-16.4390 19.7173  15
  -3 -17   2 383.623 33.7016  15
   3  17  -1 49.1725 32.1462  20
  -3 -17   1 1.67710 21.0160  15
  -3 -17   1-16.6541 24.3748  16
   3  17   0 558.169 50.1552  20
  -3 -17   0 445.395 39.9106  15
  -3 -17   0 523.646 40.2205  16
   3 -17   0 531.199 43.1895  14
   3  17   1 66.2817 33.8306  20
   3 -17   1 59.6106 26.0278  14
  -3 -17  -1 43.5701 24.7264  16
   3  17   2 80.0029 30.6674  20
  -3 -17  -2 26.0088 24.2412  16
   3 -17   2 14.7230 22.4685  14
   3  17   3 20.7412 27.2725  20
   3 -17   3 38.0581 21.4619  14
  -3 -17  -3 10.6717 21.2914  16
   3  17   4 266.349 33.4193  20
  -3 -17  -4 206.904 26.1324  16
   3 -17   4 261.150 26.0023  14
   3  17   5 75.7193 21.8545  20
   3 -17   5 62.6331 15.6111  14
  -3 -17  -5 59.9554 16.2216  16
   3  17   6 360.874 26.1747  20
  -3 -18   5 164.062 15.6040  15
  -3 -18   4 340.629 23.7385  16
  -3 -18   4 407.325 26.0188  15
   3  18  -3 70.0596 24.3642  20
  -3 -18   3 84.4755 17.4310  15
  -3 -18   3 28.2337 16.3335  16
   3  18  -2 189.972 30.7900  20
  -3 -18   2 183.586 23.1330  15
  -3 -18   2 200.137 22.7040  16
   3  18  -1 72.8030 26.9972  20
  -3 -18   1 32.8820 19.5211  16
  -3 -18   1 20.2203 16.8416  15
   3  18   0 38.6451 26.5243  20
  -3 -18   0 33.4653 18.5777  16
   3  18   1 177.977 30.2623  20
  -3 -18  -1 128.708 22.6545  16
   3  18   2 166.434 28.4855  20
   3 -18   2 145.823 22.1435  14
  -3 -18  -2 139.889 20.8927  16
   3  18   3 93.1397 23.1658  20
  -3 -18  -3 84.6463 16.7497  16
   3 -18   3 141.986 18.6678  14
   3  18   4 7.06583 15.1475  20
   3 -18   4 8.18599 11.6732  14
   3  19  -3 80.4321 16.5231  20
   3  19  -2 47.9461 17.4478  20
   3  19  -1 49.1278 17.9273  20
   3  19   0 111.470 20.7080  20
   3  19   1 72.9466 17.3849  20
   3  19   2 19.4430 13.5732  20
   4   0 -14 51.4124 11.5995   6
  -4   0  13 15.7833 17.9150   3
   4   0 -13 15.9764 18.7155   5
   4   0 -12 575.688 44.5075   5
   4   0 -11-29.3501 30.1191   5
   4   0 -10 3602.90 239.692   2
   4   0 -10 4013.56 158.844   5
  -4   0   9-15.7728 36.7856   8
   4   0  -9 2.27880 29.1517   5
   4   0  -9 41.0361 51.8468   2
   4   0  -8 291.705 36.5860   5
   4   0  -8 326.086 77.4720   2
   4   0  -7 4.62807 27.3803  11
   4   0  -7 1.94432 23.0833   5
   4   0  -7 8.64405 48.2958   2
   4   0  -6 1832.99 88.0723  11
   4   0  -6 1917.77 142.136   2
   4   0  -6 1721.05 80.3971   5
   4   0  -5 7.50027 23.8511  11
   4   0  -5-20.0295 19.9403   5
   4   0  -5-33.2397 46.1765   2
   4   0  -4 277829. 8628.09  11
   4   0  -4 275955. 8695.17   2
   4   0  -3 5.31730 44.7880   2
   4   0  -3 12.3457 54.3666   1
   4   0  -2 25046.5 866.898   1
   4   0  -1 27.4878 45.6920   1
   4   0   0 14029.5 518.653   1
   4   0   1 28.3915 45.5499   1
   4   0   2 52.9093 47.5233   1
   4   0   3 18.7387 52.6120   1
   4   0   3 4.41121 23.7597   4
   4   0   4 1369.39 68.5955   4
   4   0   4 1423.03 118.981   1
   4   0   4 1391.22 76.5877  21
   4   0   4 1429.79 72.2875  18
   4   0   5 7.67408 51.7107   1
   4   0   5-1.79020 26.8046   4
   4   0   5 7.58047 28.7653  21
   4   0   5 4.76129 25.7834  19
   4   0   5-4.26722 23.7512  20
   4   0   5-10.3571 24.6745  18
   4   0   6 1210.70 70.5587  12
   4   0   6 1233.67 76.1315  21
   4   0   6 1165.82 71.7835  20
   4   0   6 1347.37 76.7122  19
   4   0   6 1352.97 71.1511   4
   4   0   6 1255.06 122.166   1
   4   0   7 11.5120 25.9223  12
   4   0   7 36.7100 55.7432   1
   4   0   7-23.4304 30.0931   4
   4   0   7-19.5017 30.5362  21
   4   0   7-8.74728 32.2096  19
   4   0   7-2.69450 30.5623  20
   4   0   8 32102.2 1014.42   4
   4   0   8 30206.1 1115.32   1
   4   0   8 31351.1 1022.00  20
   4   0   8 32083.3 1026.04  19
   4   0   8 31059.1 1012.63  12
   4   0   9-2.13123 29.7530   4
   4   0   9-40.8200 37.0848  19
   4   0   9 13.7637 33.6551  20
   4   0  10 613.094 47.3916   4
   4   0  11 21.3501 21.6570   4
   4   0  12 147.398 23.7495  19
   4   1 -14 54.0666 11.6010   6
  -4   1  13 44.2170 19.2301   3
   4   1 -13 77.6453 20.6638   5
  -4  -1  13 41.8471 12.2245  15
   4   1 -12 113.185 26.9683   5
   4   1 -11 106.317 33.6010   5
  -4  -1  10 2828.15 192.919   8
   4   1 -10 3028.07 216.414   2
   4   1  -9 1724.65 151.894   2
   4   1  -9 1666.76 83.1538   5
  -4   1   8 525.844 76.4460   8
   4   1  -8 469.169 87.3805   2
   4   1  -8 537.019 45.6827   5
   4   1  -7 2140.25 100.114  11
   4   1  -7 2349.08 166.401   2
   4   1  -7 2149.73 95.7293   5
   4   1  -6 393.651 37.9891  11
   4   1  -6 349.622 68.7931   2
   4   1  -6 385.690 34.5272   5
   4   1  -5 2588.46 106.729  11
   4   1  -5 2638.74 159.892   2
   4   1  -5 2417.67 100.824   5
   4   1  -4 64357.4 2043.47  11
   4   1  -4 67437.9 2112.85   2
   4   1  -3 8555.52 342.279   2
   4   1  -3 8386.60 352.858   1
   4   1  -2 3678.74 191.850   1
   4   1  -1 3471.07 181.375   1
   4   1   0 715.566 78.5357   1
   4   1   1-5.73595 45.6646   1
   4   1   2 10579.8 416.021   1
   4   1   3 7455.76 257.211   4
   4   1   3 7924.12 326.913   1
   4  -1   4 446.806 43.9618  21
   4  -1   4 430.295 38.7465  18
   4   1   4 389.146 73.1075   1
   4   1   4 446.113 38.2429   4
   4   1   5 853.990 62.4567  21
   4  -1   5 802.684 59.8263  21
   4  -1   5 870.908 56.0576  18
   4  -1   5 834.629 57.2669  20
   4   1   5 845.451 58.3428  20
   4   1   5 864.721 55.1287  18
   4  -1   5 907.140 60.8438  19
   4   1   5 1049.70 61.9082  19
   4   1   5 1003.98 56.2097   4
   4   1   5 979.805 103.600   1
   4  -1   6 929.225 62.4608  12
   4  -1   6 892.580 63.0540  20
   4   1   6 928.740 63.1267  20
   4  -1   6 1032.17 67.7746  19
   4   1   6 1072.36 68.0444  19
   4  -1   6 1025.65 68.4372  21
   4   1   6 998.840 67.3843  21
   4   1   6 999.966 60.6500   4
   4   1   6 1019.60 109.184   1
   4   1   7 4549.26 181.846  12
   4  -1   7 4649.83 186.520  12
   4   1   7 5243.48 186.822   4
   4   1   7 5293.90 271.359   1
   4   1   7 4828.13 191.789  21
   4  -1   7 4827.37 189.756  20
   4   1   7 4692.19 191.059  20
   4  -1   7 4834.45 193.899  19
   4   1   7 5077.24 196.194  19
   4  -1   7 4938.86 193.104  21
   4   1   8 1991.00 94.1771   4
   4   1   8 1856.45 155.446   1
   4  -1   8 1916.96 98.9766  20
   4   1   8 1889.78 101.325  20
   4  -1   8 1930.98 101.790  19
   4   1   8 1930.91 102.295  19
   4   1   8 1793.83 95.0472  21
   4  -1   8 1656.27 90.1225  12
   4  -1   9 90.7325 27.2013  12
   4   1   9 88.8842 33.6752   4
   4   1   9 113.492 38.5884  19
   4   1   9 47.5851 37.0245  20
   4   1  10 1510.94 74.6153   4
   4   1  10 1397.25 80.1327  20
   4   1  11 114.339 24.5222   4
   4  -1  11 186.071 31.9165  19
   4  -1  12 57.2128 20.0426  19
   4   2 -13 25.2414 17.1487   5
  -4   2  13 18.1131 16.7767   3
  -4  -2  13 12.3553 17.2787   3
   4  -2 -13-2.27184 16.3556   5
  -4  -2  13 17.6429 12.6176  15
   4   2 -12 165.004 28.4181   5
   4  -2 -12 138.906 27.5631   5
   4  -2 -11 334.645 39.3364   5
   4   2 -11 363.575 38.8649   5
   4   2 -10 15.5920 27.9974   5
   4  -2 -10 2.21777 28.8601   5
  -4  -2   9 221.946 63.0926   8
   4   2  -9 292.557 77.3062   2
   4  -2  -9 391.720 85.2119   2
   4   2  -9 342.656 40.2746   5
   4  -2  -9 353.642 40.6619   5
   4   2  -8 36.0159 26.3288   5
   4  -2  -8 55.2018 27.8785   5
   4   2  -8-9.46948 48.7465   2
   4  -2  -8 9.46164 52.8744   2
   4   2  -7 178.535 34.5700  11
   4  -2  -7 192.586 33.3822  11
   4   2  -7 225.412 31.6608   5
   4  -2  -7 212.927 31.0715   5
   4   2  -7 204.865 66.7202   2
   4  -2  -7 222.419 67.8912   2
   4   2  -6 66.4384 26.4893  11
   4  -2  -6 64.4397 24.6851  11
   4   2  -6 51.6471 22.1232   5
   4  -2  -6 81.4335 23.8647   5
   4   2  -6 83.0975 50.4145   2
   4  -2  -6 98.6395 53.7663   2
   4   2  -5 276.725 33.6660  11
   4  -2  -5 267.579 32.0787  11
   4  -2  -5 216.177 28.8091   5
   4   2  -5 204.518 56.4598   2
   4  -2  -5 165.853 55.6577   2
   4   2  -5 271.215 28.9896   5
   4   2  -4 36771.2 1182.81  11
   4  -2  -4 37738.2 1182.20  11
   4   2  -4 37607.9 1247.59   2
   4  -2  -4 36718.6 1247.12   2
   4   2  -3 249.708 58.6313   2
   4  -2  -3 245.163 62.3610   2
   4   2  -3 197.581 61.9120   1
   4  -2  -3 185.538 61.1316   1
   4   2  -2 4644.26 220.478   1
   4  -2  -2 4422.41 219.416   1
   4   2  -1 2305.98 141.150   1
   4  -2  -1 2255.23 139.156   1
   4   2   0 10826.0 435.329   1
   4  -2   0 12220.6 443.914   1
   4  -2   1 3047.63 169.777   1
   4   2   1 3149.98 172.844   1
   4   2   2 10365.5 410.202   1
   4  -2   2 10261.2 406.985   1
   4   2   3 438.467 70.6671   1
   4   2   3 430.198 37.4868   4
   4  -2   3 500.825 37.5322   4
   4   2   4 3332.15 128.299   4
   4  -2   4 3389.39 128.297   4
   4  -2   4 3169.37 185.532   1
   4   2   4 3010.53 184.172   1
   4  -2   4 3360.82 135.807  19
   4  -2   4 3312.41 133.051  18
   4  -2   4 3188.96 137.593  21
   4   2   5 433.090 73.4620   1
   4  -2   5 267.447 63.6803   1
   4   2   5 294.730 34.5022   4
   4  -2   5 237.750 33.9326   4
   4  -2   5 274.722 39.1501  19
   4   2   5 279.670 37.8212  20
   4   2   5 311.990 38.9898  19
   4  -2   5 296.288 34.8091  20
   4  -2   5 294.276 39.3377  21
   4   2   5 277.123 30.8628  18
   4  -2   6 68.1569 31.7895  12
   4   2   6 144.573 62.5051   1
   4  -2   6 109.424 59.6603   1
   4   2   6 114.346 34.1923   4
   4  -2   6 100.047 31.6973   4
   4  -2   6 64.1391 37.1874  21
   4   2   6 61.5112 32.3917  21
   4  -2   6 90.8399 33.1181  19
   4   2   6 95.6936 33.1173  19
   4  -2   6 58.7508 30.5280  20
   4   2   6 152.350 37.7682  20
  -4  -2  -6 70.6621 27.1917  16
   4  -2   7 183.524 36.5744  12
   4   2   7 310.661 72.5210   1
   4  -2   7 199.528 66.9489   1
   4   2   7 204.700 37.0112   4
   4  -2   7 265.377 39.7321   4
   4   2   7 321.623 43.6152  21
   4  -2   7 150.810 39.7149  19
   4  -2   7 165.942 39.0998  20
   4   2   7 288.573 43.3512  20
   4   2   7 209.152 42.1805  19
   4   2   8 601.616 91.0905   1
   4  -2   8 421.323 85.0794   1
   4   2   8 535.756 48.8634   4
   4  -2   8 566.539 51.7179   4
   4   2   8 620.351 57.2889  20
   4   2   8 562.791 55.9885  19
   4   2   8 468.361 47.4952  21
   4  -2   8 502.138 50.0813  12
   4   2   9 1017.42 61.0430   4
   4  -2   9 919.514 59.8474   4
   4   2   9 975.463 69.2351  19
   4   2   9 908.763 67.3752  20
   4  -2   9 882.485 59.2564  12
   4   2  10 518.111 41.7675   4
   4  -2  10 440.803 40.3609   4
   4   2  10 533.492 50.0175  20
   4  -2  10 455.505 47.4046  19
   4   2  10 457.446 48.2643  19
   4  -2  11 716.786 50.8650  19
   4  -2  12 379.351 30.3437  19
   4  -3 -13 185.135 22.1396   5
  -4  -3  13 133.516 18.1283  15
   4   3 -12 109.238 24.5063   5
   4  -3 -12 150.047 26.7321   5
  -4  -3  12 86.2702 21.1139  15
   4   3 -11 65.6845 26.8594   5
   4  -3 -11 75.0629 27.9135   5
   4   3 -10 741.591 53.0692   5
   4  -3 -10 676.184 52.4306   5
  -4  -3   9 470.802 84.5365   8
   4   3  -9 637.802 96.4938   2
   4  -3  -9 508.849 87.3580   2
   4   3  -9 596.608 48.3359   5
   4  -3  -9 530.156 46.8674   5
   4   3  -8 39.5772 27.2087   5
   4  -3  -8 52.3515 27.6544   5
   4   3  -8 55.7984 55.0318   2
   4  -3  -8-9.31481 49.6366   2
   4   3  -7 4038.80 152.028  11
   4  -3  -7 3777.46 151.185  11
   4   3  -7 3565.75 218.804   2
   4  -3  -7 3610.02 217.460   2
   4   3  -7 3619.22 144.693   5
   4  -3  -7 3675.25 145.742   5
   4   3  -6 455.621 40.5302  11
   4  -3  -6 413.084 38.4006  11
   4   3  -6 409.313 74.5879   2
   4  -3  -6 495.037 75.8616   2
   4   3  -6 374.369 35.5605   5
   4  -3  -6 421.655 36.7913   5
   4  -3  -5 3515.89 133.249  11
   4   3  -5 3346.95 186.292   2
   4  -3  -5 3264.25 187.541   2
   4   3  -5 3125.42 126.124   5
   4  -3  -5 3136.39 126.660   5
   4   3  -4 4942.86 175.056  11
   4  -3  -4 4597.47 174.423  11
   4   3  -4 4759.60 227.386   2
   4  -3  -4 4620.85 225.912   2
   4   3  -3 19729.1 695.605   2
   4  -3  -3 20126.7 697.148   2
   4   3  -3 19781.5 706.325   1
   4  -3  -3 19418.7 705.553   1
   4   3  -2 10929.3 424.754   1
   4  -3  -2 10864.2 423.832   1
   4   3  -1 1956.43 128.231   1
   4  -3  -1 1884.32 126.113   1
   4   3   0 949.887 88.6862   1
   4  -3   0 974.510 91.3477   1
   4   3   1 327.746 62.0164   1
   4  -3   1 280.728 55.6704   1
   4   3   2 9466.21 386.622   1
   4  -3   2 9767.18 386.832   1
   4  -3   3 7120.59 306.883   1
   4   3   3 6801.04 303.478   1
   4   3   4 1826.56 80.4568   4
   4  -3   4 1821.13 80.0551   4
   4   3   4 1705.37 130.252   1
   4  -3   4 1837.44 132.970   1
   4  -3   4 1745.17 86.5308  19
   4   3   4 1751.51 84.7449  20
   4  -3   4 1599.95 82.8448  18
   4  -3   4 1721.94 88.3693  21
   4   3   5 10012.8 334.907   4
   4  -3   5 10166.7 335.074   4
   4  -3   5 9901.44 413.231   1
   4   3   5 9786.71 413.822   1
   4  -3   5 9582.89 336.600  20
   4   3   5 10104.4 344.003  20
   4  -3   5 10196.7 346.335  19
   4   3   5 9524.13 340.667  19
   4  -3   5 9825.32 346.688  21
  -4  -3  -5 9561.75 332.033  16
   4  -3   6 431.445 46.4482  12
   4   3   6 397.464 77.8249   1
   4  -3   6 435.241 79.5885   1
   4   3   6 398.854 43.1680   4
   4  -3   6 437.619 43.1795   4
   4  -3   6 392.472 49.5335  21
   4   3   6 388.782 47.0248  21
   4  -3   6 437.950 44.5769  20
   4   3   6 428.000 50.1530  20
   4  -3   6 446.034 49.6380  19
   4   3   6 463.588 48.4434  19
  -4  -3  -6 408.542 38.8596  16
   4  -3   7 2031.87 101.581  12
   4   3   7 2059.96 95.6461   4
   4  -3   7 2054.75 95.5966   4
   4   3   7 2046.92 159.673   1
   4  -3   7 1832.34 150.162   1
   4   3   7 2029.45 107.113  20
   4   3   7 2024.17 103.823  19
   4   3   7 1903.07 99.0682  21
   4   3   8 1568.95 80.0752   4
   4  -3   8 1496.27 79.7161   4
   4   3   8 1417.89 132.898   1
   4  -3   8 1390.39 128.806   1
   4   3   8 1571.74 92.0296  20
   4   3   8 1488.87 88.8888  19
   4   3   8 1501.91 80.7687  21
   4  -3   8 1494.92 84.6592  12
   4  -3   9 75.1191 29.4254  12
   4   3   9 74.0722 30.9885   4
   4  -3   9 106.521 30.2377   4
   4  -3   9 33.9882 33.6988  19
   4   3   9 65.7245 37.8672  20
   4   3   9 62.8995 34.8019  19
   4  -3  10 362.597 36.2901   4
   4   3  10 281.160 34.0662   4
   4  -3  10 276.651 40.7743  19
   4   3  10 251.348 40.3913  19
   4   3  10 321.503 44.3467  20
   4  -3  11 448.489 39.6490  19
   4   3  11 392.684 39.1762  19
   4  -3  12 416.398 30.9072  19
   4  -4 -13 21.4612 15.2274   6
   4   4 -13 34.4962 15.6161   6
  -4  -4  13 13.5291 11.9925  15
   4   4 -12 82.9010 21.8595   5
   4  -4 -12 58.2852 21.5355   5
  -4  -4  12 69.1855 19.4932  15
   4   4 -11 171.430 30.1401   5
   4  -4 -11 208.258 31.4796   5
  -4  -4  11 229.525 29.7467  15
   4   4 -10 445.216 42.7145   5
   4  -4 -10 472.221 43.2009   5
   4   4  -9 144.941 31.0054   5
   4  -4  -9 137.668 31.9961   5
   4   4  -9 65.6601 53.3256   2
   4  -4  -9 56.3593 51.0019   2
  -4  -4   9 123.561 57.1064   8
   4   4  -8 1847.71 157.968   2
   4  -4  -8 2012.42 158.232   2
   4   4  -8 2130.45 96.0176   5
   4  -4  -8 2132.26 96.3483   5
   4   4  -7 632.799 90.8242   2
   4  -4  -7 613.808 89.4738   2
   4   4  -7 604.502 45.2490   5
   4  -4  -7 580.938 44.9885   5
   4   4  -7 792.886 52.3612  11
   4  -4  -7 624.060 49.1573  11
   4   4  -6 36.5976 42.7292   2
   4  -4  -6 14.8075 45.5567   2
   4   4  -6 38.8261 20.8642   5
   4  -4  -6 22.2857 22.1492   5
   4   4  -6 36.7091 23.8299  11
   4  -4  -6 65.4703 26.0465  11
   4  -4  -6 34.6917 26.5793  13
   4   4  -5 967.552 95.5311   2
   4  -4  -5 919.799 92.0157   2
   4   4  -5 843.861 49.1315   5
   4  -4  -5 858.158 49.3083   5
   4   4  -5 966.533 53.4580  11
   4  -4  -5 962.098 54.2515  11
   4  -4  -5 875.148 54.5009  13
  -4  -4   5 815.092 47.5318  15
   4   4  -4 1683.25 78.5383  11
   4  -4  -4 1748.32 79.4073  11
   4   4  -4 1767.93 121.545   2
   4  -4  -4 1537.89 116.884   2
   4   4  -3 476.737 70.8334   1
   4  -4  -3 267.399 61.1847   1
   4   4  -2 626.042 77.3406   1
   4  -4  -2 856.596 86.2829   1
   4   4  -1 876.976 86.4300   1
   4  -4  -1 812.176 84.2231   1
   4   4   0 117.118 46.8539   1
   4  -4   0 160.681 51.0161   1
   4   4   1 52.5866 46.1844   1
   4  -4   1 28.7733 44.0881   1
   4   4   2 3956.45 200.935   1
   4  -4   2 3708.61 196.705   1
   4   4   3 72.4430 44.9097   1
   4  -4   3 141.439 53.1191   1
   4  -4   3 89.9623 29.3633  21
   4  -4   3 64.1050 27.6897  19
   4   4   4 792.344 48.8070   4
   4  -4   4 661.161 47.2821   4
   4  -4   4 698.165 83.6363   1
   4   4   4 858.267 93.1523   1
   4  -4   4 848.121 58.3879  19
   4   4   4 714.921 55.6558  20
   4   4   4 802.388 51.6206  19
   4  -4   4 689.351 56.4498  21
  -4  -4  -4 712.842 47.2098  16
   4  -4   5 8320.48 289.057  12
   4   4   5 8065.21 278.153   4
   4  -4   5 8423.39 279.048   4
   4   4   5 7793.77 352.305   1
   4  -4   5 8245.70 355.070   1
   4  -4   5 8406.04 291.525  19
   4   4   5 7514.99 287.569  20
   4   4   5 7981.22 286.151  19
   4  -4   5 7804.71 291.235  21
  -4  -4  -5 7870.22 278.895  16
   4  -4   6 1439.65 83.3196  12
   4   4   6 1488.94 77.2778   4
   4  -4   6 1597.75 77.8891   4
   4  -4   6 1475.38 127.732   1
   4   4   6 1666.52 135.153   1
   4   4   6 1502.00 86.8753  20
   4  -4   6 1677.92 91.0547  19
   4   4   6 1540.35 85.5177  21
   4   4   6 1585.22 86.0919  19
  -4  -4  -6 1507.31 78.1831  16
   4   4   7 1335.17 72.3256   4
   4  -4   7 1295.51 71.9766   4
   4   4   7 1263.80 123.633   1
   4  -4   7 1304.41 125.230   1
   4   4   7 1397.74 85.3512  20
   4   4   7 1317.84 81.2211  19
   4   4   7 1242.82 76.0743  21
  -4  -4  -7 1271.35 72.9578  16
   4  -4   7 1511.97 81.5387  12
   4  -4   8 33.0697 31.7239  12
   4   4   8-17.8165 42.4532   1
   4  -4   8 8.84065 53.0103   1
   4   4   8 52.8039 29.3756   4
   4  -4   8-2.04062 28.3588   4
   4   4   8 7.06295 28.3349  21
   4   4   8 73.6830 36.1550  19
   4   4   8 57.5506 37.1562  20
   4   4   9 897.278 56.3196   4
   4  -4   9 868.312 56.0844   4
   4   4   9 1034.40 69.1057  20
   4   4   9 889.964 65.5265  19
   4  -4   9 790.011 64.7666  19
   4  -4   9 990.029 63.3114  12
   4   4  10 918.443 53.5534   4
   4  -4  10 990.156 63.3939  19
   4   4  10 921.862 64.0428  20
   4   4  10 889.458 61.6633  19
   4   4  11 1504.27 74.7329  20
   4  -4  11 1466.48 71.5937  19
   4   4  11 1359.71 70.9062  19
   4   4  12 99.6670 18.6347  19
   4  -4  12 85.7972 18.9086  19
   4   5 -13 20.7391 11.6050   6
   4  -5 -13 29.8053 11.0959   6
  -4  -5  13 44.5066 12.1877  15
  -4   5  12 17.8983 18.5684   3
  -4  -5  12 1.16496 17.7710   3
   4   5 -12 1.17239 17.3305   5
   4  -5 -12 14.4212 16.4470   5
  -4  -5  12-22.9949 16.5366  15
   4  -5 -11 1712.79 78.1583   5
   4   5 -11 1684.10 77.8427   5
  -4  -5  11 1675.24 79.1670  15
   4   5 -10 110.227 28.6416   5
   4  -5 -10 127.400 29.6079   5
  -4  -5  10 133.744 28.3504  15
   4   5  -9 185.462 62.8693   2
   4  -5  -9 258.115 63.3552   2
   4   5  -9 215.504 31.9701   5
   4  -5  -9 203.277 32.5213   5
  -4  -5   9 145.041 63.4207   8
  -4  -5   9 220.550 33.1046  15
   4   5  -8 128.631 59.1806   2
   4  -5  -8 156.124 56.8032   2
   4   5  -8 147.572 29.3658   5
   4  -5  -8 180.143 30.9575   5
   4   5  -7 1039.79 107.182   2
   4  -5  -7 1038.36 106.863   2
   4   5  -7 896.878 55.8468   5
   4  -5  -7 1004.81 58.3138   5
   4   5  -7 996.431 60.7926  11
   4  -5  -7 1043.51 61.6978  11
  -4  -5   7 1043.88 60.1973  15
   4  -5  -7 933.117 65.6608  13
   4   5  -6 200.388 56.5172   2
   4  -5  -6 232.488 56.4852   2
   4   5  -6 245.864 28.8632   5
   4  -5  -6 229.139 28.8861   5
   4   5  -6 233.644 30.2711  11
   4  -5  -6 212.231 30.7190  11
  -4  -5   6 192.937 28.0197  15
   4  -5  -6 173.153 34.2219  13
   4   5  -5 9388.49 381.252   2
   4  -5  -5 10270.5 389.666   2
   4   5  -5 9013.22 310.784   5
   4  -5  -5 9323.52 311.679   5
   4   5  -5 9397.92 316.992  11
   4  -5  -5 9496.91 316.602  11
   4  -5  -5 9136.11 316.044  13
  -4  -5   5 9002.33 312.919  15
   4   5  -4-23.0662 37.6239   2
   4  -5  -4-5.81989 38.8065   2
   4   5  -4 15.1178 19.5378  11
   4  -5  -4 13.4747 19.6594  11
   4  -5  -3 1266.58 63.3227  11
   4   5  -3 1336.17 63.6993  11
   4   5  -2 3920.53 197.282   1
   4  -5  -2 3750.34 195.218   1
   4   5  -1 679.035 77.1387   1
   4  -5  -1 670.900 75.4803   1
   4   5   0 4131.89 206.042   1
   4  -5   0 4418.43 209.606   1
   4   5   1 7018.51 306.765   1
   4  -5   1 7557.68 309.994   1
   4   5   2 74.3704 43.9561   1
   4  -5   2 135.770 50.2827   1
   4  -5   2 71.5898 25.0947  18
   4   5   3 2080.63 141.155   1
   4  -5   3 2110.63 141.411   1
   4  -5   3 1984.56 97.0463  19
   4   5   3 2146.13 96.9641  20
   4  -5   3 2107.27 99.4932  21
  -4  -5  -3 1995.80 87.7791  16
   4   5   4 738.873 85.3680   1
   4  -5   4 781.639 86.5840   1
   4  -5   4 828.520 57.2322  19
   4   5   4 760.352 56.2054  20
   4   5   4 668.915 48.9722  19
  -4  -5  -4 677.277 48.5005  16
   4  -5   5 10.2416 27.2812  12
   4   5   5 91.7067 52.5590   1
   4  -5   5-7.55654 48.1949   1
   4   5   5 5.33767 25.1388   4
   4  -5   5 26.7154 25.3424   4
   4   5   5 34.9988 32.3901  20
   4  -5   5 16.6742 29.3628  19
   4   5   5-14.4287 25.8361  19
  -4  -5  -5 4.01054 25.2813  16
   4  -5   6 5665.16 211.796  12
   4  -5   6 5296.25 273.400   1
   4   5   6 5690.14 200.415   4
   4  -5   6 5711.00 200.417   4
   4   5   6 5224.80 270.883   1
   4   5   6 5381.05 213.153  20
   4   5   6 4925.07 206.647  19
  -4  -5  -6 5389.89 202.451  16
   4   5   7 1441.21 127.175   1
   4   5   7 1648.08 79.1656   4
   4  -5   7 1631.20 79.7871   4
   4  -5   7 1472.02 129.485   1
   4   5   7 1364.44 82.3561  21
   4   5   7 1590.22 92.2291  20
   4   5   7 1505.79 87.6765  19
  -4  -5  -7 1588.00 83.5703  16
   4  -5   7 1688.24 89.2688  12
   4  -5   8 44.8122 33.8338  12
   4   5   8 8.44212 49.2851   1
   4  -5   8 8.39124 40.8311   1
   4   5   8 49.9153 26.4443   4
   4  -5   8 36.9494 26.9193   4
   4  -5   8 59.7448 36.0827  19
   4   5   8 94.3634 40.4016  20
   4   5   8 57.5153 33.9410  19
   4   5   9 1365.43 70.2562   4
   4  -5   9 1300.03 69.7308   4
   4   5   9 1501.81 86.1000  20
   4  -5   9 1477.93 83.9900  19
   4   5   9 1458.76 82.1905  19
   4  -5   9 1451.92 80.1124  12
   4   5  10-17.8512 29.9161  19
   4   5  10 7.04058 31.7934  20
   4  -5  10-8.94753 28.0317  19
   4  -5  11 1380.70 66.0732  19
   4   5  11 1260.02 65.3028  19
   4  -5  12 585.604 32.5279  19
   4   5  12 549.516 31.5460  19
  -4  -6  13 74.6715 11.9896  15
   4   6 -12 10.0269 14.8900   6
  -4  -6  12 6.27344 15.9129  15
   4   6 -11 213.527 25.6395   5
   4  -6 -11 172.260 25.1882   5
  -4  -6  11 224.412 29.1669  15
   4   6 -10 344.673 33.7122   5
   4  -6 -10 278.115 33.0866   5
  -4  -6  10 308.185 34.1534  15
   4   6  -9 2377.85 102.263   5
   4  -6  -9 2382.91 103.081   5
  -4  -6   9 2276.99 174.919   8
  -4  -6   9 2419.01 106.258  15
   4   6  -8 2046.06 155.056   2
   4  -6  -8 2082.66 155.242   2
   4   6  -8 2251.55 97.6858   5
   4  -6  -8 2300.25 99.0330   5
  -4  -6   8 2270.66 102.658  15
   4   6  -7 743.360 90.1009   2
   4  -6  -7 796.072 93.2189   2
   4   6  -7 746.382 48.1715   5
   4  -6  -7 731.746 48.3451   5
   4  -6  -7 737.639 58.2641  13
  -4  -6   7 817.052 52.4934  15
   4   6  -6 242.193 56.9908   2
   4  -6  -6 218.356 54.2383   2
   4   6  -6 196.490 26.0102   5
   4  -6  -6 196.180 27.0144   5
   4   6  -6 183.762 28.2486  11
   4  -6  -6 185.886 28.1871  11
  -4  -6   6 132.116 26.1523  15
   4  -6  -6 179.946 35.3952  13
   4   6  -5 3441.65 187.807   2
   4  -6  -5 3445.53 188.094   2
   4  -6  -5 3369.32 129.144   5
   4   6  -5 3658.91 134.588  11
   4  -6  -5 3541.11 134.090  11
  -4  -6   5 3329.95 133.043  15
   4  -6  -5 3181.58 136.664  13
   4  -6  -4 7337.13 250.980   6
   4   6  -4 7723.66 256.003  11
   4  -6  -4 7240.58 254.606  11
   4  -6  -4 7169.89 255.483  13
  -4  -6   4 7560.06 256.233  15
   4   6  -3 2775.38 105.723  11
   4  -6  -3 2428.06 103.040  11
   4  -6  -2 150.939 49.1902   1
   4   6  -2 195.673 50.6600   1
   4   6  -1 7632.42 317.052   1
   4  -6  -1 7643.85 318.251   1
   4   6   0 2747.17 154.857   1
   4  -6   0 2742.27 155.291   1
   4   6   1 14303.6 534.443   1
   4  -6   1 14732.7 536.744   1
   4   6   2 142.736 49.8551   1
   4  -6   2 117.295 45.8165   1
   4   6   2 102.149 29.7289  20
  -4  -6  -2 80.1781 21.9471  22
   4  -6   2 86.3598 29.8745  19
   4  -6   2 97.5395 28.1658  18
   4   6   2 84.3611 21.6486  17
   4   6   3 5930.75 276.277   1
   4  -6   3 6375.26 281.942   1
   4  -6   3 6380.98 228.462  19
   4   6   3 5904.18 224.634  20
  -4  -6  -3 6065.93 216.246  16
  -4  -6  -3 5949.27 216.425  15
   4   6   4 107.284 50.2219   1
   4  -6   4 71.2264 46.0168   1
   4   6   4 88.2548 26.9923  19
   4   6   4 28.5569 33.3962  20
   4  -6   4 94.3807 33.7780  19
  -4  -6  -4 88.0926 28.7905  16
   4  -6   5 5421.96 201.757  12
   4   6   5 5239.49 259.281   1
   4  -6   5 5121.88 258.282   1
   4   6   5 4815.11 195.232  19
   4   6   5 5231.91 204.203  20
  -4  -6  -5 5220.96 194.764  16
   4   6   6 646.112 87.5183   1
   4  -6   6 732.485 93.0155   1
   4   6   6 660.919 63.1897  20
   4   6   6 639.724 56.1050  19
  -4  -6  -6 685.568 53.7591  16
   4  -6   6 701.750 60.0465  12
   4   6   7 750.830 93.0635   1
   4  -6   7 757.557 94.5788   1
   4   6   7 892.411 62.2997  21
   4   6   7 931.028 71.5123  20
   4  -6   7 1081.95 73.5868  19
   4   6   7 879.871 65.7579  19
  -4  -6  -7 1002.93 65.5605  16
   4  -6   7 1093.72 73.2829  12
   4  -6   8 780.097 63.6061  19
   4   6   8 826.214 67.5036  20
   4   6   8 707.731 58.8054  19
   4  -6   8 811.146 61.4554  12
   4  -6   9 448.476 48.2916  19
   4   6   9 469.066 54.2790  20
   4   6   9 414.354 45.4279  19
   4  -6   9 513.665 48.6039  12
   4   6  10 67.4920 28.5470  19
   4  -6  10 58.3686 27.6452  19
   4   6  11 78.0595 22.2593  19
   4  -6  11 150.462 25.3636  19
  -4  -7  12 1150.75 52.9549  15
   4   7 -11 393.495 28.9293   6
  -4  -7  11 473.724 36.2434  15
   4  -7 -10 284.698 30.2944   5
  -4  -7  10 343.087 36.4681  15
   4   7  -9 61.9708 23.0122   5
   4  -7  -9 104.391 25.5071   5
  -4  -7   9 85.8898 28.7705  15
   4   7  -8 477.050 38.5121   5
   4  -7  -8 479.847 38.9182   5
  -4  -7   8 507.010 43.7567  15
   4  -7  -8 549.604 53.0359  13
   4  -7  -7 4148.41 158.241   5
   4  -7  -7 4026.85 224.264   2
   4   7  -7 4217.30 157.833   5
   4  -7  -7 4474.19 172.996  13
  -4  -7   7 4444.76 167.854  15
   4   7  -6 991.978 98.8332   2
   4  -7  -6 1211.25 104.383   2
   4   7  -6 1120.16 59.5348  11
  -4  -7   6 1201.97 65.4444  15
   4  -7  -6 1030.47 66.8184  13
   4  -7  -5 1471.52 71.1347   6
   4   7  -5 1633.81 75.0702  11
   4  -7  -5 1555.87 74.5956  11
  -4  -7   5 1710.17 79.5699  15
   4   7  -4-1.56278 16.7207  11
   4  -7  -4-18.9191 18.9681  11
   4  -7  -4-7.14526 24.6322  13
  -4  -7   4 7.36920 19.0483  15
   4  -7  -3 3697.65 136.103  11
   4  -7  -3 3484.95 136.361  13
  -4  -7   3 3764.48 140.582  15
   4  -7  -2 4.29511 15.6964  11
  -4  -7   2 21.3757 18.1672  15
   4   7  -1 16.3713 35.6067   1
   4  -7  -1 27.5114 35.5003   1
  -4  -7   1 6.84840 19.4237  22
  -4  -7   1 14.5192 16.5361  15
   4   7   0 7649.25 321.608   1
   4  -7   0 7723.80 322.167   1
  -4  -7   0 7829.10 271.943  22
  -4  -7   0 7994.21 271.375  15
   4   7   0 7983.71 270.564  17
   4   7   1 5.65490 40.0416   1
   4  -7   1 57.0273 38.4285   1
  -4  -7  -1 5.38533 20.7344  22
   4  -7   1-9.24622 25.8322  19
   4   7   1 6.63550 18.6099  17
  -4  -7  -1 23.9935 17.8003  15
   4  -7   2 60.2857 38.0943   1
   4   7   2 30.0750 41.4546   1
  -4  -7  -2 84.9700 23.6721  22
   4  -7   2 57.1833 30.2253  19
   4   7   2 91.3930 30.4264  20
  -4  -7  -2 100.768 23.3213  15
   4   7   2 117.854 23.8215  17
   4  -7   3-2.34990 25.6561  12
   4   7   3 6.56376 39.3538   1
   4  -7   3 45.7795 44.0691   1
   4   7   3-12.6454 30.0265  20
   4  -7   3 8.03246 27.9272  19
  -4  -7  -3 5.95775 21.7684  15
  -4  -7  -3 27.6616 25.9974  16
   4  -7   4 565.925 50.5118  12
   4   7   4 419.378 68.9312   1
   4  -7   4 490.559 70.7628   1
   4   7   4 532.889 54.0476  20
  -4  -7  -4 556.647 45.9573  16
   4   7   5 595.189 81.8201   1
   4  -7   5 711.034 87.9129   1
   4   7   5 641.535 63.6492  20
   4   7   5 711.658 53.4097  19
  -4  -7  -5 751.050 55.6430  16
   4  -7   6 3483.80 206.850   1
   4  -7   6 3785.61 163.914  19
   4   7   6 3843.38 164.247  20
   4   7   6 3705.77 155.735  19
  -4  -7  -6 3660.03 153.535  16
   4  -7   6 4010.26 163.301  12
   4   7   7 2368.57 114.627  21
   4   7   7 2627.05 129.977  20
   4  -7   7 2763.31 128.125  19
   4   7   7 2708.96 122.507  19
  -4  -7  -7 2664.21 119.248  16
   4  -7   7 2805.48 126.408  12
   4  -7   8 1301.80 79.4050  19
   4   7   8 1319.42 84.5411  20
   4   7   8 1167.16 73.3595  19
  -4  -7  -8 1172.90 72.8843  16
   4  -7   8 1278.56 77.8653  12
   4  -7   9 104.022 33.2781  12
   4   7   9 76.0915 31.5992  19
   4  -7   9 90.5667 33.5299  19
   4   7  10 292.857 33.4090  19
   4  -7  10 262.771 34.0825  19
   4   7  11 303.112 28.1297  19
   4  -7  11 338.085 29.1655  19
  -4  -8  12 576.146 32.3573  15
  -4  -8  11 398.846 33.1505  15
  -4  -8  10 838.939 52.2376  15
  -4  -8   9 1377.63 73.4195  15
   4  -8  -8 2509.07 114.798  13
  -4  -8   8 2683.25 109.261  15
   4  -8  -7 96.3694 35.7103  13
  -4  -8   7 52.3099 27.5330  15
   4  -8  -6 345.067 42.4038  13
  -4  -8   6 323.999 35.4926  15
   4  -8  -5 334.659 30.1753  11
   4  -8  -5 349.962 40.7887  13
  -4  -8   5 359.420 36.8519  15
  -4  -8   4 441.355 38.4347  15
   4  -8  -4 391.741 37.6973  13
   4  -8  -3 4091.01 154.012  13
  -4  -8   3 4181.14 157.533  15
  -4  -8   2 10249.6 351.002  22
   4  -8  -2 10156.3 348.598  14
  -4  -8   2 10631.2 350.012  15
  -4  -8   1 585.212 43.3838  22
  -4  -8   1 532.037 40.9706  15
   4  -8  -1 501.264 39.7523  14
   4   8  -1 610.920 43.0948  17
   4  -8   0 5509.43 251.381   1
  -4  -8   0 6305.46 214.937  22
   4   8   0 6063.09 210.592  17
  -4  -8   0 5618.73 211.685  15
   4  -8   0 5879.52 209.082  14
   4  -8   1 298.207 33.7153  12
   4  -8   1 345.173 56.1735   1
  -4  -8  -1 337.671 35.9019  22
  -4  -8  -1 350.513 34.9326  15
   4   8   1 309.887 32.7491  17
   4  -8   2 1178.43 65.5214  12
   4  -8   2 949.004 87.8118   1
   4  -8   2 1006.91 68.1617  19
   4   8   2 1025.54 67.1563  20
  -4  -8  -2 1066.64 61.8074  22
  -4  -8  -2 1071.86 61.3146  15
   4  -8   3 417.661 43.4744  12
   4  -8   3 437.239 50.2737  19
   4   8   3 512.487 52.9489  20
  -4  -8  -3 441.022 44.6467  16
  -4  -8  -3 499.435 43.5620  15
   4  -8   4 5547.14 210.757  12
   4   8   4 5356.73 214.663  20
  -4  -8  -4 5438.89 205.153  16
   4  -8   5 96.3905 36.0620  12
   4   8   5 180.871 45.1596  20
   4   8   5 88.2870 30.6912  19
   4  -8   5 172.534 42.8962  19
  -4  -8  -5 151.157 38.4055  16
   4   8   6 31.8974 41.2818  20
   4  -8   6 25.1718 33.6725  19
   4   8   6 43.5045 29.8785  19
  -4  -8  -6 4.92843 30.6096  16
   4  -8   7 1366.61 82.0726  19
   4   8   7 1174.74 84.0630  20
   4   8   7 1177.34 73.6687  19
  -4  -8  -7 1286.53 75.9440  16
   4  -8   7 1220.33 78.6326  12
   4  -8   8 389.607 47.3378  12
   4  -8   8 397.231 47.1291  19
   4   8   8 319.947 41.8250  19
  -4  -8  -8 403.078 45.0278  16
   4   8   9 254.902 35.4035  19
   4  -8   9 304.949 40.5813  19
   4   8  10 153.029 25.7511  19
   4  -8  10 169.229 28.4738  19
   4   8  11 89.4737 15.7791  19
  -4  -9  12 472.479 26.2464  15
  -4  -9  11 240.896 24.8403  15
  -4  -9  10 838.845 50.1210  15
  -4  -9   9 965.919 58.5308  15
   4  -9  -8 898.532 63.9724  13
  -4  -9   8 892.355 59.1460  15
   4  -9  -7 700.445 55.3349  13
  -4  -9   7 674.847 51.9125  15
   4  -9  -6 1029.98 66.3764  13
  -4  -9   6 1021.99 61.4731  15
   4  -9  -5 995.858 62.9839  13
  -4  -9   5 1022.01 60.0822  15
   4  -9  -4-7.84953 24.5912  13
  -4  -9   4-2.09408 23.4003  15
   4  -9  -3 575.880 43.8955  13
  -4  -9   3 723.712 48.0881  15
  -4  -9   2 8875.74 305.255  22
   4  -9  -2 8697.31 303.699  14
  -4  -9   2 8816.34 303.817  15
  -4  -9   1 440.827 40.1980  22
   4  -9  -1 423.126 38.0098  14
  -4  -9   1 514.438 39.8130  15
   4   9  -1 481.316 38.7867  17
   4  -9   0 2048.86 94.1401  12
  -4  -9   0 2059.15 97.5650  22
  -4  -9   0 2383.88 99.0061  15
   4  -9   0 2216.04 95.4610  14
   4  -9   1 294.817 35.7314  12
  -4  -9  -1 278.856 34.0242  22
  -4  -9  -1 263.003 33.4769  15
   4  -9   1 274.818 30.7396  14
   4  -9   2 248.119 35.3500  12
   4   9   2 242.431 41.7113  20
  -4  -9  -2 210.756 32.0472  15
   4   9   3 5531.13 225.167  20
  -4  -9  -3 6057.92 218.643  16
   4  -9   3 5967.93 220.398  12
  -4  -9  -3 5730.77 217.642  15
   4   9   4 6791.59 258.857  20
  -4  -9  -4 6757.20 248.721  16
   4  -9   4 6854.21 253.310  12
   4  -9   5 1961.05 103.219  19
   4   9   5 1922.08 105.881  20
   4   9   5 1559.83 85.3928  19
   4  -9   5 1748.79 95.6359  12
  -4  -9  -5 1811.07 93.2217  16
   4  -9   6 2409.42 117.711  19
   4   9   6 2202.66 118.135  20
   4   9   6 2080.19 104.149  19
  -4  -9  -6 2465.16 110.470  16
   4  -9   7 514.292 53.5943  19
   4   9   7 469.939 45.3253  19
  -4  -9  -7 514.790 49.8443  16
   4  -9   8 461.197 48.6330  19
   4   9   8 324.365 39.8284  19
  -4  -9  -8 438.431 44.8833  16
   4  -9   8 482.267 46.7499  12
   4  -9   9 70.4420 26.8474  19
   4   9   9 63.4861 23.5727  19
   4   9  10 16.2253 16.9903  19
   4   9  11 51.9069 14.2095  20
  -4 -10  11 393.898 27.4825  15
  -4 -10  10 25.2033 18.4258  15
  -4 -10   9 67.7534 23.3161  15
  -4 -10   8 58.0407 25.8558  15
   4 -10  -8 24.8408 31.7830  13
  -4 -10   7 6.62958 23.8452  15
   4 -10  -7 46.9577 33.4893  13
   4 -10  -6 74.1952 33.2666  13
  -4 -10   6 47.2805 25.5046  15
  -4 -10   5 308.298 36.0432  15
   4 -10  -5 254.334 36.8603  13
   4 -10  -4 138.411 30.7842  13
  -4 -10   4 141.935 29.0572  15
  -4 -10   3 338.378 36.6914  22
   4 -10  -3 278.057 33.3062  13
  -4 -10   3 250.355 33.6300  15
  -4 -10   2 1381.81 74.4485  22
   4 -10  -2 1387.79 75.1008  14
  -4 -10   2 1409.40 74.6159  15
  -4 -10   1 298.792 37.7802  22
   4 -10  -1 361.509 37.8993  14
  -4 -10   1 360.373 37.6688  15
  -4 -10   0 635.178 48.7050  22
  -4 -10   0 634.634 48.4727  15
   4 -10   0 574.556 46.3975  14
   4 -10   1 241.171 33.2516  12
  -4 -10  -1 266.146 36.3604  22
  -4 -10  -1 244.680 35.3403  15
   4 -10   1 231.476 30.3290  14
   4  10   2 1412.85 87.6173  20
  -4 -10  -2 1569.40 82.4057  15
   4 -10   2 1518.21 80.6092  12
   4 -10   3 30.6825 29.0618  12
   4  10   3 100.466 42.5400  20
  -4 -10  -3 71.0850 28.7691  15
  -4 -10  -3 62.0171 34.9265  16
   4 -10   4 1440.14 88.8685  19
   4  10   4 1510.09 93.0385  20
  -4 -10  -4 1356.74 79.7627  16
   4 -10   4 1566.22 86.2904  12
   4  10   5 3039.18 142.795  20
   4 -10   5 2877.89 139.522  19
  -4 -10  -5 3123.99 133.135  16
   4 -10   5 2863.89 132.828  12
   4 -10   6 554.604 55.0658  19
   4  10   6 368.458 39.4984  19
  -4 -10  -6 528.715 51.1279  16
   4 -10   6 485.852 50.5950  12
   4 -10   7 35.2005 34.7700  19
   4  10   7 55.1738 24.6279  19
  -4 -10  -7 44.5342 33.1615  16
   4 -10   8 88.2059 30.8154  19
   4  10   8 45.7779 23.1691  19
  -4 -10  -8 134.398 31.7852  16
   4  10  10-5.09636 20.0201  20
  -4 -11  11 2422.90 85.2037  22
  -4 -11  11 2181.74 83.3842  15
  -4 -11  10 1200.94 56.5494  15
  -4 -11   9 48.4786 21.0812  15
  -4 -11   8 43.7653 23.1376  15
   4 -11  -8 16.3414 28.4635  13
   4 -11  -7 201.616 37.4392  13
  -4 -11   7 138.024 29.0568  15
   4 -11  -6 1629.01 86.8207  13
  -4 -11   6 1919.46 89.2483  15
   4 -11  -5 141.797 32.9502  13
  -4 -11   5 176.499 30.5941  15
  -4 -11   4 493.875 45.3369  22
   4 -11  -4 437.786 41.7984  13
  -4 -11   4 471.415 42.2015  15
  -4 -11   3 2844.30 119.628  22
  -4 -11   3 2854.34 118.006  15
  -4 -11   2 73.9536 29.2583  22
  -4 -11   2 42.4089 25.9118  15
   4 -11  -2 31.4247 27.6545  14
  -4 -11   1 206.409 34.5007  22
  -4 -11   1 219.702 35.1314  15
   4 -11  -1 190.881 33.3927  14
  -4 -11   0 378.690 41.4657  22
  -4 -11   0 337.119 39.3813  15
   4 -11   0 403.957 39.8241  14
   4  11   1 3576.03 152.477  20
  -4 -11  -1 3657.27 146.616  22
  -4 -11  -1 3663.01 145.491  15
   4 -11   1 3291.45 139.192  14
   4 -11   1 3354.88 138.702  12
   4  11   2 1068.05 74.2416  20
  -4 -11  -2 1027.37 64.9517  15
   4 -11   2 924.481 61.8795  12
   4 -11   2 902.278 58.4646  14
   4  11   3 1353.42 86.6647  20
  -4 -11  -3 1345.57 78.5513  16
  -4 -11  -3 1380.41 78.1521  15
   4 -11   3 1260.50 76.5568  12
   4 -11   4 256.731 40.7509  12
   4  11   4 304.527 52.3006  20
  -4 -11  -4 261.638 44.5175  16
   4 -11   5 469.578 47.6595  12
  -4 -11  -5 428.577 48.3783  16
  -4 -11  -6 619.933 53.5044  16
   4 -11   6 562.614 51.2564  12
  -4 -11  -7 124.309 33.2706  16
  -4 -11  -8 613.994 46.3521  16
   4  11   9 776.913 48.9285  20
   4  11  10 19.9992 13.9093  20
  -4 -12  10 73.1846 16.6691  22
  -4 -12  10 60.1238 15.4746  15
  -4 -12   9 628.836 39.5087  22
  -4 -12   9 608.453 39.0186  15
   4 -12  -8 490.546 42.3495  13
  -4 -12   8 421.658 36.3505  15
   4 -12  -7 251.713 38.4096  13
  -4 -12   7 310.525 34.1432  15
  -4 -12   6 1149.17 65.0618  22
  -4 -12   6 1226.56 66.4741  15
  -4 -12   5 1945.73 91.5912  22
   4 -12  -5 1789.49 88.7312  13
  -4 -12   5 1911.54 91.3061  15
  -4 -12   4 32.0383 28.4231  22
   4 -12  -4 9.59881 26.1474  13
  -4 -12   4 20.0237 26.8602  15
  -4 -12   3 162.966 31.8565  22
   4 -12  -3 132.256 27.6588  13
  -4 -12   3 144.579 31.9292  15
  -4 -12   2 1026.01 66.3013  22
   4 -12  -2 1061.88 66.8302  14
  -4 -12   2 1060.89 65.4692  15
  -4 -12   1 1069.03 67.7829  22
  -4 -12   1 1084.13 67.9880  15
   4 -12  -1 1145.77 68.4184  14
  -4 -12   0 5049.95 194.131  22
  -4 -12   0 5139.72 194.121  15
   4 -12   0 4873.69 189.991  14
  -4 -12  -1 7049.94 260.431  22
   4  12   1 7726.24 271.221  20
  -4 -12  -1 6903.54 259.509  15
   4 -12   1 7046.02 256.144  14
   4  12   2 3466.39 147.991  20
   4 -12   2 3117.75 130.472  12
  -4 -12  -2 3249.37 138.069  15
   4 -12   2 2939.01 128.470  14
   4  12   3 5584.12 221.670  20
   4 -12   3 5271.73 206.604  12
  -4 -12  -3 5836.38 212.207  16
   4 -12   3 5573.30 204.985  14
   4 -12   4 235.242 36.9411  12
  -4 -12  -4 308.418 44.1836  16
  -4 -12  -5 3262.93 134.278  16
   4 -12   5 2989.77 132.346  12
  -4 -12  -6 233.974 38.8573  16
  -4 -12  -7 232.607 35.5443  16
   4  12   8 160.224 30.9364  20
   4  12   9 644.824 39.5156  20
  -4 -13  10 77.5205 12.1685  15
  -4 -13   9 546.516 33.0413  15
  -4 -13   8 654.422 41.6022  15
  -4 -13   7 419.110 37.1744  22
   4 -13  -7 384.770 37.9458  13
  -4 -13   7 420.714 35.6076  15
  -4 -13   6 898.055 58.1717  22
   4 -13  -6 964.767 57.5723  13
  -4 -13   6 922.434 56.6099  15
  -4 -13   5 139.913 30.1794  22
   4 -13  -5 71.1737 28.4358  13
  -4 -13   5 122.408 29.4258  15
  -4 -13   4 543.134 46.9938  22
   4 -13  -4 495.779 42.3227  13
  -4 -13   4 621.988 48.2966  15
  -4 -13   3 206.522 33.7460  22
   4 -13  -3 215.315 28.2929  13
  -4 -13   3 164.145 33.4987  15
  -4 -13   2 5601.29 210.141  22
  -4 -13   2 5600.82 209.948  15
  -4 -13   1 2732.43 120.205  22
  -4 -13   1 2792.03 119.119  15
   4 -13  -1 2522.08 116.184  14
  -4 -13   0 123.377 32.0326  22
   4 -13   0 76.5317 29.4432  14
  -4 -13   0 94.3001 31.5813  15
   4  13   1 163.534 42.5911  20
   4 -13   1 99.2048 29.2642  14
  -4 -13  -1 136.784 34.1244  15
   4  13   2-5.92174 36.6551  20
  -4 -13  -2 4.83824 28.0399  15
   4 -13   2 10.6648 23.7470  14
  -4 -13  -2 39.4680 32.0154  16
   4 -13   3 125.109 27.9187  14
  -4 -13  -3 100.214 36.5094  16
   4 -13   4 49.8438 23.7882  14
  -4 -13  -4 26.4366 34.3081  16
   4 -13   5 205.566 28.1630  14
  -4 -13  -5 195.644 37.7807  16
  -4 -13  -6 77.9144 29.2182  16
   4  13   7 196.799 34.7340  20
  -4 -13  -7 229.334 30.1134  16
   4  13   8 6.87250 20.1869  20
  -4 -14   9 17.3584 11.3951  15
  -4 -14   8 508.600 32.7348  15
  -4 -14   7 2466.48 99.0532  15
  -4 -14   6 307.949 32.6252  15
   4 -14  -6 260.350 30.3482  13
  -4 -14   5 331.503 34.6597  15
   4 -14  -5 229.789 30.7304  13
  -4 -14   4 800.066 53.6836  15
  -4 -14   3 435.390 42.1794  15
  -4 -14   2 17.2741 27.2256  15
  -4 -14   1-17.7591 28.8061  22
  -4 -14   1-2.21337 26.5413  15
   4 -14  -1 2.17858 26.2954  14
  -4 -14   0 276.755 40.4625  22
   4  14   0 408.215 51.9579  20
  -4 -14   0 390.893 41.7487  15
   4 -14   0 414.398 42.4732  14
   4  14   1 49.7897 39.2757  20
   4 -14   1 25.0568 26.6522  14
  -4 -14  -1 29.4910 26.8595  15
  -4 -14  -2 96.5218 31.0610  15
   4 -14   2 73.4779 26.9586  14
  -4 -14  -2 85.5589 34.5967  16
  -4 -14  -3 826.222 57.6501  16
   4 -14   3 689.040 48.7181  14
   4 -14   4 29.2555 20.3925  14
  -4 -14  -4 41.0404 29.5254  16
  -4 -14  -5 438.617 41.3936  16
   4 -14   5 486.805 34.4335  14
   4  14   6 263.537 36.9983  20
  -4 -14  -6 274.345 31.9147  16
   4  14   7 622.815 43.6667  20
  -4 -14  -7 716.975 40.9284  16
   4  14   8 471.522 30.1331  20
  -4 -15   8 367.074 24.4967  22
  -4 -15   8 379.062 24.2903  15
  -4 -15   7 618.148 36.2801  15
  -4 -15   6 477.236 34.3706  15
  -4 -15   5 1111.29 59.2419  15
  -4 -15   4 6.93670 22.3134  15
  -4 -15   3 128.358 26.7650  15
  -4 -15   2 46.6718 24.0424  15
   4  15  -1 2325.88 108.542  20
  -4 -15   1 2168.46 101.001  15
   4  15   0 188.611 42.4036  20
  -4 -15   0 114.105 29.1514  15
   4 -15   0 164.453 30.0468  14
  -4 -15  -1 16.2775 25.3492  15
   4 -15   1 20.4482 24.0605  14
   4 -15   2 32.9909 22.6805  14
   4 -15   3 402.022 34.4138  14
   4 -15   4 1019.22 52.2707  14
   4  15   5 194.725 33.8912  20
   4  15   6 82.9175 25.0826  20
   4  15   7 162.195 20.6221  20
  -4 -16   7 1435.10 54.9417  22
  -4 -16   7 1329.06 55.0679  15
  -4 -16   6 583.118 34.4591  22
  -4 -16   6 645.200 35.2612  15
  -4 -16   5 300.475 26.4487  22
  -4 -16   5 261.319 26.2293  15
  -4 -16   4 272.646 29.1223  22
  -4 -16   4 314.915 30.0765  15
  -4 -16   3 27.5191 20.9793  22
  -4 -16   3-1.55547 20.5247  15
   4  16  -2 338.261 39.1070  20
  -4 -16   2 276.034 33.0571  15
   4  16  -1 330.390 40.8668  20
  -4 -16   1 301.921 33.1948  15
  -4 -16   0 555.897 44.0143  15
   4 -16   1 82.9921 23.5854  14
   4 -16   2 15.3809 19.0452  14
   4 -16   3 23.9652 16.9050  14
   4  16   4 65.7204 26.7216  20
   4  16   5 96.8952 23.6738  20
   4  16   6 16.0124 13.5517  20
   4  17  -5 1.96112 16.7373  20
   4  17  -4 641.736 40.1435  20
  -4 -17   4 601.766 35.4600  15
   4  17  -3-11.5829 23.0962  20
  -4 -17   3 1.19991 16.2970  15
   4  17  -2 31.6133 24.3078  20
  -4 -17   2-25.9777 19.3249  15
  -4 -17   2 28.8661 18.9351  16
  -4 -17   1 331.919 29.9751  16
  -4 -17   1 281.076 29.2500  15
  -4 -17   0 3516.16 129.637  16
  -4 -17  -1 429.186 32.8968  16
  -4 -17  -2-5.72957 18.0408  16
   4  17   3 12.3023 21.0352  20
  -4 -17  -3 34.2138 17.6883  16
   4  17   4 993.689 47.3782  20
  -4 -17  -4 834.191 41.8682  16
   4  18  -3 439.821 28.6911  20
  -4 -18   3 375.440 23.5133  16
   4  18  -2 20.5614 17.7383  20
  -4 -18   2-2.24703 12.8275  16
  -4 -18   1 8.83128 13.5499  16
  -4 -18   0 152.732 18.5626  16
  -4 -18  -1 47.5785 14.4515  16
   4  18   2-11.6800 15.0590  20
  -4 -18  -2-3.94189 11.0878  16
   5   0 -13 15.0531 14.3284   6
   5   0 -12 24.5023 21.9282   6
   5   0 -11-8.92291 24.3011   5
   5   0 -10 2272.58 104.149   5
   5   0  -9-29.6205 58.4129   2
   5   0  -9 6.67955 27.6484   5
   5   0  -8 432.256 84.3591   2
   5   0  -8 422.032 44.1765   5
   5   0  -8 440.203 48.2974  11
   5   0  -7 56.2391 51.5699   2
   5   0  -7-15.0066 26.3742   5
   5   0  -7-2.58952 28.3827  11
   5   0  -6 69.7134 54.9962   2
   5   0  -6 84.3673 27.4910   5
   5   0  -6 102.720 32.5585  11
   5   0  -5-32.1789 48.2340   2
   5   0  -5-4.63628 26.0048  11
   5   0  -4 5291.88 193.671   6
   5   0  -4 5446.92 202.708  11
   5   0  -3 65.8853 57.7620   1
   5   0  -3 4.86381 22.4143   6
   5   0  -2 3948.37 225.470   1
   5   0  -2 4045.41 150.012   6
   5   0  -2 4030.92 151.076  17
   5   0  -1 85.3660 52.8406   1
   5   0  -1 21.6247 20.4472   6
   5   0  -1 18.5548 19.4953  17
   5   0   0 7581.77 258.809   6
   5   0   0 7719.03 343.148   1
   5   0   0 7529.84 264.318  18
   5   0   0 7406.72 260.296  17
   5   0   1 15.9041 56.3054   1
   5   0   1 4.93938 21.7217   6
   5   0   1-18.3458 24.6827  18
   5   0   1 7.38326 22.7082  17
   5   0   2 14111.8 468.015   6
   5   0   2 14347.6 564.897   1
   5   0   2 14277.5 474.302  18
   5   0   3 15.0438 23.9169   6
   5   0   3 8.63639 55.7176   1
   5   0   3-5.80797 20.7980  19
   5   0   3-20.2238 26.1351  18
   5   0   4 3278.97 211.854   1
   5   0   4 3395.77 147.919  21
   5   0   4 3450.85 139.803  19
   5   0   4 3393.16 140.852  18
   5   0   5-19.1378 56.6172   1
   5   0   5-6.06149 35.9918  21
   5   0   5 35.1588 30.2250  19
   5   0   5 23.8096 26.5598  20
   5   0   5 79.3358 34.9540  18
   5   0   6 2268.03 105.137  12
   5   0   6 2027.78 98.9319  20
   5   0   6 1986.10 102.342  19
   5   0   6 2006.94 108.503  21
   5   0   6 2151.22 167.694   1
   5   0   7-23.9748 29.9536  12
   5   0   7-29.6948 58.5596   1
   5   0   7-32.7532 38.0916  21
   5   0   7 24.9382 32.8976  19
   5   0   7 9.73500 29.8488  20
   5   0   8 1680.70 86.4937  20
   5   0   8 1724.14 91.2421  19
   5   0   8 1629.38 82.8985  12
   5   0   9 39.8423 28.4970  19
   5   0  10 2124.12 94.5410  19
   5   0  11-3.81794 18.1497  19
   5   1 -13 40.1298 15.0593   6
   5   1 -12 515.999 37.1786   6
   5   1 -11 357.552 38.0873   5
   5   1 -10 47.5590 28.4087   5
   5   1  -9 226.141 68.6077   2
   5   1  -9 208.200 35.4175   5
   5   1  -8 411.154 84.2922   2
   5   1  -8 357.966 40.6133   5
   5   1  -8 350.362 43.9431  11
   5   1  -7 335.584 78.3246   2
   5   1  -7 448.603 43.9341   5
   5   1  -6 4806.75 265.668   2
   5   1  -6 4984.93 187.351   5
   5   1  -6 5136.85 193.591  11
   5   1  -5 8.01825 54.5976   2
   5   1  -5 36.8907 27.3888  11
   5   1  -4 4448.58 165.293   6
   5   1  -4 4406.43 171.001  11
   5   1  -3 5570.82 279.443   1
   5   1  -3 5484.33 195.000   6
   5  -1  -3 5370.28 194.709  17
   5   1  -2 5960.49 282.677   1
   5   1  -2 5527.91 195.701   6
   5  -1  -2 5423.63 200.385  18
   5   1  -2 5455.43 198.274  17
   5   1  -1 1279.46 65.2584   6
   5   1  -1 1418.85 126.998   1
   5  -1  -1 1301.75 69.9124  18
   5   1  -1 1319.36 67.5703  17
   5   1   0 6406.77 297.675   1
   5   1   0 6279.45 215.343   6
   5   1   0 5908.64 219.230  18
   5  -1   0 6053.42 215.885  17
   5   1   1 24.0968 52.4102   1
   5   1   1 19.7660 22.3244   6
   5  -1   1 32.8211 26.8503  18
   5   1   1 16.3188 24.0641  18
   5   1   2 110.125 26.9568   6
   5   1   2 117.674 61.7995   1
   5  -1   2 108.443 33.4195  21
   5  -1   2 108.008 29.9512  18
   5   1   2 78.2613 27.6256  18
   5   1   3 788.022 51.7459   6
   5  -1   3 777.373 50.9568  19
   5   1   3 711.830 52.1670  18
   5  -1   3 802.485 55.1628  18
   5   1   3 880.774 105.258   1
   5   1   4 833.004 63.4490  21
   5  -1   4 848.027 57.0643  19
   5   1   4 806.127 54.1374  19
   5  -1   4 865.204 59.0287  18
   5   1   4 789.311 55.2119  18
   5  -1   4 694.192 61.0996  21
   5   1   4 887.195 107.108   1
   5   1   5 8790.54 314.098  21
   5   1   5 8623.08 302.988  20
   5  -1   5 8606.24 307.416  18
   5  -1   5 8747.53 307.561  19
   5   1   5 8405.90 304.429  19
   5   1   5 8416.02 304.271  18
   5  -1   5 8996.14 316.024  21
   5   1   5 8265.66 392.949   1
   5  -1   6 6067.28 230.159  12
   5  -1   6 5998.75 225.146  20
   5   1   6 6086.79 227.297  20
   5  -1   6 6213.55 232.778  19
   5   1   6 6124.06 231.024  19
   5  -1   6 6063.45 237.043  21
   5   1   6 6490.58 238.960  21
   5   1   6 6006.26 315.732   1
   5  -1   7 3171.16 134.734  12
   5   1   7 3100.69 130.285  12
   5  -1   7 2993.32 131.498  20
   5   1   7 3104.24 135.422  20
   5  -1   7 2947.13 136.363  19
   5   1   7 3181.23 137.377  19
   5  -1   7 3111.10 140.645  21
   5   1   7 3229.50 142.084  21
   5   1   7 2892.47 201.794   1
   5  -1   8 241.463 34.9510  12
   5   1   8 238.332 40.9131  21
   5  -1   8 283.723 41.2924  19
   5   1   8 243.862 37.9949  19
   5   1   8 229.552 37.8614  20
   5  -1   9 340.454 35.4415  12
   5   1   9 415.607 43.5268  20
   5  -1   9 476.076 46.1237  19
   5   1   9 443.178 44.3612  19
   5  -1  10 16.9611 25.2058  19
   5   1  10 21.9552 24.8563  19
   5  -1  11 302.934 28.5144  19
   5   1  11 323.798 28.4085  19
   5   2 -13 23.1236 12.9474   6
   5  -2 -13 10.9844 12.0348   6
   5   2 -12 1803.54 75.5168   6
   5  -2 -12 1711.74 74.8917   6
   5   2 -11 501.716 41.1946   5
   5  -2 -11 448.938 39.3453   5
   5   2 -10 2.01647 26.7569   5
   5  -2 -10 46.1988 28.1843   5
   5   2  -9 41.2832 29.1337   5
   5  -2  -9-4.34241 27.3755   5
   5   2  -8 260.213 71.0972   2
   5  -2  -8 125.264 61.1188   2
   5   2  -8 234.473 36.9943   5
   5  -2  -8 243.741 36.6350   5
   5   2  -8 222.173 36.9476  11
   5  -2  -8 204.330 38.1495  11
   5   2  -7 1744.52 149.655   2
   5  -2  -7 1443.57 137.598   2
   5   2  -7 1570.02 81.4765   5
   5  -2  -7 1654.88 83.3815   5
   5   2  -7 1753.64 88.5312  11
   5  -2  -7 1613.53 87.5080  11
   5   2  -6 1337.46 129.103   2
   5  -2  -6 1447.40 135.241   2
   5   2  -6 1466.35 75.3749   5
   5  -2  -6 1420.22 74.3250   5
   5   2  -6 1519.42 81.3134  11
   5  -2  -6 1431.21 79.8167  11
   5   2  -5 3314.10 202.250   2
   5  -2  -5 3119.17 200.818   2
   5   2  -5 3259.87 132.147   6
   5  -2  -5 3147.58 131.178   6
   5   2  -5 3407.84 138.780  11
   5  -2  -5 3604.67 140.077  11
   5   2  -4 1232.87 64.3510   6
   5  -2  -4 1222.91 64.2108   6
   5   2  -4 1273.95 70.5689  11
   5  -2  -4 1266.24 70.0399  11
   5  -2  -4 1191.63 61.7463  17
   5   2  -3 590.864 89.5168   1
   5  -2  -3 523.743 89.9828   1
   5   2  -3 573.780 41.4835   6
   5  -2  -3 565.587 41.6343   6
   5  -2  -3 582.511 41.2020  17
   5  -2  -3 527.289 44.4714  18
   5   2  -2 1327.84 66.3046   6
   5  -2  -2 1263.14 66.4175   6
   5  -2  -2 1501.85 71.1607  18
   5   2  -2 1486.33 129.102   1
   5  -2  -2 1383.27 124.494   1
   5   2  -1 474.892 37.3081   6
   5  -2  -1 458.626 37.4651   6
   5   2  -1 429.032 74.2930   1
   5  -2  -1 472.392 78.9765   1
   5  -2  -1 542.090 42.0693  18
   5   2   0 16812.9 536.852   6
   5  -2   0 16383.2 536.237   6
   5   2   0 16287.0 625.872   1
   5  -2   0 16644.9 626.497   1
   5  -2   0 16630.7 542.688  18
   5   2   0 16083.8 543.945  18
   5  -2   0 16392.0 537.945  17
   5   2   0 16546.9 540.237  17
   5   2   1 626.695 42.4449   6
   5  -2   1 565.699 41.1170   6
   5   2   1 611.936 89.0899   1
   5  -2   1 540.286 84.3699   1
   5  -2   1 617.045 49.9943  21
   5   2   1 550.547 45.0451  18
   5   2   1 592.713 43.8130  17
   5   2   2 980.200 57.9777   6
   5  -2   2 1017.01 58.0944   6
   5   2   2 1097.98 115.166   1
   5  -2   2 1096.09 112.011   1
   5  -2   2 872.246 55.8997  19
   5  -2   2 1051.22 63.6906  18
   5   2   2 1014.06 61.1564  18
   5  -2   2 1196.83 69.1898  21
   5  -2   3 320.822 35.5869   6
   5   2   3 317.505 34.7861   6
   5   2   3 384.828 77.5995   1
   5  -2   3 292.565 71.1419   1
   5  -2   3 300.587 35.4410  19
   5  -2   3 355.329 40.2213  18
   5   2   3 226.981 34.0017  18
   5  -2   4 930.726 61.9241  19
   5   2   4 855.417 57.1601  20
   5   2   4 1001.01 59.0870  19
   5  -2   4 1035.48 64.0399  18
   5   2   4 927.564 60.1638  18
   5  -2   4 977.398 69.6822  21
   5   2   4 1013.58 112.626   1
   5  -2   4 1077.71 114.276   1
   5   2   5 1249.73 79.8098  21
   5  -2   5 1156.63 79.4741  21
   5   2   5 1175.33 70.4576  20
   5  -2   5 1252.58 75.0941  19
   5   2   5 1202.58 70.2988  18
   5   2   5 1228.28 70.7746  19
   5  -2   5 996.518 118.972   1
   5   2   5 1106.34 124.022   1
   5  -2   6 4821.55 191.273  12
   5   2   6 5065.86 196.296  21
   5   2   6 4738.73 187.683  20
   5  -2   6 4905.24 192.461  19
   5   2   6 4784.20 188.505  19
   5  -2   6 4724.37 196.925  21
   5   2   6 4237.19 260.667   1
   5  -2   6 4929.96 274.412   1
   5  -2   7 442.311 49.3889  12
   5   2   7 405.073 50.3978  21
   5  -2   7 504.677 52.5244  19
   5   2   7 492.609 48.5463  19
   5   2   7 449.978 48.2544  20
   5   2   7 539.723 94.1148   1
   5  -2   7 428.426 84.3175   1
   5  -2   8 255.364 38.5128  12
   5   2   8 293.320 41.8693  21
   5  -2   8 291.268 44.0019  19
   5   2   8 245.164 39.7106  19
   5   2   8 287.379 40.9146  20
   5  -2   9 17.1690 22.7279  12
   5  -2   9-14.1684 29.5940  19
   5   2   9 38.0917 28.1659  19
   5   2   9 15.0952 29.0651  20
   5  -2  10 558.114 44.5921  19
   5   2  10 651.048 44.5603  19
   5   2  11 100.189 20.1822  19
   5  -3 -13 151.413 15.3632   6
   5   3 -13 172.099 15.5343   6
   5   3 -12 321.531 28.9928   6
   5  -3 -12 342.325 28.9126   6
  -5  -3  11 103.706 18.2624  15
   5   3 -10 190.605 32.1129   5
   5  -3 -10 198.035 31.1298   5
  -5  -3  10 188.989 24.9101  15
   5   3  -9 31.4738 26.3955   5
   5  -3  -9 25.2374 27.5414   5
  -5  -3   9 43.3452 19.9832  15
   5   3  -8 555.127 86.0221   2
   5  -3  -8 612.922 91.8717   2
   5   3  -8 531.665 46.6361   5
   5  -3  -8 530.315 46.5810   5
   5   3  -7 725.549 100.215   2
   5  -3  -7 747.793 102.663   2
   5   3  -7 889.326 56.7662   5
   5  -3  -7 863.022 57.1942   5
   5   3  -7 941.985 63.2105  11
   5  -3  -7 816.266 58.0037  11
   5   3  -6 1283.85 125.497   2
   5  -3  -6 1430.80 130.142   2
   5  -3  -6 1369.57 72.4270   5
   5  -3  -6 1363.33 76.4916  11
   5   3  -6 1380.00 76.3602  11
   5   3  -5 2441.97 108.068  11
   5   3  -5 2440.68 102.494   6
   5  -3  -5 2304.25 101.649   6
   5  -3  -5 2383.00 107.490  11
   5  -3  -5 2287.24 100.751  18
   5  -3  -4 4434.97 167.617  11
   5   3  -4 4246.30 159.996   6
   5  -3  -4 4240.74 160.247   6
   5   3  -4 4626.07 168.972  11
   5  -3  -4 4195.90 161.990  18
   5  -3  -4 4137.23 155.786  17
   5   3  -3 1813.00 81.0355   6
   5  -3  -3 1704.98 80.0725   6
   5  -3  -3 2108.18 153.367   1
   5   3  -3 1951.47 147.395   1
   5  -3  -3 1859.01 85.6248  18
   5  -3  -3 1842.25 79.1214  17
   5   3  -2 87.3217 58.8594   1
   5  -3  -2 190.053 59.7170   1
   5   3  -2 74.7171 23.5053   6
   5  -3  -2 76.2959 23.3162   6
   5  -3  -2 89.5981 25.0156  18
   5   3  -1 1151.91 60.1627   6
   5  -3  -1 1175.65 59.9895   6
   5   3  -1 1101.57 109.143   1
   5  -3  -1 1231.48 114.913   1
   5  -3  -1 1195.01 63.9575  18
   5   3  -1 1107.71 62.1726  17
   5   3   0 2759.12 110.407   6
   5  -3   0 2791.03 110.161   6
   5   3   0 2768.47 178.606   1
   5  -3   0 2863.74 177.808   1
   5  -3   0 2697.64 116.316  18
   5  -3   0 2650.33 117.573  21
   5   3   0 2798.04 114.286  17
   5   3   1 6651.58 234.439   6
   5  -3   1 6593.54 233.802   6
   5   3   1 7223.34 324.161   1
   5  -3   1 7046.59 319.064   1
   5   3   1 6463.95 239.613  18
   5  -3   1 6586.12 240.614  18
   5  -3   1 6987.64 247.651  21
   5   3   1 6864.15 239.359  17
   5   3   2 14.0171 24.4086   6
   5  -3   2 43.3557 25.1968   6
   5   3   2 33.7415 52.5370   1
   5  -3   2 49.2708 58.6944   1
   5  -3   2 2.04486 23.9581  19
   5  -3   2 7.78482 29.4403  21
   5   3   2 42.1704 27.4452  18
   5   3   3 334.637 35.8264   6
   5  -3   3 349.573 35.6561   6
   5   3   3 290.492 72.8079   1
   5  -3   3 326.758 70.6595   1
   5  -3   3 320.942 37.2050  19
   5  -3   3 327.701 44.9743  21
   5   3   3 283.975 35.9160  20
   5  -3   3 333.965 40.9336  18
   5   3   3 282.411 35.8895  18
   5   3   4 64.3601 59.4655   1
   5  -3   4 217.282 62.4047   1
   5  -3   4 144.753 32.7576  19
   5   3   4 131.237 27.3776  19
   5   3   4 163.069 31.5113  20
   5  -3   4 182.962 35.9559  18
   5   3   4 78.9777 29.0120  18
   5   3   5 4043.13 173.131  21
   5  -3   5 4263.95 168.978  19
   5   3   5 4028.74 164.084  20
   5   3   5 3940.32 159.314  18
   5   3   5 4011.38 161.670  19
   5  -3   5 4256.00 174.372  21
   5   3   5 4222.54 244.081   1
   5  -3   5 4184.19 243.180   1
   5  -3   6 2964.36 131.911  12
   5   3   6 2809.15 198.024   1
   5  -3   6 3142.09 205.782   1
   5   3   6 2789.49 134.193  21
   5   3   6 2721.14 128.276  20
   5  -3   6 2996.24 133.225  19
   5   3   6 3041.35 129.081  19
   5   3   7 5281.49 287.374   1
   5  -3   7 4978.20 284.847   1
   5   3   7 5544.61 211.514  20
   5  -3   7 5381.48 213.322  19
   5   3   7 5492.79 209.948  19
   5   3   7 5507.18 214.924  21
   5  -3   7 5766.67 212.192  12
   5   3   8 522.830 52.4140  20
   5  -3   8 613.403 54.8622  19
   5   3   8 533.961 49.1474  19
   5   3   8 487.620 48.3257  21
   5  -3   8 581.622 50.5199  12
   5  -3   9 174.753 31.0349  12
   5  -3   9 148.558 33.9245  19
   5   3   9 91.8681 29.0529  19
   5   3   9 168.320 36.4372  20
   5   3  10 36.0442 21.8772  19
   5   3  11 451.881 30.5275  19
   5   4 -12 16.1045 17.4188   6
   5  -4 -12 32.0383 16.4566   6
   5   4 -11 111.465 25.2638   6
  -5  -4  11 74.1029 17.4579  15
  -5  -4  10 710.118 44.3538  15
   5   4  -9 522.822 44.3515   5
   5  -4  -9 542.952 45.5360   5
  -5  -4   9 526.040 39.7620  15
   5   4  -8 489.107 81.5773   2
   5  -4  -8 537.593 85.7934   2
   5   4  -8 494.293 43.9628   5
   5  -4  -8 530.596 44.6494   5
  -5  -4   8 404.920 37.0209  15
   5   4  -7 316.965 71.4652   2
   5  -4  -7 337.657 72.1083   2
   5  -4  -7 332.378 38.9001   5
   5   4  -7 450.402 43.9213  11
   5  -4  -7 393.084 42.7858  11
  -5  -4   7 309.487 32.8736  15
   5   4  -6 141.432 59.2220   2
   5  -4  -6 193.459 62.0636   2
   5   4  -6 200.118 32.1226   6
   5  -4  -6 213.849 32.6621   6
   5   4  -6 180.419 33.1152  11
   5  -4  -6 209.254 33.1466  11
   5   4  -5 1243.92 66.9053   6
   5  -4  -5 1256.70 67.0936   6
   5   4  -5 1405.16 72.8542  11
   5  -4  -5 1250.51 71.1888  11
   5   4  -4 280.718 31.6459   6
   5  -4  -4 272.819 31.6261   6
   5   4  -4 293.210 35.3264  11
   5  -4  -4 256.850 35.4265  11
   5  -4  -4 282.301 31.6749  18
   5   4  -3 202.984 60.3657   1
   5  -4  -3 138.515 58.4663   1
   5  -4  -3 146.125 25.9981   6
   5   4  -3 182.170 26.7943   6
   5  -4  -3 176.429 27.5302  18
   5   4  -2 1688.59 76.7821   6
   5  -4  -2 1681.78 76.6271   6
   5   4  -2 1791.96 138.614   1
   5  -4  -2 1746.32 137.448   1
   5  -4  -2 1762.76 81.1030  18
   5   4  -1 38.9526 48.5167   1
   5   4  -1-3.09852 19.8762   6
   5  -4  -1-6.15755 20.0312   6
   5  -4  -1 15.5250 51.2052   1
   5   4  -1 5.77769 21.5205  17
   5  -4  -1-3.94353 23.7211  18
   5   4   0 508.021 38.4107   6
   5  -4   0 476.074 37.9862   6
   5   4   0 521.696 78.7419   1
   5  -4   0 392.286 73.7602   1
   5  -4   0 483.756 42.0344  18
   5  -4   0 499.879 43.5453  21
   5   4   0 532.763 41.6855  17
   5   4   1 3224.72 127.459   6
   5  -4   1 3344.32 127.751   6
   5   4   1 3093.45 194.953   1
   5  -4   1 3163.91 194.095   1
   5  -4   1 3373.13 136.820  18
   5  -4   1 3176.58 131.327  19
   5  -4   1 3308.38 138.593  21
   5   4   1 3251.34 134.111  18
   5   4   1 3393.08 133.054  17
   5   4   2 2081.27 94.4250   6
   5  -4   2 2216.96 95.2594   6
   5  -4   2 2233.09 101.043  19
   5  -4   2 2199.26 102.516  18
   5   4   2 2241.46 100.838  18
   5  -4   2 2311.87 107.233  21
   5   4   2 2158.05 160.026   1
   5  -4   2 2398.39 164.139   1
   5  -4   3 3121.34 133.549  19
   5   4   3 2988.48 129.766  20
   5   4   3 3180.72 128.749  18
   5  -4   3 3210.10 140.166  21
   5   4   3 3235.18 201.335   1
   5  -4   3 3148.16 198.372   1
   5  -4   4 1852.83 93.0282  19
   5   4   4 1840.48 90.2659  20
   5   4   4 1617.18 83.8838  18
   5   4   4 1819.31 148.931   1
   5  -4   4 1460.11 137.098   1
   5  -4   5 6268.41 223.358  12
   5   4   5 5498.56 294.107   1
   5  -4   5 5619.22 296.554   1
   5  -4   5 5853.12 220.824  19
   5   4   5 5480.13 216.840  20
   5   4   5 5476.90 210.995  19
   5  -4   6 9470.64 320.056  12
   5   4   6 8707.41 403.503   1
   5  -4   6 8436.02 398.277   1
   5   4   6 8937.92 318.958  21
   5  -4   6 8872.72 318.393  19
   5   4   6 8945.72 315.092  20
   5   4   6 8768.22 310.304  19
  -5  -4  -6 8220.38 300.254  16
   5  -4   7 1125.19 74.3934  19
   5   4   7 1160.26 74.7357  20
   5   4   7 1076.60 69.0261  19
   5   4   7 1143.20 74.8612  21
   5  -4   7 1172.44 73.9692  12
   5  -4   8 126.774 35.0131  12
   5   4   8 108.792 30.4724  21
   5  -4   8 137.911 38.3920  19
   5   4   8 55.9444 29.0312  19
   5   4   8 110.757 36.0391  20
   5  -4   9 270.795 33.5320  12
   5   4   9 263.378 35.0723  19
   5   4   9 304.746 39.6640  20
   5   4  10 20.8250 20.4256  19
   5   4  10 35.2039 24.3745  20
   5   4  11 93.1745 16.1013  19
   5   5 -12 137.429 16.7054   6
   5  -5 -12 143.873 17.8576   6
   5   5 -11 431.669 32.8500   6
   5  -5 -11 436.228 32.4373   6
  -5  -5  11 338.275 28.2716  15
   5   5 -10 517.434 40.2299   6
   5  -5 -10 516.394 40.4074   6
  -5  -5  10 485.612 36.0985  15
   5   5  -9 629.600 45.8899   6
   5  -5  -9 543.219 44.5252   6
  -5  -5   9 562.597 41.9372  15
   5   5  -8 256.289 66.2685   2
   5  -5  -8 259.477 69.1500   2
   5  -5  -8 308.202 37.4386   6
   5   5  -8 390.157 39.0204   6
  -5  -5   8 371.470 35.4746  15
   5   5  -7 160.222 56.4539   2
   5  -5  -7 239.324 63.5115   2
   5   5  -7 189.505 31.1433   6
   5  -5  -7 135.134 31.2424   6
   5   5  -7 164.932 32.5055  11
   5  -5  -7 140.480 32.1971  11
  -5  -5   7 164.319 26.7363  15
   5   5  -6 168.748 28.6767   6
   5  -5  -6 162.010 31.3426   6
   5   5  -6 145.330 29.8666  11
   5  -5  -6 134.570 29.5831  11
  -5  -5   6 107.763 24.3644  15
   5   5  -5 3569.28 138.306   6
   5  -5  -5 3567.98 139.026   6
   5   5  -5 3839.93 145.794  11
   5  -5  -5 3550.07 144.122  11
  -5  -5   5 3451.27 136.853  15
   5   5  -4 148.529 25.8114   6
   5  -5  -4 158.048 26.9516   6
   5   5  -4 189.643 30.4586  11
   5  -5  -4 151.520 29.7241  11
   5   5  -3 12.6415 20.4573   6
   5  -5  -3 22.1693 21.2392   6
   5   5  -3 42.6778 22.8899  11
   5  -5  -3 16.3145 23.0546  11
   5  -5  -3 16.3944 18.9277  18
   5  -5  -2 117.625 57.0785   1
   5   5  -2 18.5095 19.6892   6
   5  -5  -2 19.9606 19.8260   6
   5   5  -2 31.2330 46.8204   1
  -5  -5   2 17.8901 17.6303  22
   5  -5  -2 32.4156 22.5741  18
   5   5  -1 4760.43 173.383   6
   5  -5  -1 4800.77 173.073   6
   5   5  -1 4865.43 249.737   1
   5  -5  -1 4949.53 251.202   1
   5  -5  -1 4936.39 180.943  18
  -5  -5   1 4754.73 173.887  22
   5   5  -1 4750.81 179.559  17
   5   5   0 3380.89 131.410   6
   5  -5   0 3512.51 132.028   6
   5   5   0 3476.80 202.542   1
   5  -5   0 3485.75 202.827   1
   5  -5   0 3470.16 138.750  18
   5  -5   0 3296.82 139.958  21
   5   5   0 3551.96 138.497  17
   5   5   1 2156.26 93.5982   6
   5  -5   1 2322.40 94.3804   6
   5   5   1 2354.60 160.504   1
   5  -5   1 2460.38 160.874   1
   5  -5   1 2137.20 100.021  19
   5  -5   1 2202.90 102.264  18
  -5  -5  -1 2233.61 93.6453  22
   5  -5   1 2068.69 103.938  21
   5   5   1 2102.73 100.202  18
   5   5   1 2208.28 99.7218  17
   5   5   2 3811.54 150.315   6
   5  -5   2 3909.69 150.298   6
   5   5   2 4090.84 226.872   1
   5  -5   2 4210.49 227.512   1
   5   5   2 3852.31 154.811  18
   5  -5   2 4077.24 160.750  19
   5   5   2 3851.55 156.159  20
   5  -5   2 4192.53 161.237  18
   5  -5   2 4283.81 166.082  21
  -5  -5  -2 4068.18 150.868  16
   5   5   3 1077.90 113.173   1
   5  -5   3 1052.56 111.852   1
   5  -5   3 1004.71 65.7271  19
   5   5   3 969.884 63.9743  20
   5   5   3 938.565 59.1870  18
   5  -5   3 896.731 69.0342  21
  -5  -5  -3 1076.76 59.1386  16
   5   5   4 4164.71 244.705   1
   5  -5   4 4341.46 246.090   1
   5  -5   4 4668.50 180.932  19
   5   5   4 4345.14 176.201  20
  -5  -5  -4 4327.27 165.729  16
   5  -5   5 1141.87 72.7809  12
   5   5   5 914.194 110.651   1
   5  -5   5 970.290 110.121   1
   5  -5   5 972.031 68.1194  19
   5   5   5 1020.78 70.2766  20
   5   5   5 832.941 58.7323  19
  -5  -5  -5 1114.98 62.0906  16
   5  -5   6-5.68675 31.5311  12
   5   5   6-37.0099 56.9143   1
   5  -5   6-36.7249 59.9019   1
   5  -5   6-20.7868 35.2547  19
   5   5   6 20.7003 35.3428  21
   5   5   6 7.08141 26.2766  19
   5   5   6 16.8098 33.5945  20
  -5  -5  -6 8.02900 25.8995  16
   5  -5   7 1399.88 82.2280  19
   5   5   7 1151.83 77.8597  20
   5   5   7 1281.16 73.1244  19
   5   5   7 1260.51 77.5940  21
   5  -5   7 1464.68 83.5365  12
   5  -5   8 372.567 45.8710  19
   5   5   8 307.850 37.7268  21
   5   5   8 331.748 38.1132  19
   5   5   8 308.650 42.7403  20
   5  -5   8 384.601 43.0975  12
   5  -5   9 53.1752 26.5300  12
   5   5   9 57.8432 25.1093  19
   5   5   9 57.8837 28.9106  20
   5   5  10-3.86519 17.0899  19
   5   5  10 3.00793 22.1838  20
   5  -5  11 317.753 23.9322  19
   5   6 -11 12.9234 16.1794   6
   5  -6 -11-1.01069 16.9126   6
  -5  -6  11 2.19991 13.9903  15
   5   6 -10 400.290 32.9136   6
   5  -6 -10 394.582 33.7171   6
  -5  -6  10 389.371 32.4500  15
   5   6  -9 27.9116 24.0893   6
   5  -6  -9 36.6682 24.0743   6
  -5  -6   9 50.6141 22.9545  15
   5   6  -8 829.936 52.5535   6
   5  -6  -8 941.061 55.3518   6
  -5  -6   8 835.332 53.8498  15
   5   6  -7 115.059 26.4412   6
   5  -6  -7 140.796 28.4814   6
  -5  -6   7 149.652 27.9622  15
   5   6  -6 28.0111 22.8623   6
   5  -6  -6 49.7948 25.0217   6
   5   6  -6 38.6787 24.1193  11
   5  -6  -6 12.9931 23.4709  11
  -5  -6   6 21.4033 21.2619  15
   5   6  -5 839.131 50.5833   6
   5  -6  -5 900.301 52.1731   6
   5   6  -5 828.385 53.8114  11
   5  -6  -5 781.420 54.0443  11
  -5  -6   5 848.845 51.7412  15
   5   6  -4 685.136 44.4604   6
   5  -6  -4 725.607 46.6709   6
   5   6  -4 774.137 49.1417  11
   5  -6  -4 747.589 49.5429  11
  -5  -6   4 635.627 44.0380  15
   5   6  -3 162.892 28.1852  11
   5  -6  -3 219.233 30.0139  11
   5   6  -3 211.695 27.2546   6
   5  -6  -3 192.838 27.2953   6
  -5  -6   3 204.172 27.9228  22
  -5  -6   3 236.992 26.9340  15
   5   6  -2 2671.16 106.708   6
   5  -6  -2 2702.84 107.065   6
   5   6  -2 2494.88 167.546   1
   5  -6  -2 2347.40 163.766   1
  -5  -6   2 2625.31 110.970  22
   5  -6  -2 2832.24 112.714  18
   5   6  -1 620.188 41.5660   6
   5  -6  -1 591.739 41.3016   6
   5   6  -1 501.933 80.1857   1
   5  -6  -1 558.101 80.9281   1
  -5  -6   1 642.723 43.7000  22
   5  -6  -1 626.321 46.7692  18
   5   6  -1 609.062 48.0379  17
   5   6   0 389.728 33.5546   6
   5  -6   0 326.239 31.3161   6
   5   6   0 252.584 61.4354   1
   5  -6   0 284.184 64.7332   1
   5  -6   0 367.687 37.6524  18
  -5  -6   0 359.877 34.1650  22
   5   6   0 349.105 37.6012  17
   5   6   1 166.755 26.5016   6
   5  -6   1 179.864 26.3077   6
   5   6   1 124.173 49.2273   1
   5  -6   1 233.072 62.0953   1
   5  -6   1 198.884 35.2364  19
  -5  -6  -1 182.174 27.5810  22
   5   6   1 178.241 32.8353  20
   5  -6   1 157.159 32.1855  18
   5   6   1 230.136 31.7212  18
   5   6   1 145.594 30.6410  17
   5   6   2 40.1718 48.8000   1
   5  -6   2 47.9661 46.6521   1
   5  -6   2-2.59355 27.5177  19
   5   6   2-9.30158 28.6088  20
  -5  -6  -2 1.87399 24.9914  16
   5  -6   2 24.5853 27.8861  18
   5   6   2-2.08720 25.1105  18
   5   6   3 109.372 50.4554   1
   5  -6   3 33.3493 47.2974   1
   5   6   3 25.2708 28.8977  20
   5  -6   3 22.1688 29.3014  19
  -5  -6  -3 45.0150 26.2658  16
   5   6   4 1262.51 124.873   1
   5  -6   4 1345.75 123.516   1
   5  -6   4 1310.38 82.2368  19
   5   6   4 1445.31 82.4934  20
  -5  -6  -4 1446.68 74.1932  16
   5  -6   5 3048.20 135.787  12
   5   6   5 2736.58 190.815   1
   5  -6   5 2602.01 186.539   1
   5  -6   5 3114.28 138.003  19
   5   6   5 3012.47 135.485  20
  -5  -6  -5 2940.96 125.512  16
   5  -6   6 3902.82 245.147   1
   5   6   6 4553.73 255.979   1
   5   6   6 4788.60 192.574  21
   5  -6   6 5007.57 194.866  19
   5   6   6 4806.80 193.418  20
   5   6   6 4391.28 180.227  19
  -5  -6  -6 5060.44 183.210  16
   5  -6   6 5213.61 196.014  12
   5  -6   7 840.533 65.1989  19
   5   6   7 878.364 66.0416  20
   5   6   7 806.432 55.9689  19
   5   6   7 846.244 60.3092  21
  -5  -6  -7 808.603 55.9589  16
   5  -6   7 916.389 65.4166  12
   5  -6   8 273.627 38.7000  12
   5   6   8 233.881 31.7730  21
   5   6   8 221.531 31.9466  19
   5   6   8 222.499 40.2406  20
   5  -6   9 32.1583 26.4947  12
   5   6   9 17.3024 21.1730  19
   5   6   9 76.5121 28.3884  20
   5  -6  10 1101.14 55.7175  19
   5   6  10 1053.48 55.1097  20
  -5  -7  11 31.9361 14.2340  15
   5   7 -10 2837.75 107.034   6
  -5  -7  10 2983.95 112.918  15
   5   7  -9 296.749 28.9269   6
   5  -7  -9 256.375 29.1614   6
  -5  -7   9 281.058 30.0760  15
   5   7  -8 7.71700 21.1937   6
   5  -7  -8 45.7850 22.3219   6
  -5  -7   8 32.9667 21.9316  15
   5   7  -7 638.556 42.3656   6
   5  -7  -7 549.757 40.9590   6
  -5  -7   7 519.264 43.0405  15
   5   7  -6 557.193 42.5131  11
   5  -7  -6 512.697 42.5984  11
   5   7  -6 587.617 41.4202   6
   5  -7  -6 590.920 41.7788   6
  -5  -7   6 579.977 43.7651  15
   5   7  -5 454.653 35.1403   6
   5  -7  -5 373.978 33.8462   6
   5   7  -5 370.238 35.6151  11
   5  -7  -5 347.228 35.6022  11
  -5  -7   5 299.986 32.9026  15
   5  -7  -4 190.959 26.6646   6
   5   7  -4 268.573 30.7312  11
   5  -7  -4 187.379 27.8206  11
  -5  -7   4 226.377 30.0456  15
   5   7  -3 1266.42 64.9020  11
   5  -7  -3 1104.29 62.8645  11
   5  -7  -3 1224.21 60.2760   6
  -5  -7   3 1205.68 65.3063  22
  -5  -7   3 1266.66 63.4402  15
   5   7  -2 94.4281 23.9388  11
   5  -7  -2 113.698 24.5681  11
   5  -7  -2 122.030 22.7405   6
  -5  -7   2 94.1804 24.9771  22
   5   7  -2 158.955 31.1141  17
  -5  -7   2 105.577 23.7982  15
   5  -7  -1 24.5752 20.0438   6
   5  -7  -1 88.2224 48.5012   1
  -5  -7   1 29.3092 23.8217  22
   5   7  -1 8.29116 27.2803  17
  -5  -7   1-1.79187 20.6320  15
   5  -7  -1 40.7269 25.5266  18
   5  -7   0 2305.69 96.7458   6
   5   7   0 2456.50 161.327   1
   5  -7   0 2331.18 157.304   1
   5  -7   0 2501.50 107.997  18
   5   7   0 2361.87 106.706  20
  -5  -7   0 2358.38 103.349  22
  -5  -7   0 2332.71 102.025  15
   5   7   0 2541.87 106.393  17
   5  -7   1 7.56894 18.4682   6
   5   7   1 67.8045 40.1431   1
   5  -7   1 37.9253 43.6527   1
  -5  -7  -1 20.2053 21.1831  22
   5   7   1 41.6878 29.2956  20
  -5  -7  -1 45.1322 21.9648  15
   5   7   1 10.7252 22.4863  18
   5   7   1 50.2563 27.5646  17
   5   7   2-7.70603 44.9811   1
   5  -7   2 77.3431 45.7685   1
   5  -7   2 22.0852 30.3949  19
   5   7   2 55.1940 31.7378  20
  -5  -7  -2 37.4108 21.8592  15
  -5  -7  -2 10.2289 27.3012  16
   5   7   2 44.7229 23.8305  18
   5  -7   3 518.270 51.7307  12
   5   7   3 486.236 78.1631   1
   5  -7   3 620.178 82.8103   1
   5  -7   3 541.807 53.0939  19
   5   7   3 512.300 52.7615  20
  -5  -7  -3 568.333 47.0907  16
   5  -7   4 6364.24 243.509  12
   5  -7   4 5643.08 299.794   1
   5  -7   4 6596.61 247.040  19
   5   7   4 6419.68 243.183  20
  -5  -7  -4 6643.93 235.722  16
   5   7   5 8.65979 35.8516  20
   5  -7   5 36.7903 32.8088  19
  -5  -7  -5 24.4894 29.3013  16
   5  -7   6 28.2449 36.4481  12
   5   7   6 2.75543 33.1530  21
   5   7   6 22.2748 22.4618  19
   5   7   6-25.6139 35.5596  20
   5  -7   6 17.8845 35.5101  19
  -5  -7  -6 51.7292 31.7966  16
   5  -7   7 129.512 37.1224  12
   5   7   7 50.1304 28.0960  21
   5   7   7 39.0037 23.3061  19
   5   7   7 68.9269 37.3226  20
  -5  -7  -7 59.4120 29.8985  16
   5  -7   8 269.685 37.6550  12
   5   7   8 225.795 38.2119  20
   5  -7   9 47.2710 24.0139  12
   5   7   9 90.4459 28.6847  20
   5  -7   9 24.1733 26.1945  19
   5  -7  10 515.424 34.0084  19
   5   7  10 451.435 34.6111  20
  -5  -8  11 183.998 17.9068  15
  -5  -8  10 63.9482 18.3255  15
  -5  -8   9 133.470 24.4980  15
  -5  -8   8 5.64711 20.8750  15
   5  -8  -7 157.584 23.7718   6
  -5  -8   7 126.725 27.7549  15
   5  -8  -6 147.162 24.4739   6
  -5  -8   6 188.702 28.4599  15
   5  -8  -5 689.939 44.3603  11
  -5  -8   5 685.195 48.0449  15
   5  -8  -4 787.749 48.4463  11
  -5  -8   4 938.737 56.7038  22
  -5  -8   4 885.185 53.9925  15
   5  -8  -3 212.751 26.6720  11
  -5  -8   3 243.757 32.9794  22
  -5  -8   3 240.691 30.8640  15
   5  -8  -2 279.263 29.3087  11
  -5  -8   2 401.089 37.6909  22
   5   8  -2 326.782 38.6611  17
  -5  -8   2 414.009 36.3560  15
   5  -8  -1 654.658 43.1745  11
  -5  -8   1 758.331 51.5413  22
  -5  -8   1 697.233 48.0492  15
   5   8  -1 698.068 50.0276  17
   5   8   0 1052.42 66.7230  20
  -5  -8   0 1172.00 65.6843  22
  -5  -8   0 1102.28 61.8257  15
   5   8   0 1051.64 63.0131  17
   5  -8   1 42.8299 27.7726  12
  -5  -8  -1 4.35067 26.1720  22
   5   8   1-22.4766 30.8217  20
  -5  -8  -1 2.05458 22.8735  15
   5   8   1 6.30297 23.4792  18
   5   8   1 33.1833 26.5329  17
   5  -8   2 2034.56 98.5817  12
   5   8   2 1847.64 99.0763  20
  -5  -8  -2 2054.61 95.1614  16
  -5  -8  -2 1863.64 91.6906  15
   5  -8   3 1359.41 80.7301  12
   5  -8   3 1307.91 83.8466  19
   5   8   3 1448.56 84.3474  20
  -5  -8  -3 1480.42 77.7249  16
   5  -8   4 357.937 46.0337  12
   5   8   4 294.225 47.4596  20
   5  -8   4 288.779 45.3971  19
  -5  -8  -4 401.849 45.0261  16
   5  -8   5 3157.44 147.121  19
   5   8   5 3388.65 147.566  20
  -5  -8  -5 3353.86 138.762  16
   5  -8   5 3360.21 145.627  12
   5   8   6 184.393 43.3237  20
  -5  -8  -6 176.798 34.5883  16
   5  -8   7 110.010 36.4007  12
   5   8   7 152.675 30.7541  21
   5   8   7 197.919 40.7003  20
  -5  -8  -7 106.244 31.3339  16
   5  -8   8 31.5103 27.5973  12
   5   8   8 57.7066 30.0110  20
   5  -8   8 45.7438 29.8427  19
   5  -8   9 1535.43 73.2493  19
   5   8   9 1553.20 73.7405  20
   5   8  10 206.079 21.9697  20
  -5  -9  11 425.263 25.8060  22
  -5  -9  11 319.560 21.7370  15
  -5  -9  10 766.448 41.0686  15
  -5  -9   9 107.140 21.6759  15
  -5  -9   8 863.132 52.6429  15
  -5  -9   7 643.915 46.5886  15
  -5  -9   6 390.042 37.8967  15
  -5  -9   5 1029.23 60.1879  15
  -5  -9   4 379.004 40.1771  22
  -5  -9   4 482.246 40.2101  15
  -5  -9   3 13.3067 25.1681  22
  -5  -9   3 37.1504 22.9897  15
  -5  -9   2 1030.79 62.6976  22
  -5  -9   2 949.202 58.7395  15
   5   9  -2 942.703 59.6443  17
  -5  -9   1 942.046 61.0963  22
  -5  -9   1 1084.56 61.3193  15
   5   9  -1 974.670 60.1660  17
   5  -9   0 281.766 34.7511  12
  -5  -9   0 257.725 36.0173  22
   5   9   0 320.307 44.0450  20
  -5  -9   0 273.161 34.0543  15
   5   9   0 269.979 35.2621  17
   5  -9   1 1564.79 83.6164  12
   5   9   1 1527.84 87.3269  20
  -5  -9  -1 1661.68 83.8396  22
  -5  -9  -1 1607.94 81.5504  15
   5  -9   2 526.312 50.1337  12
   5   9   2 496.535 53.3529  20
  -5  -9  -2 524.614 50.0444  16
  -5  -9  -2 513.152 45.5314  15
   5   9   3 2167.24 111.003  20
  -5  -9  -3 2144.51 103.022  16
   5  -9   3 2112.86 104.630  12
   5  -9   4 4866.77 199.204  19
   5   9   4 4876.50 196.912  20
   5  -9   4 4856.49 193.575  12
  -5  -9  -4 4827.01 188.041  16
   5   9   5 1062.39 73.8102  20
   5  -9   5 1088.24 71.3539  12
  -5  -9  -5 1095.05 67.8518  16
   5   9   6 548.833 48.9530  21
   5   9   6 572.981 56.2205  20
  -5  -9  -6 607.731 49.5861  16
   5   9   7 553.637 51.6648  20
  -5  -9  -7 470.722 43.2303  16
   5  -9   8 925.250 56.8153  19
   5   9   8 876.931 57.6963  20
   5  -9   8 994.307 57.6179  12
   5   9   9 1263.86 61.4943  20
  -5 -10  11 27.8633 9.91184  22
   5  10 -11 26.6431 11.1332  17
  -5 -10  10-16.1220 15.6805  22
  -5 -10  10 22.0323 13.8193  15
  -5 -10   9 18.7089 17.0557  15
  -5 -10   8 226.962 28.6132  15
  -5 -10   7-1.84538 20.8539  15
  -5 -10   6 18.9757 24.5271  22
  -5 -10   6 13.8833 20.9599  15
  -5 -10   5 662.619 49.0708  22
  -5 -10   5 523.426 43.5604  15
  -5 -10   4 529.039 44.4491  22
  -5 -10   4 529.427 44.3678  15
  -5 -10   3 641.607 50.0343  22
  -5 -10   3 641.348 47.9681  15
   5  10  -3 659.249 49.5218  17
  -5 -10   2 327.338 39.6993  22
  -5 -10   2 348.291 37.4581  15
   5  10  -2 399.641 38.8228  17
  -5 -10   1 934.173 60.1613  22
  -5 -10   1 946.786 59.1615  15
   5  10  -1 853.999 55.6376  17
   5  10   0 895.374 63.3462  20
  -5 -10   0 817.048 58.6366  22
  -5 -10   0 808.583 55.2480  15
   5 -10   0 692.130 50.7013  12
   5  10   0 803.591 52.0992  17
   5  10   1 3328.68 142.589  20
   5 -10   1 3069.27 134.350  12
  -5 -10  -1 3389.67 136.992  15
   5  10   2 681.684 63.1657  20
  -5 -10  -2 804.670 59.5188  16
   5 -10   2 711.382 54.5535  12
  -5 -10  -2 720.901 54.7046  15
   5  10   3 677.219 61.2357  20
  -5 -10  -3 616.667 54.6243  16
   5 -10   3 688.678 55.7944  12
   5  10   4 4400.66 187.439  20
   5 -10   4 4624.15 182.489  12
  -5 -10  -4 4779.42 181.115  16
   5 -10   5 93.4234 33.8428  12
   5  10   5 104.580 40.5599  20
  -5 -10  -5 131.271 35.5144  16
   5  10   6 1034.41 64.0383  21
   5  10   6 1198.58 73.9548  20
  -5 -10  -6 1280.19 69.3748  16
   5 -10   6 1134.69 69.0979  12
   5  10   7 53.1897 32.0921  20
  -5 -10  -7 44.7185 27.1400  16
   5  10   8-8.24050 24.8339  20
   5  10   9 552.725 34.6363  20
  -5 -11  10 70.5273 14.6058  22
   5  11 -10 73.8642 14.4077  17
  -5 -11  10 46.1950 12.4379  15
  -5 -11   9 375.186 29.0291  22
  -5 -11   9 347.390 27.3816  15
  -5 -11   8 3.11195 20.0884  22
  -5 -11   8 40.5396 19.7765  15
  -5 -11   7 115.620 26.9614  22
  -5 -11   7 147.345 25.5825  15
  -5 -11   6 31.8727 23.5921  22
  -5 -11   6 33.7051 22.3282  15
  -5 -11   5 870.841 56.0260  22
  -5 -11   5 922.890 55.7780  15
  -5 -11   4 666.544 50.0869  22
   5  11  -4 632.210 47.5274  17
  -5 -11   4 635.454 47.0918  15
  -5 -11   3 38.5101 25.7903  22
   5  11  -3 3.80905 22.6131  17
  -5 -11   3-4.27641 23.8953  15
  -5 -11   2 394.549 40.2385  22
  -5 -11   2 397.269 40.9107  15
   5  11  -2 379.367 36.7820  17
   5  11  -1 457.618 48.5320  20
  -5 -11   1 335.316 38.9820  22
  -5 -11   1 344.520 37.1759  15
   5  11   0 1808.88 91.7751  20
  -5 -11   0 1680.17 85.8804  22
  -5 -11   0 1698.70 86.3090  15
   5 -11   0 1507.58 77.5898  14
   5  11   1 485.963 51.3774  20
   5 -11   1 400.740 38.6508  12
  -5 -11  -1 390.869 42.0330  15
   5 -11   1 364.361 33.5549  14
   5  11   2 2453.99 120.188  20
  -5 -11  -2 2640.31 115.461  16
  -5 -11  -2 2575.22 114.402  15
   5 -11   2 2319.72 109.442  12
   5  11   3 1099.79 73.5247  20
  -5 -11  -3 1177.32 69.0216  16
   5 -11   3 949.778 63.6695  12
   5  11   4 1057.45 72.5224  20
  -5 -11  -4 957.680 65.0378  16
   5 -11   4 1076.75 67.2823  12
   5 -11   5 22.5138 28.5623  12
   5  11   5 58.5298 33.1244  20
  -5 -11  -5 8.13612 28.6804  16
   5 -11   6 22.2911 26.5910  12
   5  11   6 1.58096 20.9727  21
   5  11   6 2.23389 30.4189  20
  -5 -11  -6 15.9609 26.9444  16
   5  11   7 151.632 30.0628  20
  -5 -11  -7 116.210 26.3109  16
   5  11   8 37.1653 21.9386  20
  -5 -12   9 1224.51 53.3476  22
  -5 -12   9 1158.69 50.4233  15
   5  12  -9 1164.03 50.1216  17
  -5 -12   8 667.828 40.1221  22
  -5 -12   8 659.733 38.3190  15
   5  12  -8 607.419 37.4902  17
  -5 -12   7 243.480 29.7048  22
   5  12  -7 221.427 26.7775  17
  -5 -12   7 206.700 26.0329  15
  -5 -12   6 56.3970 24.5457  22
   5  12  -6 35.6245 21.4956  17
  -5 -12   6 27.3370 20.1817  15
  -5 -12   5 2406.80 107.768  22
  -5 -12   5 2444.13 106.321  15
   5  12  -5 2615.07 104.081  17
  -5 -12   4 562.323 46.8596  22
  -5 -12   4 606.989 45.2688  15
   5  12  -4 577.335 41.6122  17
  -5 -12   3 451.256 41.9459  22
  -5 -12   3 434.943 41.3219  15
   5  12  -3 375.930 35.9484  17
  -5 -12   2 1302.90 72.4523  22
  -5 -12   2 1258.98 70.9812  15
   5  12  -1 2746.86 122.198  20
  -5 -12   1 2669.46 119.551  22
  -5 -12   1 2658.92 117.398  15
  -5 -12   0 59.2947 27.8329  22
   5  12   0 62.6525 35.0297  20
  -5 -12   0 86.4284 28.9565  15
   5 -12   0 17.3521 21.6647  14
   5  12   1 566.088 53.1947  20
  -5 -12  -1 539.223 46.5069  15
   5 -12   1 438.786 37.2522  14
   5  12   2 3427.48 148.084  20
  -5 -12  -2 3701.99 142.439  16
   5  12   3 3905.78 159.769  20
  -5 -12  -3 4042.77 153.024  16
   5 -12   4 236.295 33.0804  12
   5  12   4 195.893 41.0142  20
  -5 -12  -4 224.972 37.5998  16
   5 -12   5 252.529 32.0128  12
   5  12   5 277.665 39.9320  20
  -5 -12  -5 235.879 34.6170  16
   5  12   6 256.233 36.1041  20
  -5 -12  -6 239.058 31.2964  16
   5  12   7 302.891 32.4113  20
   5  12   8 18.0558 14.9138  20
  -5 -13   9 258.902 18.5234  22
  -5 -13   9 209.825 16.5285  15
  -5 -13   8 16.9335 15.3508  22
  -5 -13   8 24.4214 13.7508  15
  -5 -13   7 249.776 27.4673  22
  -5 -13   7 252.823 25.4727  15
   5  13  -7 237.137 22.2287  17
  -5 -13   6 367.826 34.6649  22
  -5 -13   6 458.304 34.2170  15
   5  13  -6 359.290 28.6281  17
  -5 -13   5 1135.05 61.6791  22
  -5 -13   5 1087.19 59.5399  15
  -5 -13   4 1262.06 68.2875  22
  -5 -13   4 1319.19 67.5187  15
  -5 -13   3 381.275 39.2556  22
  -5 -13   3 430.061 39.1645  15
   5  13  -2 720.362 55.4414  20
  -5 -13   2 643.951 49.8364  22
  -5 -13   2 689.396 49.4107  15
   5  13  -1 2150.48 102.464  20
  -5 -13   1 2009.27 96.7796  22
  -5 -13   1 2120.69 97.5681  15
   5  13   0 19.6893 30.7589  20
  -5 -13   0 31.2812 25.6690  15
   5  13   1 27.5293 34.7712  20
  -5 -13  -1 20.8788 24.8781  15
  -5 -13  -1 12.3719 30.8149  16
   5  13   2 76.9122 31.8881  20
  -5 -13  -2 126.324 34.7496  16
   5  13   3 28.5262 33.4404  20
  -5 -13  -3 36.3246 30.1148  16
   5  13   4 1031.12 67.0524  20
  -5 -13  -4 1168.01 63.4535  16
   5  13   5-3.79273 27.3033  20
  -5 -13  -5 44.4374 25.2572  16
   5  13   6 168.941 28.1175  20
  -5 -13  -6 169.338 25.1283  16
   5  13   7 411.628 30.7569  20
  -5 -14   8 801.648 35.3250  22
  -5 -14   8 675.565 33.1726  15
  -5 -14   7 172.256 20.4207  22
  -5 -14   7 167.748 19.6712  15
  -5 -14   6 329.412 28.2337  22
  -5 -14   6 263.055 26.2438  15
  -5 -14   5 136.214 24.3428  22
  -5 -14   5 183.556 24.4227  15
  -5 -14   4 503.118 39.9272  22
  -5 -14   4 464.767 37.1627  15
  -5 -14   3 65.4085 24.2772  22
   5  14  -3 36.0966 27.9121  20
  -5 -14   3 85.4385 23.6481  15
  -5 -14   2 94.1556 25.6337  22
   5  14  -2 114.233 30.8184  20
  -5 -14   2 89.4411 23.0800  15
   5  14  -1 49.3928 31.7842  20
  -5 -14   1 51.8138 24.9235  15
   5  14   0 1048.42 65.3116  20
  -5 -14   0 939.198 58.1399  15
   5  14   1 260.168 39.7810  20
  -5 -14  -1 284.484 37.0553  16
   5  14   2 146.801 36.6580  20
  -5 -14  -2 149.899 31.5964  16
   5  14   3 2.02109 28.3499  20
  -5 -14  -3-1.63095 26.9663  16
   5  14   4 350.255 37.6700  20
  -5 -14  -4 401.938 35.3648  16
   5  14   5 245.107 30.8908  20
  -5 -14  -5 264.701 28.2296  16
   5  14   6 43.9137 18.0989  20
  -5 -14  -6 2.66040 14.9261  16
  -5 -15   7 58.2305 11.8331  22
  -5 -15   7 39.5779 10.6632  15
  -5 -15   6 1818.50 71.9682  22
  -5 -15   6 1797.81 71.1591  15
  -5 -15   5 24.8396 17.6215  22
  -5 -15   5 32.9944 16.0613  15
  -5 -15   4 253.405 27.2145  22
   5  15  -4 238.932 29.2060  20
  -5 -15   4 216.373 25.6724  15
   5  15  -3 911.844 51.4668  20
  -5 -15   3 815.921 48.3660  22
  -5 -15   3 799.011 47.5377  15
   5  15  -2 82.4445 27.1618  20
  -5 -15   2 6.08066 19.8071  15
   5  15  -1 552.880 44.7868  20
  -5 -15   1 580.087 40.8159  15
   5  15   0 26.1095 28.2197  20
  -5 -15   0 11.0324 20.7399  15
  -5 -15   0 4.64244 24.5962  16
   5  15   1 290.410 37.0613  20
  -5 -15  -1 376.819 35.7067  16
   5  15   2 33.4100 26.6278  20
  -5 -15  -2 37.2070 24.2922  16
   5  15   3 756.202 47.8370  20
  -5 -15  -3 662.963 43.0689  16
   5  15   4-29.5749 22.6084  20
  -5 -15  -4 25.3275 18.7046  16
   5  15   5 52.9077 17.7722  20
  -5 -15  -5 29.9380 15.1815  16
  -5 -16   5 3.16708 11.4484  15
   5  16  -4 505.064 31.9225  20
  -5 -16   4 599.451 32.9922  15
   5  16  -3 90.1469 20.3948  20
  -5 -16   3 62.8143 17.2697  15
   5  16  -2 191.175 26.8190  20
  -5 -16   2 158.390 21.5216  15
  -5 -16   2 243.403 26.5502  16
   5  16  -1 49.4751 23.9060  20
  -5 -16   1 62.7634 19.4147  15
  -5 -16   1 92.7896 23.0637  16
   5  16   0 11.5480 21.9770  20
  -5 -16   0 7.21028 19.7680  16
   5  16   1 372.975 33.2808  20
  -5 -16  -1 361.771 30.6929  16
   5  16   2 238.013 27.7409  20
  -5 -16  -2 249.156 25.2829  16
   5  16   3 147.558 22.2860  20
  -5 -16  -3 138.173 20.2479  16
   5  16   4 498.340 29.8403  20
  -5 -16  -4 512.874 28.1378  16
  -5 -17   3-2.10778 10.0199  15
   5  17  -1 157.500 20.6052  20
   5  17   0 44.2986 16.3929  20
  -5 -17   0 128.481 16.9863  16
   5  17   1 15.5757 14.1879  20
  -5 -17  -1 9.04676 13.0191  16
  -5 -17  -2 133.341 15.2081  16
   6   0 -12 594.018 33.1479   6
   6   0 -11 18.4196 21.5343   6
   6   0 -10 716.209 48.7700   6
   6   0  -9 5.92870 29.1504   6
   6   0  -8 222.545 38.4780   6
   6   0  -8 258.723 39.2067  11
   6   0  -7 19.7636 32.2503   6
   6   0  -7-32.3172 32.8204  11
   6   0  -6 31542.6 1009.27   6
   6   0  -6 31230.9 1017.81  11
   6   0  -5-10.5894 29.7796   6
   6   0  -5 18.7481 34.8521  11
   6   0  -5 15.0865 25.6735  17
   6   0  -4 349.323 39.7872   6
   6   0  -4 331.631 44.0908  11
   6   0  -4 363.153 40.2949  17
   6   0  -3 20.7386 66.1331   1
   6   0  -3-6.00343 25.8216   6
   6   0  -3 4.23342 26.2847  17
   6   0  -3-24.8511 27.2392  18
   6   0  -2 133.495 69.2285   1
   6   0  -2 33.5830 25.7949   6
   6   0  -2 63.8583 26.6794  17
   6   0  -2 116.719 31.6573  18
   6   0  -1-5.95127 25.3039   6
   6   0  -1 10.2265 55.3786   1
   6   0  -1 8.67667 24.7838  17
   6   0   0 1440.85 73.5400   6
   6   0   0 1406.58 78.6496  18
   6   0   0 1405.44 76.2773  17
   6   0   1-12.4241 26.7184   6
   6   0   1-10.1545 56.7349   1
   6   0   1 20.2825 32.5004  21
   6   0   1 20.5324 28.5711  18
   6   0   2 1192.73 68.5461   6
   6   0   2 1139.82 127.084   1
   6   0   2 1122.94 77.2303  21
   6   0   2 1201.20 73.7580  18
   6   0   3 21.2173 54.5975   1
   6   0   3-5.35208 33.2292  18
   6   0   4 53.9791 57.5161   1
   6   0   4 29.6278 24.4530  19
   6   0   4 38.8273 37.6400  21
   6   0   4-2.70141 32.2951  18
   6   0   5 3.20623 38.0665  21
   6   0   5 29.3526 26.3551  19
   6   0   5-32.3429 62.9144   1
   6   0   6 51.4337 31.7946  12
   6   0   6 51.4556 38.9544  21
   6   0   6 4.55100 26.5736  19
   6   0   7 4.21272 23.7148  12
   6   0   7-2.70120 33.0232  21
   6   0   7 2.14106 25.1617  19
   6   0   8 2100.12 91.8463  19
   6   0   8 1978.37 87.5592  12
   6   0   9-9.93710 20.8502  19
   6   0  10 56.4087 14.9955  19
   6   1 -12 571.787 32.1955   6
   6   1 -11 144.402 24.8431   6
   6   1 -10 28.5067 25.2288   6
   6   1  -9 33.2490 28.4886   6
   6   1  -8 452.123 46.4656  11
   6   1  -8 387.050 43.4191   6
   6  -1  -8 436.339 37.7509  17
   6   1  -7 1199.14 71.9265   6
   6   1  -7 1192.23 74.7518  11
   6  -1  -7 1189.91 68.0510  18
   6  -1  -7 1167.00 65.4001  17
   6   1  -6 25590.8 822.070   6
   6   1  -6 25430.5 829.475  11
   6  -1  -6 25763.1 823.394  18
   6  -1  -6 24772.3 818.017  17
   6   1  -5 428.260 44.9049   6
   6   1  -5 500.148 51.3624  11
   6  -1  -5 399.306 44.7994  18
   6  -1  -5 377.776 40.7338  17
   6   1  -4 202.543 35.0922   6
   6   1  -4 133.598 35.1266  11
   6  -1  -4 197.213 31.7695  17
   6   1  -4 198.251 31.9709  17
   6  -1  -4 169.772 34.8048  18
   6   1  -3 114.292 62.5732   1
   6   1  -3 177.616 32.4350   6
   6  -1  -3 214.258 30.6070  17
   6   1  -3 169.191 31.3809  17
   6  -1  -3 224.003 35.6952  18
   6   1  -2 82.3556 65.6859   1
   6   1  -2 67.0069 27.9146   6
   6  -1  -2 58.7135 27.6798  21
   6  -1  -2 68.0869 27.3673  17
   6   1  -2 43.9424 28.8187  17
   6  -1  -2 82.9910 30.0958  18
   6   1  -1 476.333 42.8991   6
   6   1  -1 533.776 94.8781   1
   6  -1  -1 422.403 45.7395  21
   6  -1  -1 470.759 47.4090  18
   6  -1  -1 554.872 45.6429  17
   6   1  -1 519.165 47.1868  17
   6   1   0 1206.47 68.5014   6
   6   1   0 1403.93 139.104   1
   6  -1   0 1234.42 75.7381  21
   6   1   0 1315.38 75.3776  18
   6   1   0 1172.04 70.4260  17
   6   1   1 700.617 52.0401   6
   6   1   1 664.150 102.070   1
   6  -1   1 822.608 62.9431  21
   6   1   1 717.220 58.8712  18
   6  -1   1 820.670 59.8242  18
   6   1   2 115.801 31.3526   6
   6   1   2 62.4589 57.4616   1
   6  -1   2 181.309 42.0290  21
   6   1   2 161.404 34.5657  18
   6  -1   2 192.919 35.6404  18
   6   1   3 457.742 90.4356   1
   6   1   3 587.243 53.4720  18
   6  -1   3 667.150 56.8882  18
   6  -1   3 624.382 59.2000  21
   6   1   4 21.6141 59.4590   1
   6  -1   4-29.1459 24.7670  19
   6   1   4 25.9398 37.1811  21
   6  -1   4 19.2864 35.1444  18
   6   1   4-5.27149 28.4313  18
   6  -1   5 519.330 47.2804  19
   6   1   5 472.241 48.6763  18
   6   1   5 513.610 43.0357  19
   6  -1   5 521.822 59.4840  21
   6   1   5 517.988 59.6092  21
   6   1   5 635.338 100.080   1
   6  -1   6 11411.3 393.822  12
   6   1   6 11236.3 389.912  12
   6  -1   6 11293.9 389.927  19
   6   1   6 10787.3 385.741  19
   6  -1   6 11763.8 403.800  21
   6   1   6 12344.6 403.079  21
   6  -1   7 307.629 37.9114  12
   6   1   7 289.965 33.7658  12
   6   1   7 316.580 43.1339  21
   6  -1   7 260.666 36.4783  19
   6   1   7 276.473 34.6195  19
   6  -1   8 151.802 29.4736  12
   6  -1   8 213.388 31.7059  19
   6   1   8 199.140 29.7570  19
   6   1   9 33.4031 18.9808  19
   6  -1   9 14.6544 19.6607  19
   6  -1  10 9.93120 13.1558  19
   6   1  10 24.9298 10.2776  19
   6   2 -12 594.460 31.6494   6
   6  -2 -12 593.403 31.4668   6
   6   2 -11 613.796 38.7418   6
   6  -2 -11 563.548 38.2918   6
   6   2 -10 35.5585 24.7849   6
   6  -2 -10 41.6951 24.8377   6
   6   2  -9 9.52397 28.2817   6
   6  -2  -9 17.0739 27.5567   6
   6   2  -8 259.363 37.6142   6
   6  -2  -8 288.182 37.8549   6
   6   2  -8 250.610 37.0611  11
   6  -2  -8 223.204 38.1933  11
   6  -2  -8 206.237 26.8947  17
   6   2  -7 1777.58 87.6814   6
   6  -2  -7 1770.05 88.9336   6
   6   2  -7 1856.67 94.1490  11
   6  -2  -7 1824.78 93.9614  11
   6  -2  -7 1618.91 79.4153  17
   6   2  -6 15129.6 499.270   6
   6  -2  -6 15312.2 499.594   6
   6   2  -6 14603.9 507.018  11
   6  -2  -6 14784.8 505.896  11
   6  -2  -6 14808.5 498.140  18
   6  -2  -6 15055.1 493.760  17
   6   2  -5 9077.30 317.685   6
   6  -2  -5 9285.71 318.723   6
   6   2  -5 9013.70 325.653  11
   6  -2  -5 9136.59 326.544  11
   6  -2  -5 9262.26 321.328  18
   6  -2  -5 9271.46 315.200  17
   6   2  -4 7843.59 270.995   6
   6  -2  -4 7748.38 270.802   6
   6   2  -4 7856.53 281.850  11
   6  -2  -4 7434.15 278.161  11
   6  -2  -4 7951.13 276.401  18
   6  -2  -4 7204.23 267.242  17
   6   2  -4 7863.48 274.636  17
   6  -2  -3 91.8773 60.4527   1
   6   2  -3 65.3251 27.6257   6
   6  -2  -3 65.5436 27.0357   6
   6   2  -3 133.790 63.3609   1
   6  -2  -3 101.536 25.9656  17
   6   2  -3 104.550 28.9430  17
   6  -2  -3 78.5516 28.8513  18
   6   2  -2 61.2828 61.2619   1
   6  -2  -2 50.3876 62.0141   1
   6   2  -2 80.3062 27.1990   6
   6  -2  -2 49.0485 26.5673   6
   6   2  -2 31.6150 28.2669  17
   6  -2  -2 40.9680 28.6641  18
   6  -2  -2 79.5117 27.0543  17
   6   2  -1 461.648 41.2278   6
   6  -2  -1 441.895 42.2402   6
   6   2  -1 500.161 91.4707   1
   6  -2  -1 449.915 84.7579   1
   6  -2  -1 443.426 44.1194  18
   6  -2  -1 466.301 45.0575  21
   6   2  -1 452.645 47.2674  18
   6  -2  -1 380.530 39.0483  17
   6   2   0 4614.16 173.670   6
   6  -2   0 4565.91 173.599   6
   6   2   0 4627.25 270.697   1
   6  -2   0 4645.02 269.240   1
   6   2   0 4669.79 182.753  18
   6  -2   0 4403.61 179.845  18
   6  -2   0 4610.88 182.265  21
   6   2   1 20.5740 26.9281   6
   6  -2   1 34.8527 28.1353   6
   6   2   1 71.8434 63.9196   1
   6  -2   1-30.0131 52.4024   1
   6  -2   1 5.71099 33.6780  21
   6   2   1 20.4946 29.9059  18
   6   2   2 2036.96 92.9123   6
   6  -2   2 1831.50 90.5211   6
   6   2   2 2032.41 98.4831  18
   6  -2   2 2038.65 99.8188  18
   6  -2   2 1766.58 100.469  21
   6   2   2 1602.13 154.977   1
   6  -2   2 1872.41 164.770   1
   6   2   3 625.956 54.9545  18
   6  -2   3 790.077 53.2489  19
   6  -2   3 708.044 58.7938  18
   6  -2   3 851.426 67.6893  21
   6   2   3 688.779 106.557   1
   6  -2   3 789.966 107.508   1
   6   2   4 5008.08 206.600  21
   6  -2   4 4776.90 190.169  19
   6  -2   4 5273.39 199.968  18
   6   2   4 5154.81 195.519  18
   6   2   4 4505.82 279.423   1
   6  -2   4 4868.18 285.778   1
   6  -2   5 3059.43 129.411  19
   6   2   5 2868.45 127.440  18
   6   2   5 2625.93 119.800  19
   6  -2   5 3355.87 142.525  21
   6   2   5 3209.52 142.060  21
   6   2   5 2871.57 210.937   1
   6  -2   5 3266.22 215.924   1
   6  -2   6 733.371 57.0047  12
   6   2   6 643.531 51.3230  12
   6   2   6 597.601 46.1466  20
   6  -2   6 666.947 53.1034  19
   6   2   6 630.813 47.9623  19
   6   2   6 759.731 63.4156  21
   6  -2   7 351.703 40.6890  12
   6   2   7 209.611 30.2014  12
   6  -2   7 337.368 38.7017  19
   6   2   7 326.927 43.8755  21
   6   2   7 229.973 32.3747  19
   6  -2   8 1.83421 23.5998  12
   6  -2   8 21.1868 24.3532  19
   6   2   8-4.91563 21.9094  19
   6  -2   9 73.5400 18.8944  12
   6  -2   9 125.696 22.9727  19
   6  -2  10-3.62787 12.6919  19
   6   3 -12 5.91669 11.1869   6
   6  -3 -12 7.79079 11.1734   6
   6  -3 -11 8.99127 17.5925   6
   6   3 -11 3.41017 18.6647   6
   6   3 -11 1.10609 15.8113  17
   6   3 -10 122.747 26.9137   6
   6  -3 -10 118.855 25.7029   6
   6   3  -9 23.4313 24.8585   6
   6  -3  -9 8.98689 25.7566   6
   6   3  -8 291.461 37.0608   6
   6  -3  -8 269.965 36.6466   6
   6   3  -7 103.364 31.5064   6
   6  -3  -7 126.649 32.6558   6
   6   3  -7 116.630 32.4058  11
   6  -3  -7 68.3228 32.0608  11
   6   3  -6 1526.26 78.0280   6
   6  -3  -6 1437.98 77.1704   6
   6   3  -6 1488.76 83.3236  11
   6  -3  -6 1362.48 80.4442  11
   6   3  -5 228.506 37.4317   6
   6  -3  -5 287.711 40.7017   6
   6   3  -5 208.195 41.2640  11
   6  -3  -5 184.792 38.9508  11
   6  -3  -5 199.854 31.0227  17
   6  -3  -5 227.865 36.1324  18
   6   3  -4 1069.70 61.2408   6
   6  -3  -4 974.707 60.2456   6
   6   3  -4 1025.21 67.0359  11
   6  -3  -4 874.308 62.9539  11
   6  -3  -4 964.600 62.6283  18
   6  -3  -4 884.270 55.5239  17
   6   3  -4 1045.47 65.1045  17
   6   3  -3 842.049 54.3933   6
   6  -3  -3 924.702 56.0490   6
   6  -3  -3 816.571 57.4409  18
   6  -3  -3 832.936 51.6669  17
   6   3  -2 1194.70 64.9761   6
   6  -3  -2 1154.39 65.1228   6
   6   3  -2 1298.73 132.693   1
   6  -3  -2 1134.96 127.341   1
   6  -3  -2 1207.92 70.4199  18
   6  -3  -2 1107.11 62.8146  17
   6  -3  -1 9.90196 48.1854   1
   6  -3  -1 50.8162 26.4672   6
   6   3  -1 78.2306 27.8173   6
   6   3  -1 60.4064 57.1231   1
   6  -3  -1 68.9245 28.9255  21
   6   3  -1 58.2358 30.0230  17
   6  -3  -1 65.9673 30.1096  18
   6   3  -1 33.6678 30.7972  18
   6   3   0 6146.14 226.027   6
   6  -3   0 6480.77 226.971   6
   6   3   0 6141.95 324.072   1
   6  -3   0 5559.72 314.119   1
   6   3   0 6337.58 234.615  18
   6  -3   0 6471.93 234.718  18
   6  -3   0 6203.94 235.304  21
   6   3   0 6320.51 232.495  17
   6   3   1 1849.80 88.2115   6
   6  -3   1 1832.70 87.8550   6
   6   3   1 1720.72 158.490   1
   6  -3   1 1892.87 159.821   1
   6  -3   1 1815.44 93.8923  18
   6   3   1 1754.43 93.1408  18
   6  -3   1 1791.16 97.7248  21
   6   3   2 107.372 30.3652   6
   6  -3   2 83.5501 28.6536   6
   6   3   2 113.131 60.9107   1
   6  -3   2 60.2480 55.3182   1
   6  -3   2 107.863 36.9690  21
   6  -3   2 81.4411 26.5178  19
   6   3   2 89.4102 33.0827  18
   6  -3   3 4165.63 167.903  19
   6   3   3 4278.85 171.501  18
   6  -3   3 4434.15 176.478  18
   6  -3   3 4567.75 181.690  21
   6   3   3 3815.31 248.034   1
   6  -3   3 4092.70 252.481   1
   6   3   4 542.321 58.2952  21
   6  -3   4 563.047 48.9608  19
   6   3   4 512.749 48.3242  18
   6   3   4 410.439 90.1452   1
   6  -3   4 547.676 97.2643   1
   6  -3   5 2570.61 117.964  12
   6   3   5 2533.53 121.686  21
   6  -3   5 2458.02 109.974  19
   6   3   5 1936.85 99.2632  20
   6   3   5 2282.44 105.221  18
   6  -3   5 2598.57 120.999  21
   6   3   5 2124.22 172.940   1
   6  -3   5 2062.10 172.254   1
   6  -3   6 10.4596 31.1492  12
   6   3   6 5.88994 23.7743  12
   6   3   6-2.94990 36.1783  21
   6   3   6 5.60598 19.2354  19
   6   3   6 7.98864 23.8701  20
   6  -3   6 14.8039 27.6757  19
   6  -3   7 1273.52 71.9255  19
   6   3   7 1205.32 75.7472  21
   6  -3   7 1423.97 76.4092  12
   6  -3   8 14.9673 23.5982  12
   6  -3   8 36.4789 24.9953  19
   6  -3   9 846.051 47.3377  19
   6  -3   9 801.777 43.7247  12
   6  -3  10 686.210 35.6741  19
   6   4 -11 211.001 22.6915   6
   6  -4 -11 171.634 21.4959   6
   6   4 -10 12.3390 19.9589   6
   6  -4 -10 5.47484 21.2178   6
   6   4  -9 151.770 28.8933   6
   6  -4  -9 131.845 27.0283   6
   6   4  -8 670.884 48.5731   6
   6  -4  -8 752.521 50.9414   6
   6   4  -7 72.3299 28.3597  11
   6  -4  -7 12.0793 27.8278  11
   6   4  -7 49.1659 28.9071   6
   6  -4  -7 29.7221 27.4170   6
   6   4  -6 1551.33 77.9374   6
   6  -4  -6 1575.95 78.4561   6
   6   4  -6 1459.93 81.0322  11
   6  -4  -6 1419.47 81.3059  11
   6   4  -5 1662.10 78.5371   6
   6  -4  -5 1486.73 76.6471   6
   6   4  -5 1419.70 81.0284  11
   6  -4  -5 1426.72 81.2162  11
   6  -4  -5 1407.31 74.3665  18
   6   4  -4 1460.35 72.3650   6
   6  -4  -4 1404.31 72.3787   6
   6   4  -4 1350.07 77.1286  11
   6  -4  -4 1242.26 75.6143  11
   6  -4  -4 1275.56 71.8952  18
   6   4  -3 201.194 30.9422   6
   6  -4  -3 159.919 30.9369   6
   6   4  -3 179.546 33.7201  11
   6  -4  -3 188.771 35.2029  11
   6   4  -3 207.906 36.2207  17
   6  -4  -3 240.171 34.3256  18
   6  -4  -3 201.490 27.1736  17
   6   4  -2 406.422 39.1892   6
   6  -4  -2 439.482 40.0234   6
   6   4  -2 354.957 78.8944   1
   6  -4  -2 401.423 78.9316   1
   6  -4  -2 392.639 42.9386  18
   6   4  -2 373.195 41.8786  17
   6   4  -1 3808.33 147.520   6
   6  -4  -1 3959.08 148.552   6
   6   4  -1 3494.65 227.934   1
   6  -4  -1 3335.05 224.305   1
   6  -4  -1 3891.99 155.636  18
   6  -4  -1 3497.58 151.216  21
   6   4  -1 3969.56 155.670  17
   6   4   0 82.0017 28.2689   6
   6  -4   0 93.1538 28.8511   6
   6   4   0 79.5846 61.2407   1
   6  -4   0 48.9532 54.7551   1
   6  -4   0 103.698 32.7703  21
   6  -4   0 90.7582 31.3978  18
   6   4   0 64.7174 29.8882  18
   6   4   0 43.2852 30.5902  17
   6   4   1 2714.12 114.926   6
   6  -4   1 2724.68 114.523   6
   6   4   1 2534.82 189.823   1
   6  -4   1 2755.89 194.942   1
   6  -4   1 2743.51 123.717  18
   6   4   1 2639.65 121.261  18
   6  -4   1 2663.88 124.819  21
   6   4   2 234.763 35.6529   6
   6  -4   2 258.465 35.8563   6
   6   4   2 120.858 61.5610   1
   6  -4   2 187.518 64.7601   1
   6  -4   2 230.366 41.7249  21
   6  -4   2 229.456 34.1788  19
   6   4   2 203.428 37.5228  18
   6  -4   3 1448.19 78.6730  19
   6   4   3 1450.29 79.1497  18
   6  -4   3 1402.89 86.1712  21
   6   4   3 1314.52 138.165   1
   6  -4   3 1200.48 128.740   1
   6  -4   4 5084.06 192.927  19
   6   4   4 4895.32 187.831  18
   6   4   4 4416.24 271.193   1
   6  -4   4 4679.36 273.721   1
   6  -4   5 673.749 56.8863  12
   6   4   5 632.658 62.2081  21
   6  -4   5 574.061 51.1812  19
   6   4   5 529.963 47.9728  20
   6   4   5 585.822 46.9159  18
   6  -4   6-26.0396 30.8119  12
   6   4   6 48.5290 37.8665  21
   6   4   6 18.4963 25.5211  20
   6  -4   6 7.47266 29.0731  19
   6  -4   7 143.384 34.9689  12
   6   4   7 142.379 34.3541  21
   6   4   7 128.468 29.4000  20
   6  -4   7 74.3502 29.9532  19
   6  -4   8 61.2930 25.8420  12
   6  -4   8 33.8264 24.2221  19
   6  -4   9 110.593 20.2481  12
   6  -4   9 107.395 23.8159  19
   6  -4  10 418.181 25.5534  19
   6   5 -11 209.955 19.8287   6
   6  -5 -11 228.669 20.5769   6
   6   5 -11 252.649 24.0892  17
   6   5 -10 642.378 38.1157   6
   6  -5 -10 583.314 37.8950   6
   6   5  -9 22.3585 22.2286   6
   6  -5  -9 7.50121 22.0855   6
   6   5  -8 242.402 32.0869   6
   6  -5  -8 230.895 31.3592   6
   6   5  -7 4776.43 182.375  11
   6  -5  -7 4470.78 181.218  11
   6   5  -7 5001.64 178.057   6
   6  -5  -7 4740.87 177.442   6
   6   5  -6 449.800 41.4106   6
   6  -5  -6 504.976 43.4005   6
   6   5  -6 446.400 44.1762  11
   6  -5  -6 411.602 42.6860  11
   6   5  -5 11.8945 26.7013  11
   6  -5  -5 26.2824 29.2268  11
   6   5  -5 35.8336 25.8948   6
   6  -5  -5 51.5243 26.3974   6
   6   5  -4 443.285 43.1781  11
   6  -5  -4 482.941 44.9348  11
   6   5  -4 458.466 41.1207   6
   6  -5  -4 475.936 41.5795   6
   6  -5  -4 413.447 39.4145  18
   6  -5  -3 335.586 40.0566  11
   6   5  -3 433.454 42.7094  11
   6   5  -3 353.130 37.6097   6
   6  -5  -3 390.360 38.4261   6
   6  -5  -3 404.749 40.5459  18
   6   5  -3 419.400 45.4638  17
   6   5  -2 894.651 55.3029   6
   6  -5  -2 879.498 55.1726   6
   6   5  -2 898.233 109.499   1
   6  -5  -2 821.167 104.173   1
   6  -5  -2 963.289 60.4154  18
   6   5  -2 843.216 59.2747  17
   6   5  -1 3598.09 139.286   6
   6  -5  -1 3454.37 137.791   6
   6   5  -1 3207.54 216.368   1
   6  -5  -1 3277.30 215.951   1
   6  -5  -1 3523.97 145.730  18
   6   5  -1 3600.04 146.380  17
   6   5   0 2520.57 108.270   6
   6  -5   0 2514.42 107.383   6
   6   5   0 2418.99 182.970   1
   6  -5   0 2367.62 178.434   1
   6  -5   0 2446.15 115.102  18
   6   5   0 2573.76 117.467  18
   6   5   0 2633.61 115.832  17
   6   5   1 3261.84 131.407   6
   6  -5   1 3237.79 130.808   6
   6   5   1 2834.98 203.916   1
   6  -5   1 3153.64 208.366   1
   6   5   1 3293.19 138.806  18
   6  -5   1 3374.55 142.422  18
   6   5   2 352.670 78.3775   1
   6  -5   2 493.546 87.1501   1
   6  -5   2 537.424 46.7856  19
   6  -5   2 472.620 48.6543  18
   6   5   2 550.405 49.3816  18
   6  -5   3 125.371 65.8397   1
   6   5   3 88.0831 55.7192   1
   6  -5   3 198.941 35.9605  19
   6   5   3 156.041 32.6425  18
   6   5   4 242.338 68.8566   1
   6  -5   4 114.801 61.9648   1
   6   5   4 149.192 31.6980  20
   6  -5   4 217.863 37.4056  19
   6   5   4 180.599 30.7277  18
   6  -5   5 362.157 47.9943  12
   6   5   5 306.212 48.5940  21
   6   5   5 234.392 35.9698  20
   6  -5   5 310.515 42.6346  19
   6  -5   6 25.6158 31.5177  12
   6   5   6-27.2647 35.4816  21
   6   5   6 8.30432 28.7024  20
   6  -5   6 62.1166 31.3263  19
   6  -5   7 43.0077 29.3753  12
   6   5   7 37.4865 28.1302  21
   6   5   7 7.28166 23.6919  20
   6  -5   7-15.4092 27.5880  19
   6  -5   8 1.79838 23.0728  12
   6  -5   8 8.99374 23.1438  19
   6  -5   9 159.032 21.4894  12
   6  -5   9 170.769 23.2490  19
   6   6 -11 127.431 19.2326  17
  -6  -6  10 80.7275 14.7097  22
   6   6 -10 146.081 19.4916   6
   6   6  -9 34.0759 19.8874   6
   6  -6  -9 21.7682 19.7889   6
   6   6  -8-10.5170 21.3264   6
   6  -6  -8 10.6804 23.0851   6
   6   6  -7 923.893 53.4556   6
   6  -6  -7 901.355 53.7575   6
   6   6  -6 124.816 29.2366  11
   6  -6  -6 87.0891 27.8543  11
  -6  -6   6 124.825 24.4661  22
   6   6  -6 176.792 29.5057   6
   6  -6  -6 183.040 29.2086   6
   6   6  -5 716.661 52.4081  11
   6  -6  -5 772.518 53.4228  11
   6   6  -5 721.448 49.3680   6
   6  -6  -5 843.409 52.1510   6
  -6  -6   5 681.694 47.2246  22
   6   6  -4 98.5684 27.9822  11
   6  -6  -4 119.068 28.3987  11
   6   6  -4 104.538 27.6102   6
   6  -6  -4 155.482 27.8445   6
  -6  -6   4 98.6993 23.8777  22
   6   6  -4 179.167 35.8422  17
   6   6  -3 151.168 30.3192  11
   6  -6  -3 103.120 28.8224  11
   6   6  -3 113.591 26.8205   6
   6  -6  -3 121.026 27.5536   6
  -6  -6   3 154.594 25.7643  22
   6   6  -3 116.662 32.0545  17
   6  -6  -3 141.765 29.7082  18
   6   6  -2 3360.78 137.385   6
   6  -6  -2 3632.05 138.886   6
   6   6  -2 3596.97 145.672  11
   6  -6  -2 3462.89 145.012  11
   6  -6  -2 3489.88 143.492  18
   6   6  -2 3896.19 150.081  17
   6   6  -1 381.599 37.6213   6
   6  -6  -1 379.651 36.5174   6
   6   6  -1 320.754 73.9348   1
   6  -6  -1 321.490 70.2291   1
   6  -6  -1 419.323 42.9605  18
   6   6  -1 415.210 43.6909  17
   6   6   0-37.0683 59.7890   1
   6  -6   0-27.7762 54.0330   1
   6   6   0 10.9567 24.4880   6
   6  -6   0 70.1249 23.7285   6
   6  -6   0 17.5626 30.2871  18
   6   6   0 20.5105 31.1495  18
   6   6   0-4.82246 29.1080  17
   6   6   1 65.3358 47.2081   1
   6  -6   1 37.2117 46.1746   1
   6   6   1 70.7693 25.8128   6
   6  -6   1 73.0139 26.4000   6
   6  -6   1 91.7193 32.6944  18
   6   6   1 17.2617 29.0412  18
   6   6   2 1223.04 126.126   1
   6  -6   2 1022.29 115.074   1
   6   6   2 1200.25 69.6688  18
   6  -6   3 63.9940 35.9222  12
   6   6   3 55.4216 44.0292   1
   6  -6   3 45.8747 48.8921   1
   6   6   3 66.2808 28.7763  20
   6  -6   3 15.9731 30.7707  19
   6   6   3 17.3453 25.5977  18
   6  -6   4 1085.94 69.6434  19
   6   6   4 1045.54 65.7928  20
   6  -6   5 1713.25 92.2693  12
   6   6   5 1751.97 94.4940  21
   6  -6   5 1580.64 87.8998  19
   6   6   5 1521.20 83.5434  20
   6  -6   6 599.768 51.4620  19
   6   6   6 658.215 49.7943  20
   6   6   6 573.766 53.7558  21
   6  -6   6 692.853 55.3695  12
   6  -6   7 796.884 53.9059  19
   6   6   7 740.520 50.6614  20
   6   6   7 722.447 51.9227  21
   6  -6   8 223.494 29.4546  12
   6  -6   8 226.387 29.9977  19
   6  -6   9 1736.40 72.5311  19
  -6  -7  10 1000.87 44.5048  22
  -6  -7   9 38.3563 16.6932  22
  -6  -7   8 23.8518 18.9486  22
   6   7  -8 47.0804 19.4361   6
   6  -7  -8 57.0506 20.6368   6
  -6  -7   7 3.39111 19.2324  22
   6   7  -7 4.26973 19.7233   6
   6  -7  -7 10.1719 20.1869   6
   6   7  -6 597.406 42.9286  11
   6  -7  -6 449.491 39.9394  11
   6   7  -6 580.877 40.3968   6
   6  -7  -6 525.512 40.0480   6
  -6  -7   6 584.085 42.5097  22
   6   7  -5 2989.89 118.471   6
   6  -7  -5 3030.39 119.304   6
   6   7  -5 2891.99 122.604  11
   6  -7  -5 2853.44 122.620  11
  -6  -7   5 3240.82 124.190  22
   6   7  -4 3062.14 119.680   6
   6  -7  -4 3113.21 119.599   6
   6   7  -4 2845.30 122.348  11
   6  -7  -4 2723.96 121.717  11
  -6  -7   4 2964.59 121.987  22
   6   7  -4 3298.78 133.593  17
   6   7  -3 903.202 52.8659   6
   6  -7  -3 775.342 50.6942   6
   6   7  -3 944.799 57.1074  11
   6  -7  -3 803.941 54.6363  11
  -6  -7   3 963.229 55.7453  22
   6   7  -3 943.724 62.4325  17
   6   7  -2 2.12064 22.9811  11
   6  -7  -2 14.9109 21.8419  11
   6   7  -2 29.9579 22.3267   6
   6  -7  -2 41.2583 21.3091   6
  -6  -7   2 15.5082 22.4814  22
   6   7  -2 28.5331 29.3545  17
   6  -7  -2 48.6326 23.8192  18
   6   7  -1 605.381 44.2084   6
   6  -7  -1 647.002 44.4628   6
   6  -7  -1 583.521 88.1046   1
   6  -7  -1 655.208 51.0749  18
  -6  -7   1 586.180 44.5257  22
   6   7  -1 683.576 53.3998  17
   6  -7   0 345.454 69.7771   1
   6   7   0 270.083 32.1401   6
   6  -7   0 233.992 30.6241   6
   6  -7   0 319.704 39.5489  18
   6   7   0 267.519 38.8324  18
   6   7   0 274.392 38.8686  17
   6  -7   1 139.016 56.8333   1
  -6  -7  -1 142.425 29.0782  16
   6   7   1 115.718 31.7556  18
   6  -7   2 507.409 51.2341  12
   6   7   2 494.779 45.2973  20
   6   7   2 504.113 45.1474  18
  -6  -7  -2 556.794 43.9657  16
   6  -7   3 688.249 58.3834  12
   6   7   3 687.983 54.7856  20
  -6  -7  -3 695.781 48.9160  16
   6  -7   4 32.1291 32.2168  12
   6   7   4 34.4052 29.4336  20
   6  -7   4 5.38293 29.5071  19
  -6  -7  -4 14.5188 25.2807  16
   6   7   5 1871.72 99.3534  21
   6  -7   5 1902.04 95.2971  19
   6   7   5 1643.13 88.2704  20
  -6  -7  -5 1905.94 83.9706  16
   6  -7   6 276.111 41.0856  12
   6   7   6 265.351 39.7254  21
   6   7   6 242.461 35.7204  20
   6  -7   6 265.275 38.1249  19
   6  -7   7 90.3409 29.8955  12
   6   7   7 82.6378 25.1688  21
   6   7   7 52.8150 25.0801  20
   6  -7   7 80.6050 27.7409  19
   6  -7   8 98.0469 23.9199  12
   6  -7   8 87.5169 23.4274  19
  -6  -8  10 423.550 25.8561  22
   6   8 -10 564.201 34.8946  17
  -6  -8   9 1782.70 73.1988  22
  -6  -8   8 548.503 37.0948  22
  -6  -8   8 448.367 30.9459  15
  -6  -8   7 1085.79 57.2121  22
  -6  -8   7 992.385 52.4036  15
  -6  -8   6 25.4670 21.0101  22
  -6  -8   6-1.56116 17.9677  15
   6  -8  -5 17.0393 16.5174  11
   6  -8  -5 47.1024 19.2217   6
  -6  -8   5 44.2432 21.9993  22
   6   8  -5 11.5014 29.1861  17
  -6  -8   5 33.1993 19.3304  15
   6  -8  -4 704.787 44.4619   6
   6  -8  -4 651.715 45.2667  11
  -6  -8   4 746.833 50.0945  22
  -6  -8   4 744.679 46.9238  15
   6   8  -4 795.844 57.1315  17
   6  -8  -3 864.419 48.5086   6
   6  -8  -3 724.632 48.1889  11
  -6  -8   3 853.260 54.2825  22
   6   8  -3 935.733 59.9713  17
   6  -8  -2 117.419 24.1325  11
   6  -8  -2 102.095 22.7486   6
  -6  -8   2 97.6382 27.7803  22
   6   8  -2 156.958 33.7091  17
   6  -8  -1 397.713 34.6157   6
   6  -8  -1 451.459 37.6780  11
  -6  -8   1 502.888 42.1800  22
   6   8  -1 509.381 46.3159  17
   6  -8   0 185.305 34.5747  12
   6   8   0 180.825 35.4404  18
   6   8   0 115.942 33.2387  17
   6  -8   1 160.750 33.1402  12
   6   8   1 158.976 31.7661  20
  -6  -8  -1 171.785 32.0334  16
   6   8   1 121.023 29.9495  18
   6  -8   2 6906.48 249.068  12
   6   8   2 6368.28 243.445  20
  -6  -8  -2 6867.74 240.151  16
   6  -8   3 180.861 38.2724  12
   6   8   3 269.552 37.7910  20
  -6  -8  -3 194.428 33.7896  16
   6   8   4 2917.40 125.339  20
  -6  -8  -4 2851.14 119.694  16
   6  -8   4 2978.96 130.189  12
   6   8   5 1715.20 87.8673  20
  -6  -8  -5 1801.51 82.3552  16
   6  -8   5 1877.73 93.9574  12
   6   8   6 309.697 38.1187  21
   6   8   6 331.624 36.1528  20
  -6  -8  -6 293.713 31.4026  16
   6  -8   7 70.5200 24.7154  12
   6   8   7 16.6631 20.9161  21
   6   8   7 43.2334 22.6370  20
   6  -8   8 2.64518 17.1139  12
   6   9 -10 29.5698 15.6968  17
  -6  -9   9 37.3392 14.7326  22
   6   9  -9 43.6840 20.0660  17
  -6  -9   8 94.4974 19.9064  22
  -6  -9   8 77.4614 16.4195  15
  -6  -9   7 62.7810 20.3671  22
  -6  -9   7 76.0865 19.1593  15
  -6  -9   6 552.896 40.6749  22
  -6  -9   6 517.585 37.2675  15
   6   9  -6 532.297 45.4233  17
  -6  -9   5 496.992 40.2577  22
  -6  -9   5 432.935 35.6919  15
   6   9  -5 510.340 44.5342  17
  -6  -9   4 3071.49 121.436  22
   6   9  -4 3037.45 124.654  17
  -6  -9   3-2.03552 23.1731  22
   6   9  -3-6.55494 26.3726  17
  -6  -9   3-8.98498 19.9284  15
  -6  -9   2 1192.93 66.3447  22
  -6  -9   2 1197.87 63.4763  15
   6   9  -2 1173.38 68.0525  17
   6  -9  -1 294.769 33.3032  12
  -6  -9   1 393.392 38.7196  22
  -6  -9   1 289.038 32.8813  15
   6   9  -1 405.253 40.6242  17
   6  -9   0 1970.56 95.1370  12
   6   9   0 2108.68 96.7547  18
   6   9   0 1940.96 94.7389  20
  -6  -9   0 2064.05 92.3742  15
   6  -9   1 27.6183 28.0617  12
   6   9   1 15.7386 31.1690  20
  -6  -9  -1 32.5667 29.3094  16
   6   9   1 35.3463 24.3997  18
   6  -9   2 1449.71 81.8580  12
   6   9   2 1414.70 81.1076  20
   6   9   3 1178.29 71.3427  20
  -6  -9  -3 1206.54 68.2886  16
   6  -9   3 1250.64 71.7303  12
   6  -9   4 37.7657 27.7840  12
   6   9   4 47.8250 31.1858  20
  -6  -9  -4 66.9237 27.8047  16
   6  -9   5 37.3987 27.8155  12
   6   9   5 20.7692 29.8606  21
   6   9   5-3.97550 26.9277  20
  -6  -9  -5-25.3676 24.7208  16
   6   9   6 696.748 47.4244  20
   6   9   6 669.519 47.7774  21
  -6  -9  -6 681.026 42.5278  16
   6  -9   6 760.531 51.9390  12
   6   9   7 3.83167 21.0816  20
  -6 -10   9 2.41713 12.1163  22
   6  10  -9 12.5187 15.0850  17
  -6 -10   8 117.050 19.9185  22
   6  10  -8 128.591 23.6867  17
  -6 -10   8 85.8614 16.2315  15
  -6 -10   7 7.17330 18.2522  22
   6  10  -7 3.23179 22.8336  17
  -6 -10   7 25.5344 15.6511  15
  -6 -10   6 46.1890 21.1801  22
   6  10  -6 86.0247 25.7408  17
  -6 -10   6 52.9305 19.6616  15
  -6 -10   5 137.534 25.6768  22
   6  10  -5 98.9100 27.9072  17
  -6 -10   5 65.1577 21.2305  15
  -6 -10   4 296.874 34.1899  22
  -6 -10   4 311.431 31.5913  15
   6  10  -4 350.893 37.7770  17
  -6 -10   3 239.363 32.2807  22
   6  10  -3 266.227 33.9113  17
  -6 -10   3 224.506 29.4416  15
  -6 -10   2 145.131 29.7898  22
   6  10  -2 180.454 32.0341  17
  -6 -10   2 135.672 26.0775  15
   6  10  -1 3455.69 146.385  20
  -6 -10   1 3835.40 148.258  22
  -6 -10   1 3922.66 146.533  15
   6  10  -1 3715.80 148.808  18
   6  10  -1 3772.37 147.193  17
   6 -10   0-14.8850 20.9482  12
   6  10   0-8.56946 29.5411  20
  -6 -10   0-1.88923 20.5435  15
   6  10   0 22.9728 23.4044  18
   6  10   1 3450.85 142.168  20
   6 -10   1 3337.36 138.506  12
  -6 -10  -1 3571.92 139.804  16
   6  10   2 1315.25 74.5819  20
  -6 -10  -2 1451.00 72.8581  16
   6 -10   2 1206.17 71.5351  12
   6 -10   3 165.231 31.8269  12
   6  10   3 246.964 37.6677  20
  -6 -10  -3 165.479 33.1145  16
   6 -10   4 2.09296 25.0224  12
   6  10   4 12.0715 26.6949  20
  -6 -10  -4 49.4158 25.8429  16
   6 -10   5 13.3511 25.4357  12
   6  10   5 13.7645 27.1146  21
   6  10   5-1.78350 24.5932  20
  -6 -10  -5 1.45102 22.1355  16
   6  10   6 524.339 38.2943  20
   6  10   6 478.230 36.2336  21
  -6 -10  -6 480.864 35.2941  16
   6 -10   6 608.007 41.9412  12
   6  10   7 106.129 19.1668  20
   6  11  -9 13.6668 11.2477  17
  -6 -11   8 224.378 21.0272  22
  -6 -11   8 159.965 16.5880  15
   6  11  -8 214.262 22.1395  17
  -6 -11   7 280.980 26.4771  22
  -6 -11   7 246.015 22.9885  15
   6  11  -7 316.940 29.1253  17
  -6 -11   6 19.2199 19.1935  22
   6  11  -6 31.0956 21.7062  17
  -6 -11   6 11.5786 16.5629  15
  -6 -11   5-1.65721 20.5784  22
   6  11  -5-3.21877 20.9424  17
  -6 -11   5 11.7340 17.8180  15
  -6 -11   4 1649.51 77.6262  22
  -6 -11   4 1521.98 73.1997  15
   6  11  -4 1619.62 76.1483  17
  -6 -11   3 418.985 38.8969  22
  -6 -11   3 409.124 35.7031  15
   6  11  -3 416.630 37.3026  17
  -6 -11   2 3428.36 135.178  22
  -6 -11   2 3391.38 131.841  15
   6  11  -2 3212.30 130.352  17
   6  11  -1 537.327 43.9973  20
   6  11  -1 457.542 39.9907  18
  -6 -11   1 534.233 41.2492  15
   6  11   0 616.557 49.7600  20
  -6 -11   0 694.704 47.1639  15
   6  11   1 1483.40 79.2273  20
  -6 -11  -1 1588.49 78.8273  16
   6 -11   2 25.3902 22.1801  12
   6  11   2 2.07193 27.3417  20
  -6 -11  -2 29.2498 27.4367  16
   6 -11   3 115.159 26.3752  12
   6  11   3 78.7574 29.8842  20
  -6 -11  -3 154.748 29.8510  16
   6 -11   4 29.6087 23.3001  12
   6  11   4 26.6612 23.9653  20
  -6 -11  -4 15.3048 24.2431  16
   6  11   5 171.651 28.2742  21
   6  11   5 219.641 29.9188  20
  -6 -11  -5 229.101 28.0498  16
   6  11   6 319.627 27.7683  20
  -6 -12   8 529.097 27.9932  22
  -6 -12   7 6.12695 13.6900  22
   6  12  -7-7.21552 14.3608  17
  -6 -12   7-2.49788 12.4142  15
  -6 -12   6 35.4450 17.9419  22
   6  12  -6 35.4322 17.6227  17
  -6 -12   6 65.3765 16.6498  15
  -6 -12   5 205.611 26.4478  22
   6  12  -5 150.453 22.9942  17
  -6 -12   5 146.693 21.9414  15
  -6 -12   4 247.479 29.8638  22
  -6 -12   4 179.704 26.1059  15
   6  12  -4 224.565 26.4476  17
  -6 -12   3 289.584 31.4448  22
  -6 -12   3 282.821 30.1448  15
   6  12  -3 268.502 28.2167  17
  -6 -12   2 106.726 26.5142  22
  -6 -12   2 133.096 25.7405  15
   6  12  -2 128.603 24.7975  18
  -6 -12   1 90.0791 23.5649  15
   6  12   0 130.207 30.3550  20
  -6 -12   0 108.061 24.3434  15
  -6 -12   0 144.576 31.1999  16
   6  12   1 97.6236 29.7078  20
  -6 -12  -1 96.3266 29.3240  16
   6  12   2 254.234 34.7937  20
  -6 -12  -2 316.590 35.7291  16
   6  12   3 27.0982 23.8907  20
  -6 -12  -3 36.2153 24.2689  16
   6  12   4 267.486 31.8768  20
  -6 -12  -4 352.922 31.5789  16
   6  12   5 281.674 27.5905  20
  -6 -12  -5 271.278 25.5796  16
  -6 -13   7 650.141 32.4423  22
  -6 -13   6 193.902 20.8137  22
  -6 -13   6 149.537 17.7043  15
  -6 -13   5 411.265 30.7640  22
  -6 -13   5 398.578 28.1662  15
  -6 -13   4 127.339 22.8094  22
  -6 -13   4 108.346 20.0344  15
  -6 -13   3 507.304 36.8650  22
  -6 -13   3 441.573 33.2765  15
   6  13  -3 420.984 32.5475  18
  -6 -13   2 685.952 42.7537  15
  -6 -13   1 465.554 38.4170  16
  -6 -13   1 438.330 35.1591  15
  -6 -13   0 1138.48 60.1132  16
   6  13   1 1662.50 78.2054  20
  -6 -13  -1 1806.99 78.3553  16
   6  13   2-6.02911 22.0922  20
  -6 -13  -2-23.6894 23.3224  16
   6  13   3 220.572 27.0996  20
  -6 -13  -3 260.322 28.3493  16
   6  13   4 9.14523 16.6142  21
   6  13   4 36.6414 18.0160  20
  -6 -13  -4 15.1556 17.1725  16
  -6 -13  -5 39.0136 13.9224  16
  -6 -14   6 39.0590 11.2533  22
  -6 -14   5 2.75912 13.4248  22
  -6 -14   5 22.2405 10.8950  15
  -6 -14   4 811.218 40.0089  15
  -6 -14   3 1815.67 73.9456  15
  -6 -14   2 19.5719 16.0543  15
  -6 -14   2 39.7121 20.5716  16
  -6 -14   1 64.4971 23.3583  16
  -6 -14   0-1.25266 20.6758  16
  -6 -14  -1-19.1801 20.2029  16
  -6 -14  -2 1088.46 52.3389  16
   6  14   3 118.896 18.5570  20
  -6 -14  -3 146.533 20.6459  16
  -6 -14  -4-0.66308 12.0996  16
  -6 -15   4-7.24942 12.4562  16
  -6 -15   3 27.9345 16.3650  16
  -6 -15   2 264.681 23.8219  16
  -6 -15   1 30.2704 16.8654  16
  -6 -15   0 402.985 28.2513  16
  -6 -15  -1 234.969 21.9355  16
  -6 -15  -2 17.7268 13.1796  16
   7   0 -11-14.6865 13.0213   6
   7   0 -10 274.811 27.2115   6
   7   0  -9-13.2677 22.4918   6
   7   0  -8 2826.95 112.606   6
   7   0  -8 2541.74 105.597  17
   7   0  -7-27.0589 31.0598   6
   7   0  -7 21.6180 27.0434  11
   7   0  -7-7.11702 22.1615  17
   7   0  -7 21.2800 24.6764  18
   7   0  -6 757.221 56.0805   6
   7   0  -6 689.658 58.2758  11
   7   0  -6 824.743 56.8288  18
   7   0  -6 759.451 51.8874  17
   7   0  -5 19.1607 31.1284   6
   7   0  -5-2.69914 31.0616  11
   7   0  -5-6.40938 24.6740  17
   7   0  -5 2.48088 29.5519  18
   7   0  -4 2034.00 105.014  11
   7   0  -4 2162.31 99.2765   6
   7   0  -4 2031.13 102.691  18
   7   0  -4 1968.34 96.4348  17
   7   0  -3 32.8401 29.5824   6
   7   0  -3-2.87008 31.8278  11
   7   0  -3 10.7731 33.0307  18
   7   0  -3-13.8581 27.1440  17
   7   0  -2 2584.26 114.087   6
   7   0  -2 2652.37 205.560   1
   7   0  -2 2430.54 117.305  18
   7   0  -2 2419.00 113.521  21
   7   0  -2 2665.52 116.030  17
   7   0  -1 11.1223 30.6742   6
   7   0  -1 18.8415 30.4182  21
   7   0  -1-34.6504 61.5297   1
   7   0   0 856.340 59.7980   6
   7   0   0 809.958 65.8397  18
   7   0   0 912.330 65.2846  21
   7   0   1 18.0524 30.4975   6
   7   0   1 56.9754 60.7069   1
   7   0   1 3.03338 33.7739  21
   7   0   1 33.4857 32.4618  18
   7   0   2 257.493 79.6367   1
   7   0   2 261.394 45.9359  21
   7   0   2 229.351 43.2575  18
   7   0   3 12.4073 37.2049  21
   7   0   3 43.0784 33.6491  18
   7   0   4 5625.02 213.610  18
   7   0   5-15.8868 29.5334  12
   7   0   5 5.48489 38.4691  21
   7   0   6 426.648 39.1960  12
   7   0   7 4.09063 18.2806  12
   7   1 -11 18.5673 12.7444   6
   7   1 -10 134.856 22.5496   6
   7   1  -9 36.4478 22.6269   6
   7   1  -8 5.16846 27.1767   6
   7   1  -8 17.6712 22.8065  17
   7   1  -7 653.489 50.1624   6
   7   1  -7 649.870 51.2865  11
   7   1  -7 548.697 47.1574  18
   7  -1  -7 575.555 42.7521  17
   7   1  -7 666.570 47.2380  17
   7   1  -6 2.04086 29.3075   6
   7   1  -6-2.58351 29.4109  11
   7  -1  -6 9.24438 23.3078  17
   7   1  -6 16.7553 25.9274  17
   7  -1  -6-25.5235 27.4443  18
   7   1  -6-21.3653 30.8044  18
   7   1  -5 42.2824 31.1901   6
   7   1  -5 29.6313 29.6480  11
   7  -1  -5 32.2005 25.2271  17
   7   1  -5 2.23458 25.9972  17
   7  -1  -5-4.74903 28.5733  18
   7   1  -5 30.8282 30.3008  18
   7   1  -4 40.9061 31.3465   6
   7   1  -4-5.62044 30.5654  11
   7   1  -4 2.32213 28.7536  17
   7  -1  -4 50.6330 30.7609  18
   7   1  -4 21.4487 32.5759  18
   7  -1  -4 23.3860 26.0816  17
   7   1  -3 163.243 35.8961   6
   7   1  -3 203.849 40.0549  11
   7   1  -3 224.565 36.1770  17
   7  -1  -3 186.754 38.8376  18
   7   1  -3 123.465 38.8636  18
   7  -1  -3 150.248 33.2459  17
   7   1  -2-13.2091 29.4366   6
   7   1  -2-11.5871 57.4637   1
   7   1  -2 7.55169 28.4462  21
   7  -1  -2-2.69753 35.1994  18
   7  -1  -2 6.83018 26.7560  17
   7   1  -2-7.31383 28.0558  17
   7   1  -1 391.509 43.2559   6
   7   1  -1 232.040 78.1123   1
   7  -1  -1 351.546 43.4445  21
   7   1  -1 336.117 45.2914  21
   7  -1  -1 389.757 46.4242  18
   7   1  -1 315.354 43.2736  17
   7   1   0 2087.59 98.4891   6
   7   1   0 1821.83 173.343   1
   7   1   0 2013.38 107.133  21
   7   1   0 2158.17 107.410  18
   7  -1   0 1974.17 104.665  21
   7   1   1 410.573 43.8495   6
   7   1   1 388.163 91.7434   1
   7  -1   1 457.686 50.5770  18
   7  -1   1 413.411 51.8273  21
   7   1   1 375.797 49.8985  21
   7   1   1 367.056 47.4922  18
   7  -1   2 651.683 58.6942  18
   7  -1   2 660.847 61.0323  21
   7   1   2 715.343 62.4882  21
   7   1   2 701.934 58.4916  18
   7  -1   3 668.199 57.8567  18
   7   1   3 626.683 56.0455  18
   7  -1   3 684.767 61.2725  21
   7   1   4 95.9074 34.3739  18
   7  -1   5 118.459 34.7374  12
   7   1   5 78.3000 32.2659  12
   7  -1   5 103.527 39.3957  21
   7   1   5 54.7543 35.0265  21
   7  -1   6 384.322 37.5792  12
   7   1   6 270.647 32.9863  12
   7   1   6 343.868 42.2239  21
   7   1   7 117.120 21.3820  12
   7  -1   7 189.316 26.2427  12
   7   2 -11 6.42313 10.9108   6
   7  -2 -11 1.26917 10.2914   6
   7   2 -10 257.554 24.7919   6
   7  -2 -10 227.750 24.2168   6
   7   2  -9 110.636 26.2582   6
   7  -2  -9 80.7851 24.0697   6
   7   2  -9 95.0783 21.6145  17
   7   2  -8 1564.60 73.9047   6
   7  -2  -8 1516.39 74.3070   6
   7   2  -8 1423.78 72.5889  18
   7   2  -8 1496.67 73.0905  17
   7   2  -7 339.054 38.9506   6
   7  -2  -7 352.317 39.7253   6
   7   2  -7 298.376 37.2271  11
   7  -2  -7 289.494 38.3889  11
   7   2  -7 394.765 40.8970  18
   7   2  -7 325.309 39.5632  17
   7   2  -6 2755.55 114.114   6
   7  -2  -6 2678.94 114.166   6
   7   2  -6 2572.12 118.845  11
   7  -2  -6 2501.16 117.721  11
   7  -2  -6 2467.93 109.965  18
   7   2  -6 2757.89 119.642  18
   7  -2  -6 2380.59 105.644  17
   7   2  -6 2820.09 116.378  17
   7   2  -5 60.0270 31.3401   6
   7  -2  -5 39.4809 30.3382   6
   7   2  -5 52.6430 30.5291  11
   7  -2  -5 75.5513 30.2173  11
   7   2  -5 6.88381 27.1759  17
   7  -2  -5 22.3593 28.3788  18
   7   2  -5 13.1160 32.1926  18
   7  -2  -5 42.4221 24.2963  17
   7   2  -4 135.221 33.9846   6
   7  -2  -4 112.464 34.0672   6
   7   2  -4 129.556 36.4712  11
   7  -2  -4 143.260 33.9881  11
   7   2  -4 97.7382 33.5792  17
   7  -2  -4 133.558 33.8697  18
   7   2  -4 98.3385 36.1456  18
   7  -2  -4 136.830 29.6283  17
   7   2  -3 184.284 34.8631   6
   7  -2  -3 191.475 35.3728   6
   7   2  -3 163.937 36.9179  11
   7  -2  -3 193.853 39.2621  11
   7   2  -3 136.730 35.8955  17
   7  -2  -3 206.926 37.6075  18
   7  -2  -3 102.005 28.7171  17
   7   2  -2-11.4003 58.6782   1
   7  -2  -2 11.1292 60.2732   1
   7   2  -2 23.8060 29.3303   6
   7  -2  -2 13.0238 29.6440   6
   7  -2  -2 92.4378 34.1854  18
   7   2  -2 17.4128 30.9953  17
   7   2  -1 865.042 59.0038   6
   7  -2  -1 750.812 56.4723   6
   7   2  -1 665.515 107.033   1
   7  -2  -1 546.825 99.0430   1
   7  -2  -1 913.124 63.2184  18
   7   2  -1 877.393 65.8566  18
   7  -2  -1 772.119 58.1689  21
   7   2   0 83.4379 33.1459   6
   7  -2   0 109.557 34.4883   6
   7  -2   0 111.595 66.9371   1
   7   2   0 68.6415 60.9774   1
   7  -2   0 2.72989 32.9039  21
   7  -2   0 57.6555 36.2778  18
   7   2   0 89.2382 39.9136  18
   7   2   1 921.118 59.5553   6
   7  -2   1 776.707 56.9319   6
   7   2   1 667.542 109.069   1
   7  -2   1 829.979 114.148   1
   7   2   1 792.832 67.5322  21
   7   2   1 831.308 62.5302  18
   7  -2   1 771.519 62.6180  21
   7   2   2 398.155 91.3295   1
   7  -2   2 326.411 82.7332   1
   7   2   2 325.659 51.2076  21
   7  -2   2 427.005 50.1272  21
   7  -2   2 374.779 47.6355  18
   7   2   2 327.064 45.0483  18
   7  -2   3 5027.68 199.203  18
   7   2   3 5061.45 196.776  18
   7  -2   3 5105.59 202.548  21
   7   2   4 5319.93 207.392  18
   7  -2   4 5673.26 218.706  21
   7   2   4 5622.68 218.649  21
   7  -2   5 5357.62 202.453  12
   7   2   5 5310.15 207.672  21
   7  -2   6 151.036 29.5452  12
   7   2   6 101.512 23.8679  12
   7   2   6 113.583 34.6847  21
   7  -2   7 30.7551 22.1031  12
   7  -2   8 6.22633 13.0642  12
   7   3 -10 98.8016 18.6091   6
   7  -3 -10 111.251 18.9081   6
   7   3 -10 65.2217 16.8767  17
   7  -3  -9 529.526 37.4307   6
   7   3  -9 561.914 37.8472   6
   7   3  -9 510.880 37.0902  17
   7   3  -8 11.0045 22.7818   6
   7  -3  -8-9.42651 24.7807   6
   7   3  -8 3.46925 22.6349  17
   7   3  -8 7.23119 23.1933  18
   7   3  -7 24.8327 25.0019   6
   7  -3  -7-8.89281 26.8559   6
   7   3  -7-10.9701 24.4256  11
   7  -3  -7 41.5297 25.3347  11
   7   3  -7 6.03026 25.7160  17
   7   3  -6 261.747 36.2083   6
   7  -3  -6 305.337 37.7956   6
   7  -3  -6 298.753 38.9623  11
   7   3  -6 321.621 39.1007  17
   7   3  -5 141.717 31.7289   6
   7  -3  -5 136.610 32.7572   6
   7   3  -5 136.722 33.3290  11
   7  -3  -5 147.951 32.6533  11
   7   3  -5 139.795 33.1314  17
   7  -3  -5 183.208 31.1982  18
   7  -3  -5 121.735 23.5083  17
   7   3  -4 536.343 46.5197   6
   7  -3  -4 484.310 45.8878   6
   7   3  -4 517.369 49.4922  11
   7  -3  -4 525.811 48.4788  11
   7  -3  -4 454.789 44.7568  18
   7   3  -4 498.228 49.6576  17
   7   3  -3-2.08461 27.2780   6
   7  -3  -3-10.4865 26.9854   6
   7   3  -3 16.4248 30.4740  11
   7  -3  -3 18.7751 30.8670  11
   7  -3  -3 22.1084 29.3596  18
   7   3  -2 1496.39 78.1147   6
   7  -3  -2 1448.06 77.4229   6
   7   3  -2 1405.42 144.624   1
   7  -3  -2 1375.29 143.769   1
   7  -3  -2 1488.58 83.9972  18
   7   3  -2 1408.94 86.1011  18
   7   3  -1 254.375 37.3028   6
   7  -3  -1 169.953 35.2048   6
   7   3  -1 100.337 62.7089   1
   7  -3  -1 195.708 72.0866   1
   7  -3  -1 261.365 36.5411  21
   7  -3  -1 298.888 42.6562  18
   7   3  -1 276.522 44.3167  18
   7   3   0 698.445 53.6870   6
   7  -3   0 764.668 54.5647   6
   7   3   0 648.352 58.1774  18
   7  -3   0 695.883 58.3258  18
   7  -3   0 662.690 55.2428  21
   7   3   0 726.926 109.798   1
   7  -3   0 620.483 98.8179   1
   7   3   1 540.454 48.3509   6
   7  -3   1 594.928 49.9366   6
   7   3   1 584.978 101.644   1
   7  -3   1 431.470 88.8841   1
   7   3   1 591.836 53.6271  18
   7  -3   1 580.385 53.4213  18
   7  -3   1 555.444 52.5827  21
   7   3   2 1709.55 101.150  21
   7   3   2 1842.05 93.8657  18
   7  -3   2 1678.12 95.5009  21
   7  -3   3 23.4058 36.5862  21
   7  -3   3 88.4304 38.1596  18
   7   3   3 46.6098 31.3314  18
   7  -3   4 3084.19 132.776  12
   7   3   4 2784.56 125.134  18
   7   3   4 3176.49 139.217  21
   7  -3   5 486.553 47.7212  12
   7   3   5 440.187 40.0336  12
   7   3   5 450.613 52.0472  21
   7  -3   6 5.94381 25.5670  12
   7   3   6 20.0861 29.6059  21
   7  -3   7 156.081 26.2216  12
   7  -3   8 36.3192 14.1640  12
   7   4 -10 0.79973 13.7643   6
   7  -4 -10 7.96630 13.9497   6
   7   4 -10 22.1249 14.4049  17
   7   4  -9 169.067 23.9970   6
   7  -4  -9 159.604 23.4076   6
   7   4  -9 190.554 25.9461  17
   7   4  -9 165.318 24.9775  18
   7   4  -8 11.4926 21.9267   6
   7  -4  -8 50.4027 22.7260   6
   7   4  -8 10.3768 22.3906  17
   7   4  -7 95.5147 26.6788   6
   7  -4  -7 62.9333 25.2853   6
   7   4  -7 85.6974 26.5949  11
   7  -4  -7 81.5277 25.6634  11
   7   4  -7 80.3401 29.9872  17
   7   4  -6 163.267 30.3700   6
   7  -4  -6 191.689 32.4217   6
   7   4  -6 148.566 29.9694  11
   7  -4  -6 94.2189 27.8914  11
   7   4  -6 160.814 34.4533  17
   7   4  -5 219.302 33.2438   6
   7  -4  -5 190.750 32.8049   6
   7   4  -5 232.246 35.2706  11
   7  -4  -5 209.016 34.3829  11
   7  -4  -5 183.664 28.3994  18
   7   4  -4 17.5642 29.1162   6
   7  -4  -4 49.2186 27.7678   6
   7   4  -4 10.0002 26.8778  11
   7  -4  -4 76.5821 30.1240  11
   7  -4  -4 27.5873 25.2999  18
   7   4  -3 564.407 47.6045   6
   7  -4  -3 641.038 48.1873   6
   7   4  -3 616.987 53.0469  11
   7  -4  -3 612.521 52.1497  11
   7  -4  -3 586.831 50.3856  18
   7   4  -3 658.583 56.3913  18
   7   4  -2 284.167 41.5630  11
   7  -4  -2 250.717 39.7764  11
   7   4  -2 345.260 39.3633   6
   7  -4  -2 371.393 39.8960   6
   7   4  -2 316.709 44.5642  17
   7  -4  -2 358.120 43.0987  18
   7   4  -2 385.603 47.5394  18
   7   4  -1 2288.69 104.208   6
   7  -4  -1 2535.48 106.286   6
   7   4  -1 1996.33 179.069   1
   7  -4  -1 2000.02 174.442   1
   7   4  -1 2300.83 114.685  18
   7  -4  -1 2427.99 113.366  18
   7   4  -1 2408.87 113.010  17
   7   4   0 235.667 74.1583   1
   7  -4   0 303.929 70.3947   1
   7   4   0 235.702 36.3299   6
   7  -4   0 298.897 37.4203   6
   7   4   0 289.552 44.0730  18
   7  -4   0 281.447 42.0237  18
   7   4   1 809.389 54.6755   6
   7  -4   1 746.944 53.1756   6
   7  -4   1 701.361 58.0904  18
   7   4   1 734.444 58.5382  18
   7   4   1 625.428 100.916   1
   7  -4   1 549.765 96.7781   1
   7   4   2 437.973 47.8872  18
   7   4   3 1650.14 85.2571  18
   7  -4   4 593.917 54.9002  12
   7   4   4 535.258 45.1798  18
   7   4   4 555.257 57.2846  21
   7  -4   5 1092.22 66.7330  12
   7   4   5 925.999 55.1578  12
   7   4   5 1149.76 71.6904  21
   7  -4   6 1.93430 26.0799  12
   7   4   6 56.9078 28.1184  21
   7  -4   7 109.869 24.1158  12
   7  -4   8 103.090 17.7232  12
   7   5 -10 170.458 19.1086  17
   7   5  -9 127.938 19.2177   6
   7  -5  -9 101.555 18.9031   6
   7   5  -9 55.6286 22.3035  17
   7   5  -9 102.555 22.2660  18
   7   5  -8 3.76643 19.4612   6
   7  -5  -8 2.52992 19.4532   6
   7   5  -8 8.39652 23.0408  17
   7   5  -7 249.737 30.3364   6
   7  -5  -7 228.319 29.5672   6
   7   5  -6 565.449 41.4031   6
   7  -5  -6 545.300 41.6106   6
   7   5  -6 495.244 42.6818  11
   7  -5  -6 494.129 42.5651  11
   7   5  -5 1225.94 64.1709   6
   7  -5  -5 1227.70 63.4821   6
   7   5  -5 1081.97 65.7569  11
   7  -5  -5 1059.16 65.1625  11
   7  -5  -4 311.812 35.9464   6
   7   5  -4 294.867 36.6633  11
   7  -5  -4 314.165 38.8196  11
   7   5  -4 352.332 36.1657   6
   7   5  -4 305.642 41.4451  17
   7  -5  -4 299.941 34.0270  18
   7   5  -3 79.6105 28.9611  11
   7  -5  -3 26.3527 27.0082  11
   7   5  -3 43.0259 27.8668   6
   7  -5  -3 43.3843 27.5540   6
   7   5  -3 51.2537 33.9329  17
   7  -5  -3 38.9977 25.7590  18
   7   5  -3 35.7039 34.4441  18
   7   5  -2 217.771 37.0226  11
   7  -5  -2 252.205 37.4176  11
   7   5  -2 281.241 34.5616   6
   7  -5  -2 247.915 33.6198   6
   7   5  -2 262.685 40.8024  17
   7  -5  -2 310.330 40.1853  18
   7   5  -2 296.365 43.4012  18
   7   5  -1 23.0408 26.7423   6
   7  -5  -1 19.2149 24.7272   6
   7  -5  -1-4.96196 29.2601  18
   7   5  -1 16.1700 32.7417  18
   7   5  -1 24.9563 31.9291  17
   7   5   0 108.001 30.3520   6
   7  -5   0 98.0257 28.5263   6
   7  -5   0 97.4376 32.3825  18
   7   5   0 104.725 35.0568  18
   7  -5   1 5.21695 29.4971  18
   7   5   1 67.6791 31.0488  18
   7   5   2 448.492 45.0072  18
   7   5   3 2969.39 133.431  21
   7   5   3 2597.65 116.399  18
   7   5   4 4005.44 160.652  21
   7   5   4 3477.73 140.331  18
   7  -5   5 953.217 62.4730  12
   7   5   5 1174.67 69.4823  21
   7  -5   6 1.85234 24.5053  12
   7   5   6 13.6139 25.3083  21
   7  -5   7 88.0282 21.8111  12
   7   5   7 53.8558 20.8598  21
   7  -5   8 269.623 21.9056  12
   7   6 -10 10.2718 12.2518  17
   7   6  -9 150.107 17.0853   6
   7   6  -9 225.255 25.3794  17
   7   6  -9 182.487 24.8779  18
   7   6  -8 45.8910 16.8642   6
   7  -6  -8 20.7080 17.0023   6
   7   6  -7 596.104 39.9475   6
   7  -6  -7 692.241 40.9410   6
   7   6  -6 23.0307 21.1115   6
   7  -6  -6 35.0719 22.4452   6
   7   6  -6 42.7658 20.0816  11
   7  -6  -6 23.3929 21.3818  11
   7   6  -6 8.26414 29.4088  17
   7   6  -5-3.13060 21.5839   6
   7  -6  -5 23.8152 22.9038   6
   7   6  -5-9.80245 20.8004  11
   7  -6  -5-19.6912 23.0617  11
   7   6  -5 46.3979 31.9454  17
   7   6  -4 447.465 37.8989   6
   7  -6  -4 502.192 39.6641   6
   7   6  -4 375.774 37.8229  11
   7  -6  -4 387.377 39.2040  11
   7   6  -4 498.785 48.1836  17
   7  -6  -3 255.024 35.0116  11
   7   6  -3 338.893 35.3354   6
   7  -6  -3 333.076 35.2074   6
   7   6  -3 339.934 36.9787  11
   7  -6  -3 303.018 35.4247  18
   7   6  -3 343.401 46.8035  18
   7   6  -3 364.673 43.7402  17
   7   6  -2 1298.13 68.0099   6
   7  -6  -2 1347.94 68.7045   6
   7   6  -2 1287.92 73.1083  11
   7  -6  -2 1252.24 72.1344  11
   7   6  -2 1516.55 82.8659  18
   7  -6  -2 1208.07 71.9030  18
   7   6  -2 1521.37 81.1545  17
   7   6  -1 210.775 32.3722  11
   7  -6  -1 144.076 31.4849  11
   7   6  -1 197.108 31.5027   6
   7  -6  -1 233.682 31.4994   6
   7  -6  -1 177.164 35.5787  18
   7   6  -1 181.214 38.2582  18
   7   6  -1 245.858 40.1139  17
   7   6   0 1687.06 81.3956   6
   7  -6   0 1614.58 80.5539   6
   7  -6   0 1887.71 90.8144  18
   7   6   0 1830.79 91.9257  18
   7   6   1 210.866 37.1116  18
   7  -6   2 2634.23 119.347  12
   7   6   2 2496.24 112.123  18
   7  -6   3 1189.26 69.0238  12
   7   6   3 908.585 57.3330  18
   7   6   4 469.696 50.2417  21
   7  -6   5 20.3465 27.2207  12
   7   6   5 40.4947 29.9352  21
   7  -6   6 137.393 26.9056  12
   7   6   6 179.060 28.9548  21
   7  -6   7-3.85873 18.2581  12
   7   7  -9 159.631 22.0851  18
   7   7  -8 84.8083 24.0340  17
   7   7  -7 26.2281 15.3864   6
   7   7  -7 53.1604 24.5912  17
   7   7  -6-3.52302 17.4344   6
   7   7  -6 13.4828 25.4112  17
   7  -7  -5 77.4716 19.2015  11
   7   7  -5 88.3726 22.0857   6
   7  -7  -5 131.474 23.1659   6
   7   7  -5 97.7685 31.0259  17
   7   7  -4 805.488 48.0263   6
   7  -7  -4 877.480 49.2542   6
   7   7  -4 826.018 51.2395  11
   7  -7  -4 799.113 50.6463  11
   7   7  -4 984.251 62.3049  17
   7   7  -3 71.1851 23.0008   6
   7  -7  -3 35.8484 22.9371   6
   7   7  -3 16.7238 19.8128  11
   7  -7  -3 1.86777 19.8316  11
   7   7  -3-29.1988 31.1341  17
   7   7  -3 88.5047 35.3932  18
   7   7  -2 25.1772 21.8969  11
   7  -7  -2 11.5958 20.4303  11
   7   7  -2 56.4409 22.2158   6
   7  -7  -2 7.63606 21.2266   6
   7   7  -2-5.01842 31.8271  18
   7   7  -2 36.3438 28.3868  17
   7  -7  -1-3.08129 21.2967   6
   7   7  -1-13.8754 22.2335  11
   7  -7  -1 13.8232 21.8987  11
   7   7  -1-7.74091 21.9242   6
   7   7  -1 16.9992 30.3393  18
   7   7  -1 27.2758 29.4944  17
   7  -7   0 31.2257 21.2403  11
   7  -7   0 31.6783 27.2361  12
   7   7   0 20.7234 28.3417  18
   7  -7   1 463.782 46.4873  12
   7   7   1 509.209 45.3315  18
   7  -7   2 955.992 61.5450  12
   7   7   2 925.663 56.0375  18
   7  -7   3 335.503 39.9268  12
   7   7   4 381.358 45.7057  21
   7  -7   4 384.689 40.7768  12
   7   7   5 299.590 38.0366  21
   7  -7   6-3.07059 21.6389  12
   7   7   6 2.96092 20.2611  21
   7  -7   7 221.376 23.1994  12
   7   8  -9-8.09166 13.2342  17
   7   8  -9-4.71758 14.4528  18
   7   8  -8 346.523 29.7275  17
   7   8  -7 149.845 26.4257  17
   7   8  -6 109.811 27.9092  17
   7   8  -5 372.704 38.7074  17
   7   8  -4 168.428 33.2195  17
   7   8  -3 43.4964 27.7190  17
   7   8  -3 30.3964 29.4108  18
   7   8  -2 249.019 39.0145  18
   7   8  -2 322.548 38.4349  17
   7  -8  -1 1.82723 21.6943  12
   7   8  -1 17.6666 28.0872  18
   7  -8   0-9.97850 24.3208  12
   7   8   0 12.3325 24.6465  18
   7  -8   1 729.863 52.1178  12
   7   8   1 751.254 49.7480  18
   7  -8   2 2297.53 103.253  12
   7  -8   3 113.032 28.7304  12
   7   8   4 650.923 52.8986  21
   7  -8   4 630.328 47.0142  12
   7   8   5 524.798 42.4625  21
   7  -8   5 599.017 42.2898  12
   7   8   6 251.586 25.5931  21
   7   9  -8 63.8953 17.8385  17
   7   9  -7 47.9393 21.2884  17
   7   9  -6 16.6238 22.7766  17
   7   9  -5 247.063 32.6846  17
   7   9  -4 7.12120 24.1803  17
   7   9  -3 446.656 43.4747  18
   7   9  -3 474.296 40.9681  17
   7   9  -2 104.034 29.9054  18
   7   9  -2 87.4099 27.6493  17
   7   9  -1 413.796 39.8835  18
   7   9   0 1329.91 68.3691  18
   7   9   1 474.518 37.0956  18
   7  -9   1 441.903 39.8832  12
   7  -9   2 3018.00 122.294  12
   7  -9   3 203.197 29.9809  12
   7   9   4 360.552 39.3805  21
   7  -9   4 368.951 34.1465  12
   7  -9   5 46.0520 20.4464  12
   7   9   5 34.1444 20.7467  21
   7  -9   6 183.810 20.4643  12
   7  10  -8-4.24506 10.8804  17
   7  10  -8 12.5408 13.2129  18
   7  10  -7 518.685 34.2731  18
   7  10  -7 451.403 30.5844  17
   7  10  -6 49.1972 19.9317  17
  -7 -10   5 17.6444 14.2521  22
   7  10  -5 22.2396 20.0168  17
   7  10  -5 30.0633 24.3209  18
   7  10  -4 566.432 42.8746  18
   7  10  -4 475.054 38.3758  17
   7  10  -3-10.6347 23.0734  18
   7  10  -3 55.9283 23.9000  17
  -7 -10   2 86.5249 23.1284  16
   7  10  -2 81.9823 26.0273  18
   7  10  -1 1424.11 68.9683  18
  -7 -10   1 1419.28 64.4708  16
  -7 -10   0 113.666 22.9550  16
   7  10   0 105.019 21.7817  18
   7 -10   3 432.642 34.1290  12
   7 -10   4 120.709 22.2654  12
   7  10   4 103.048 25.9747  21
   7 -10   5-2.98329 13.7170  12
   7  10   5-22.6097 15.4571  21
   7  11  -7 43.3194 14.6178  18
   7  11  -6-4.63012 16.4694  18
   7  11  -6-0.87697 14.1703  17
   7  11  -5 304.711 28.8664  18
   7  11  -5 253.406 25.3725  17
   7  11  -4 439.924 33.4593  18
   7  11  -4 280.759 28.0806  17
   7  11  -3 1071.56 54.8196  18
   7  11  -2 449.249 33.0779  18
  -7 -11   2 366.717 30.4785  16
  -7 -11   1 496.626 34.6924  16
  -7 -11   0 1202.31 56.0831  16
  -7 -11  -1 1075.32 51.5580  16
   7  11   3 32.3859 21.9650  21
   7  11   4 132.363 20.5527  21
   7  12  -6 563.526 29.9619  18
   7  12  -5 9.77450 13.8042  18
  -7 -12   4 3.60252 12.8653  16
   7  12  -4 7.62931 15.5214  18
  -7 -12   3 59.6252 16.7316  16
   7  12  -3 75.7027 16.4217  18
  -7 -12   2 353.560 26.6659  16
  -7 -12   1 95.5064 17.6836  16
  -7 -12   0 483.268 30.8769  16
  -7 -12  -1 18.1144 13.7141  16
   7  12   3 56.6211 18.0246  21
  -7 -13   2 36.0834 12.2259  16
  -7 -13   1 35.0105 12.6109  16
   7  13   2 521.556 31.9126  21
   8   0  -9-7.34696 14.1379   6
   8   0  -8 5856.58 201.362   6
   8   0  -7 9.64144 23.0898   6
   8   0  -7 15.4261 20.4209  11
   8   0  -6 74.1504 26.7084   6
   8   0  -6 92.8886 25.2746  11
   8   0  -6 87.3699 24.7650  18
   8   0  -5 47.9323 25.8701  11
   8   0  -5-10.3950 25.8348   6
   8   0  -5 7.68414 24.4366  18
   8   0  -4-4.65239 24.2632  11
   8   0  -4-1.83936 27.4836   6
   8   0  -4-17.2509 27.9035  18
   8   0  -3-22.0936 30.2021  11
   8   0  -3 19.1425 28.1140   6
   8   0  -3-18.5187 31.9205  18
   8   0  -2 871.753 57.0372   6
   8   0  -2 775.369 58.4976  11
   8   0  -2 872.395 62.0638  18
   8   0  -1 3.94226 30.6146   6
   8   0  -1 8.13350 23.8969  21
   8   0   0 174.312 35.4309   6
   8   0   0 172.336 34.5341  21
   8   0   0 134.321 38.6284  18
   8   0   1 9.49233 29.3795  21
   8   0   1 16.6930 30.3323  18
   8   0   2 232.225 37.5454  21
   8   0   2 296.287 40.4778  18
   8   0   3 29.3921 29.5164  21
   8   0   4 11308.3 379.448  12
   8   0   4 11310.1 384.137  21
   8   0   5 21.9747 18.6656  12
   8   0   6 155.735 19.3433  12
   8   1  -9 121.740 17.3872   6
   8   1  -8 9238.91 305.603   6
   8   1  -7 795.050 49.3555  11
   8   1  -7 832.776 47.8752   6
   8   1  -7 781.725 44.6953  17
   8   1  -6 1176.36 59.3413   6
   8   1  -6 1055.04 58.7989  18
   8   1  -6 1036.17 55.6139  17
   8   1  -5 106.608 27.5441  11
   8   1  -5 89.0467 28.3291   6
   8  -1  -5 45.0493 24.6044  18
   8   1  -5 93.7153 29.0058  18
   8   1  -5 85.1345 26.0830  17
   8   1  -4 88.0738 29.5233  11
   8   1  -4 29.1478 26.2120   6
   8  -1  -4 26.8275 27.5688  18
   8   1  -4 110.520 32.0738  18
   8   1  -4 34.3860 25.9971  17
   8   1  -3 967.836 60.3148   6
   8   1  -3 912.648 62.6222  11
   8  -1  -3 1006.52 64.5063  18
   8   1  -3 1011.92 65.6471  18
   8   1  -2 731.193 53.1280   6
   8   1  -2 714.024 56.4195  11
   8  -1  -2 670.649 55.8513  18
   8   1  -1 54.6938 30.1046   6
   8   1  -1 8.61045 25.4768  21
   8  -1  -1-2.41238 30.1441  18
   8   1   0 106.738 30.9940   6
   8  -1   0 147.146 31.1973  21
   8   1   0 136.741 34.6344  21
   8   1   0 136.442 37.8366  18
   8  -1   1 119.337 33.1756  21
   8   1   1 97.5254 32.0421  21
   8  -1   1 125.975 34.5000  18
   8   1   1 155.955 35.8070  18
   8  -1   2 809.801 58.7247  18
   8   1   2 788.136 56.9722  18
   8  -1   2 724.565 56.5864  21
   8   1   2 825.218 58.7925  21
   8   1   3 422.216 42.1434  18
   8  -1   3 436.034 44.4001  21
   8   1   3 505.997 46.0210  21
   8  -1   4 53.7861 26.4928  12
   8   1   4 48.8968 25.1892  12
   8  -1   5 294.632 30.0553  12
   8   1   5 216.565 25.8465  12
   8  -1   6 180.825 20.3003  12
   8   2  -9 73.4950 15.2775   6
   8  -2  -9 70.7613 15.0969   6
   8   2  -8 849.407 43.5823   6
   8  -2  -8 862.327 43.8260   6
   8   2  -7 536.550 39.9014  11
   8  -2  -7 487.622 38.8107  11
   8   2  -7 649.518 40.4435   6
   8  -2  -7 565.591 39.2981   6
   8   2  -7 505.067 37.7441  18
   8   2  -7 498.554 37.0780  17
   8   2  -6 40.5022 25.6903   6
   8  -2  -6 70.5747 25.7160   6
   8   2  -6 47.0682 22.4022  11
   8  -2  -6 29.4696 21.5489  11
   8   2  -6 38.3860 24.0462  18
   8   2  -6 70.5496 23.6207  17
   8   2  -5 157.226 29.6877  11
   8  -2  -5 157.572 29.0005  11
   8   2  -5 251.172 32.1705   6
   8  -2  -5 140.843 30.0903   6
   8  -2  -5 146.962 27.0878  18
   8   2  -5 162.275 32.8599  18
   8   2  -5 130.767 29.2693  17
   8   2  -4 29.2139 26.5157  11
   8  -2  -4 52.5197 26.6843  11
   8   2  -4 45.8084 27.5398   6
   8  -2  -4 28.2967 27.8042   6
   8  -2  -4 1.93028 24.4236  18
   8   2  -4 57.9475 30.1286  18
   8   2  -4 9.80208 26.5049  17
   8   2  -3 7.14938 26.2251  11
   8  -2  -3 2.31726 26.8585  11
   8   2  -3 11.0190 27.4416   6
   8  -2  -3 23.9742 28.9232   6
   8  -2  -3 10.6817 26.8529  18
   8   2  -2 1715.52 81.0201   6
   8  -2  -2 1558.22 80.6588   6
   8   2  -2 1622.55 86.0952  11
   8  -2  -2 1427.68 83.0001  11
   8  -2  -2 1723.02 86.0620  18
   8   2  -1-18.9380 27.2580   6
   8  -2  -1-7.60003 29.1017   6
   8   2  -1 37.7146 26.2500  21
   8  -2  -1 18.7625 28.6726  18
   8   2  -1-17.0698 32.1718  18
   8   2   0 509.803 44.9602   6
   8  -2   0 556.163 45.3444   6
   8   2   0 519.665 50.2100  18
   8  -2   0 474.340 49.0179  18
   8   2   0 421.724 46.3566  21
   8   2   1 510.463 49.1850  18
   8   2   1 538.006 51.1857  21
   8   2   2 65.5164 33.4375  21
   8  -2   2 86.4969 33.8934  18
   8   2   2 49.3122 29.5596  18
   8   2   3 61.2772 33.1089  21
   8   2   3 77.7245 28.8838  18
   8  -2   4 738.322 50.0532  12
   8   2   4 697.606 46.4085  12
   8  -2   5 410.929 34.5638  12
   8   2   5 347.629 28.5491  12
   8   2   5 462.655 38.4104  21
   8  -2   6 179.401 20.3202  12
   8   3  -9 291.922 20.2344   6
   8  -3  -9 298.697 20.0481   6
   8   3  -8 3471.18 121.851   6
   8  -3  -8 3293.09 121.899   6
   8   3  -8 3467.74 121.894  17
   8   3  -7 2564.62 101.295   6
   8  -3  -7 2721.88 102.413   6
   8   3  -7 2519.30 103.964  18
   8   3  -7 2655.63 103.450  17
   8  -3  -6 123.647 25.6269   6
   8   3  -6 149.984 25.6272  11
   8  -3  -6 124.852 25.6362  11
   8   3  -6 168.106 26.8283   6
   8   3  -6 166.827 29.4434  18
   8   3  -6 95.2425 26.7214  17
   8   3  -5 198.536 30.8934  11
   8  -3  -5 211.574 30.0910  11
   8   3  -5 244.062 31.7351   6
   8  -3  -5 210.932 30.3297   6
   8   3  -5 301.591 37.3165  18
   8   3  -5 252.381 33.1179  17
   8   3  -4 76.2666 25.6951  11
   8  -3  -4 78.5781 25.5696  11
   8   3  -4 153.335 28.9550   6
   8  -3  -4 135.850 29.8564   6
   8  -3  -4 85.9527 26.2462  18
   8   3  -4 137.084 35.4861  18
   8   3  -4 104.125 30.5681  17
   8   3  -3 1150.23 62.0886   6
   8  -3  -3 1096.45 60.9658   6
   8   3  -3 1088.17 65.7797  11
   8  -3  -3 985.522 63.2521  11
   8  -3  -3 1058.60 62.4470  18
   8   3  -2 145.155 32.4874  11
   8  -3  -2 191.242 33.9397  11
   8   3  -2 185.768 32.3275   6
   8  -3  -2 219.239 33.9868   6
   8  -3  -2 172.592 33.6851  18
   8   3  -2 231.107 39.6197  18
   8   3  -1 100.768 31.0561  11
   8  -3  -1 61.6284 28.0589  11
   8   3  -1 128.024 30.4669   6
   8  -3  -1 103.288 29.1613   6
   8   3  -1 87.6383 30.8934  21
   8  -3  -1 74.2259 30.9997  18
   8   3  -1 119.040 35.7683  18
   8   3   0 55.2278 27.1426   6
   8  -3   0 14.3000 25.5735   6
   8   3   0 12.0000 29.7294  21
   8  -3   0 52.4370 29.9335  18
   8   3   0 44.0783 32.7150  18
   8  -3   1 1056.33 65.6026  18
   8   3   1 1008.45 64.2296  18
   8   3   1 1013.24 67.0116  21
   8   3   2-19.1748 30.4845  21
   8   3   2 6.07195 25.3632  18
   8  -3   3 127.107 31.1614  12
   8   3   3 70.0993 26.1227  18
   8  -3   4-3.46916 24.0978  12
   8   3   4 19.2973 20.8140  12
   8  -3   5 77.6632 21.8652  12
   8   3   5 62.5660 15.5352  12
   8   3   5 78.7963 25.0688  21
   8  -3   6 38.5488 15.0027  12
   8   4  -8 38.9864 15.6175   6
   8  -4  -8 72.5411 16.6226   6
   8   4  -8 68.8531 17.2334  18
   8   4  -8 65.6296 18.0831  17
   8   4  -7 164.937 22.8429   6
   8  -4  -7 126.449 21.9730   6
   8   4  -7 163.982 25.8035  18
   8   4  -7 167.008 24.9414  17
   8   4  -6 420.581 35.0378  11
   8  -4  -6 440.898 35.1152  11
   8   4  -6 430.789 34.3040   6
   8  -4  -6 509.304 35.7434   6
   8   4  -6 539.745 41.7521  18
   8   4  -6 503.242 39.5203  17
   8   4  -5 14.2767 20.6841  11
   8  -4  -5-10.5128 18.9775  11
   8   4  -5 1.41651 20.9854   6
   8  -4  -5 24.2680 21.8657   6
   8   4  -5 3.95884 26.2568  18
   8   4  -5 14.1756 24.6761  17
   8   4  -4 7.77170 21.3807  11
   8  -4  -4 9.53204 21.0606  11
   8   4  -4-10.7231 22.5475   6
   8  -4  -4 24.7226 23.2342   6
   8   4  -3 90.0146 25.8828   6
   8  -4  -3 108.625 27.2681   6
   8   4  -3 80.3677 26.8063  11
   8  -4  -3 76.2614 25.8938  11
   8  -4  -3 86.6058 25.8182  18
   8   4  -3 94.8937 33.6555  18
   8   4  -2 3200.73 123.531   6
   8  -4  -2 3175.42 123.503   6
   8   4  -2 2931.52 127.471  11
   8  -4  -2 2920.14 126.356  11
   8   4  -2 3060.97 127.333  21
   8   4  -2 3281.51 134.406  18
   8  -4  -2 2978.89 126.340  18
   8   4  -1 23.9709 24.7338  11
   8  -4  -1 44.6506 24.3979  11
   8   4  -1 26.7413 24.0181   6
   8  -4  -1 25.2211 25.1922   6
   8   4  -1 49.3315 29.1927  21
   8  -4  -1 21.0848 27.6045  18
   8   4  -1 13.7027 29.6486  18
   8   4   0 237.217 38.5681  21
   8  -4   0 311.732 38.0631  18
   8   4   0 268.887 38.1402  18
   8   4   1 510.636 48.0175  21
   8   4   1 479.208 44.9241  18
   8   4   2 604.737 45.8715  18
   8   4   2 653.514 53.7313  21
   8   4   3 17.1083 21.7702  18
   8  -4   4 148.185 26.9861  12
   8   4   4 87.9871 19.3321  12
   8   4   4 87.6220 27.9792  21
   8  -4   5 131.657 23.7593  12
   8   4   5 84.9405 24.1396  21
   8  -4   6 8.29603 13.3904  12
   8   5  -8 38.9081 14.6238  18
   8   5  -8 26.0385 14.0625  17
   8   5  -7 24.5230 15.2569   6
   8  -5  -7 22.1749 14.8643   6
   8   5  -7 40.8300 20.9107  18
   8   5  -7 33.2734 19.3090  17
   8   5  -6 118.206 20.6122  11
   8   5  -6 151.677 22.4974   6
   8  -5  -6 143.482 21.8739   6
   8   5  -6 171.452 28.2553  18
   8   5  -5 77.7224 21.6498   6
   8   5  -5 97.1685 22.4793  11
   8  -5  -5 82.2307 21.3422  11
   8  -5  -5 109.765 22.2849   6
   8   5  -4 411.185 34.0424   6
   8  -5  -4 429.510 34.9601   6
   8   5  -4 355.335 34.9448  11
   8  -5  -4 416.502 35.1327  11
   8   5  -4 484.913 45.3518  18
   8   5  -3 662.905 43.1594   6
   8  -5  -3 659.748 42.9905   6
   8   5  -3 577.629 43.7659  11
   8  -5  -3 532.971 42.1683  11
   8   5  -3 717.578 54.0814  18
   8   5  -3 772.657 52.0636  17
   8   5  -2 98.6916 25.9720  11
   8  -5  -2 55.9670 23.4503  11
   8   5  -2 47.4298 23.0301   6
   8  -5  -2 101.687 25.4905   6
   8   5  -2 98.4875 28.5974  21
   8  -5  -2 92.2878 25.3247  18
   8   5  -2 124.021 33.3591  18
   8   5  -1 281.569 33.3123  11
   8  -5  -1 285.093 33.1164  11
   8   5  -1 237.195 30.7229   6
   8  -5  -1 241.742 30.9085   6
   8   5  -1 312.014 39.4590  21
   8   5  -1 261.567 38.6571  18
   8   5   0 32.3903 21.6724  11
   8  -5   0 59.6670 23.1399  11
   8   5   0 50.7617 30.7315  21
   8   5   0 79.7422 28.5892  18
   8  -5   1 77.2911 28.2356  12
   8   5   1 37.0037 30.2978  21
   8   5   1 30.1095 25.9904  18
   8  -5   2 2113.73 92.9707  12
   8   5   2 1850.80 87.1915  18
   8   5   2 2145.29 98.9819  21
   8   5   4 294.206 34.5103  21
   8   5   5 295.610 29.5399  21
   8  -5   5 252.623 26.4779  12
   8  -5   6 16.8610 11.0007  12
   8   6  -8 201.957 19.0735  18
   8   6  -8 184.988 19.5731  17
   8   6  -7 338.711 28.9068  18
   8   6  -6 62.2010 15.1131   6
   8   6  -5 296.939 26.2878   6
   8   6  -5 341.286 37.1818  18
   8   6  -5 395.369 35.4753  17
   8   6  -4 59.2322 17.8900  11
   8  -6  -4 27.9787 17.7469  11
   8   6  -4 26.9519 18.0384   6
   8  -6  -4 76.3217 20.3599   6
   8   6  -4 28.6942 25.5512  18
   8   6  -4 72.2273 26.0593  17
   8   6  -3 452.405 34.1593   6
   8  -6  -3 473.949 34.8147   6
   8   6  -3 413.305 34.9017  11
   8  -6  -3 480.266 35.9960  11
   8   6  -3 572.080 45.9181  18
   8   6  -2 30.2305 19.2723  11
   8  -6  -2-3.13140 18.8425  11
   8   6  -2-2.51305 19.7875   6
   8  -6  -2 38.0651 20.8393   6
   8   6  -2 36.1245 28.1554  18
   8  -6  -1 611.839 44.4499  12
   8   6  -1 592.322 41.8561  11
   8  -6  -1 602.649 40.6060  11
   8   6  -1 691.099 49.5510  18
   8   6   0 16.0756 18.5310  11
   8  -6   0 20.4043 18.6651  11
   8  -6   0 70.6468 25.6744  12
   8   6   0 21.9966 28.4026  21
   8   6   0 75.3142 26.0355  18
   8  -6   1 394.264 37.1793  12
   8   6   1 408.638 33.2775  11
   8  -6   1 305.714 29.6885  11
   8   6   1 376.077 42.9412  21
   8   6   1 426.570 37.6494  18
   8  -6   2-21.0516 14.5343  11
   8  -6   2 34.0571 23.8285  12
   8   6   2 47.9807 20.6986  18
   8  -6   3 40.6151 22.4163  12
   8   6   4 94.5209 24.9363  21
   8   6   5 103.621 19.6143  21
   8   7  -7 9.66632 14.3538  17
   8   7  -6-34.1585 20.2334  17
   8   7  -5 98.0482 25.0212  18
   8   7  -5 66.3364 22.6528  17
   8   7  -4 556.491 42.5874  18
   8   7  -4 500.243 40.4036  17
   8   7  -3 851.010 54.2769  18
   8   7  -2 12.5257 25.3429  18
   8   7  -1 77.4074 26.5615  18
   8  -7   0 449.187 37.1022  12
   8   7   0 587.641 41.0408  18
   8  -7   1 339.584 33.1294  12
   8   7   1 372.627 39.9531  21
   8   7   1 336.044 30.8834  18
   8   7   2 634.757 37.9994  18
   8  -7   2 821.863 46.3323  12
   8   7   3 1121.75 59.9371  21
   8  -7   3 1040.87 53.9382  12
   8   7   4 229.080 27.3046  21
   8  -7   4 236.284 24.4086  12
   8   7   5 126.404 16.8506  21
   8   8  -6 1504.84 64.9546  18
   8   8  -6 1453.11 62.3507  17
   8   8  -5 73.2181 21.9293  18
   8   8  -5 62.3969 20.9818  17
   8   8  -4 13.3658 21.4764  18
   8   8  -3 143.148 27.1038  18
   8   8  -2 47.1843 22.7888  18
   8   8  -1 38.5997 20.8447  18
   8   8   0 514.309 35.9611  18
   8   8   1 386.346 37.9828  21
   8   8   1 253.262 24.5414  18
   8  -8   2-8.22760 17.4140  12
   8  -8   3 132.388 20.7257  12
   8   8   3 142.355 25.3328  21
   8  -8   4 95.5013 16.4381  12
   8   8   4 138.703 20.4066  21
   8   9  -6-5.23878 13.1842  18
   8   9  -5 16.1877 16.3694  18
   8   9  -4 62.2239 20.0146  18
   8   9  -3 667.469 40.8615  18
   8   9  -2 350.820 28.8141  18
   8   9  -1 419.343 31.0194  18
   8   9   0 1726.65 67.9793  18
   8   9   2 256.017 29.0368  21
   8   9   3 326.356 27.9841  21
   8  10  -5 55.1308 12.5788  18
   8  10  -4 57.9244 14.7834  18
   8  10  -3 8.59083 14.2313  18
   8  10  -2 162.529 18.6459  18
   8  10   0 66.1080 21.1200  21
   8  10   2-9.31582 15.2373  21
   8  11  -1 136.259 18.7598  21
   8  11   0 301.271 24.5104  21
   9   0  -6 14.4204 14.1401   6
   9   0  -5-13.7177 16.4828   6
   9   0  -5-10.5351 13.3429  18
   9   0  -4 79.5545 19.0277  11
   9   0  -4 86.4777 20.7359   6
   9   0  -4 108.442 20.8906  18
   9   0  -3 13.3109 15.8330  11
   9   0  -3 28.6862 20.1765   6
   9   0  -3 15.2831 20.0963  18
   9   0  -2 591.052 38.8487   6
   9   0  -2 532.180 38.8035  11
   9   0  -2 593.117 41.2838  18
   9   0  -1 1.55934 18.0088  11
   9   0   0 16.6731 18.0024  11
   9   0   1 9.85225 15.9081  11
   9   0   2 384.371 31.8595  12
   9   0   3-10.5132 14.9922  12
   9   1  -6 114.707 16.7647   6
   9   1  -5 13.4192 15.8207   6
   9   1  -5-11.7295 16.3007  18
   9   1  -4 246.829 26.0820   6
   9  -1  -4 209.068 22.8674  18
   9   1  -4 204.846 26.2037  18
   9   1  -3 86.3530 20.5514  11
   9   1  -3 119.879 22.4702   6
   9  -1  -3 98.0033 22.9402  18
   9   1  -3 133.696 25.1580  18
   9   1  -2 296.376 29.6037   6
   9   1  -2 256.622 28.1161  11
   9  -1  -2 317.025 31.1020  18
   9   1  -1 70.6399 21.0407  11
   9  -1  -1 115.626 24.3782  18
   9   1   0 82.4179 20.5302  11
   9   1   0 124.887 25.3638  18
   9   1   1 948.572 51.5250  11
   9   1   1 1027.88 53.0824  18
   9  -1   2 3252.64 121.456  12
   9   1   2 3255.33 121.025  12
   9  -1   3 643.790 36.2606  12
   9   1   3 618.912 34.7476  12
   9   2  -6 63.1527 14.9023   6
   9  -2  -6 106.171 15.2905   6
   9   2  -5 7.15413 14.4513   6
   9  -2  -5-17.8824 15.4358   6
   9   2  -5 33.5625 14.5059  18
   9  -2  -4 184.763 23.6651   6
   9   2  -4 226.488 23.3342   6
   9   2  -4 223.284 25.9520  18
   9   2  -3 122.497 20.5094  11
   9  -2  -3 118.405 19.9838  11
   9   2  -3 165.578 23.1778   6
   9  -2  -3 132.601 22.8053   6
   9  -2  -3 130.168 21.8606  18
   9   2  -3 151.596 25.3768  18
   9   2  -2 285.926 28.1994  11
   9  -2  -2 274.103 28.0295  11
   9  -2  -2 340.433 30.5743  18
   9   2  -1 49.6233 18.9448  11
   9  -2  -1 45.7380 18.2931  11
   9  -2  -1 37.9818 20.9382  18
   9   2  -1 63.5458 23.2222  18
   9   2   0 529.782 38.0218  11
   9  -2   0 499.509 36.6373  11
   9   2   1 11.8120 18.5455  18
   9  -2   2 7.09406 17.9272  12
   9  -2   3 45.7188 16.4329  12
   9   2   3 50.9800 13.8408  12
   9   3  -6 15.1141 9.74661   6
   9  -3  -6 0.58058 9.63550   6
   9   3  -5-2.34489 13.1043   6
   9  -3  -5-15.6522 14.7426   6
   9   3  -5-10.0707 15.9773  18
   9   3  -4 13.7495 15.9621   6
   9  -3  -4 39.5482 16.3129   6
   9   3  -4 9.85683 18.1467  18
   9   3  -3 249.398 25.0466   6
   9  -3  -3 261.650 25.5127   6
   9   3  -2 70.2893 22.9012  18
   9   3  -1 652.623 42.5279  18
   9  -3   0 199.491 25.6396  12
   9   3   0 252.197 28.2073  18
   9  -3   1 886.209 46.1955  12
   9   3   1 886.211 46.0040  18
   9   3   2 965.798 46.3268  12
   9  -3   3 768.277 39.1429  12
   9   4  -5-4.20152 10.7490   6
   9  -4  -5 0.60265 10.5999   6
   9   4  -5 26.5816 15.0877  18
   9   4  -3-16.6585 19.9087  18
   9   4  -2 145.093 25.0398  18
   9  -4  -1 5.41402 15.6228  12
   9   4  -1 14.4112 20.3093  18
   9  -4   0 4.49438 16.4661  12
   9   4   0 9.71683 18.5671  18
   9  -4   1 47.6780 17.7060  12
   9   4   1 24.9988 17.2032  21
   9   4   1 42.1805 16.9629  18
   9  -4   2 1286.02 49.9851  12
   9   4   2 1109.76 48.6493  21
   9   5  -4 56.1329 17.0967  18
   9   5  -3 632.805 38.3940  18
   9   5  -2 621.562 38.3272  18
   9   5  -1 93.7933 20.1427  18
   9  -5   0 412.491 28.6219  12
   9   5   0 517.190 32.6637  18
   9   5   1 780.907 40.1758  21
   9  -5   1 766.665 38.9737  12
   9   5   2 270.027 22.7141  21
   9  -5   2 289.776 21.8150  12
   9   6  -4 111.300 16.8855  18
   9   6  -3 6.76133 14.7360  18
   9   6  -2 3.92495 14.1236  18
   9   6  -1 9.16337 14.4835  18
   9   6   0 201.687 20.0046  18
   9   7  -3-4.29649 11.0787  18
   9   7  -2 133.495 16.2540  18
   0   0   0    0.00    0.00   0

TITL tf-27 in P2(1)/c
REM P2(1)/c (#14 in standard setting)
CELL 1.54184   7.659200  16.145946  11.723777  90.0000  96.2082  90.0000
ZERR    3.00   0.000182   0.000406   0.000238   0.0000   0.0020   0.0000
LATT  1
SYMM -x, y+1/2,-z+1/2
SFAC C H B N O F
UNIT 39.00 36.00 3.00 9.00 9.00 12.00
TREF
HKLF 4
END
;
_shelx_hkl_checksum                35269
_olex2_submission_special_instructions  'No special instructions were received'
_oxdiff_exptl_absorpt_empirical_details
;
Empirical correction (ABSPACK) includes:
- Absorption correction using spherical harmonics
- Frame scaling
;
_oxdiff_exptl_absorpt_empirical_full_max  1.371
_oxdiff_exptl_absorpt_empirical_full_min  0.774
