 
data_shelx
 
_audit_creation_method            'SHELXL-2016/6'
_shelx_SHELXL_version_number      '2016/6'
_chemical_name_systematic         ?
_chemical_name_common             ?
_chemical_melting_point           ?
_chemical_formula_moiety          ?
_chemical_formula_sum
 'C24 H17 N5 O4 Se' 
_chemical_formula_weight          518.39
_chemical_oxdiff_usercomment 'Tom Fellowes Se precursor from pyridine'

loop_
 _atom_type_symbol
 _atom_type_description
 _atom_type_scat_dispersion_real
 _atom_type_scat_dispersion_imag
 _atom_type_scat_source
 'C'  'C'   0.0181   0.0091
 'International Tables Vol C Tables 4.2.6.8 and 6.1.1.4'
 'H'  'H'   0.0000   0.0000
 'International Tables Vol C Tables 4.2.6.8 and 6.1.1.4'
 'N'  'N'   0.0311   0.0180
 'International Tables Vol C Tables 4.2.6.8 and 6.1.1.4'
 'O'  'O'   0.0492   0.0322
 'International Tables Vol C Tables 4.2.6.8 and 6.1.1.4'
 'Se'  'Se'  -0.7943   1.1372
 'International Tables Vol C Tables 4.2.6.8 and 6.1.1.4'
 
_space_group_crystal_system       monoclinic
_space_group_IT_number            7
_space_group_name_H-M_alt         'P c'
_space_group_name_Hall            'P -2yc'
 
_shelx_space_group_comment
;
The symmetry employed for this shelxl refinement is uniquely defined
by the following loop, which should always be used as a source of
symmetry information in preference to the above space-group names.
They are only intended as comments.
;
 
loop_
 _space_group_symop_operation_xyz
 'x, y, z'
 'x, -y, z+1/2'
 
_cell_length_a                    4.9715(4)
_cell_length_b                    14.7040(8)
_cell_length_c                    14.4842(9)
_cell_angle_alpha                 90
_cell_angle_beta                  98.163(7)
_cell_angle_gamma                 90
_cell_volume                      1048.08(12)
_cell_formula_units_Z             2
_cell_measurement_temperature   130.00(10) 
_cell_measurement_reflns_used   1839
_cell_measurement_theta_min     4.2690
_cell_measurement_theta_max     76.3530
 
_exptl_crystal_description        needle
_exptl_crystal_colour             yellow
_exptl_crystal_density_meas       ?
_exptl_crystal_density_method     ?
_exptl_crystal_density_diffrn     1.643          
_exptl_crystal_F_000              524
_exptl_transmission_factor_min    ?
_exptl_transmission_factor_max    ?
_exptl_crystal_size_max                             0.404
_exptl_crystal_size_mid                             0.030
_exptl_crystal_size_min                             0.020
_exptl_absorpt_coefficient_mu     2.815
_shelx_estimated_absorpt_T_min    ?
_shelx_estimated_absorpt_T_max    ?
_exptl_absorpt_correction_T_min                     0.608
_exptl_absorpt_correction_T_max                     0.947
_exptl_absorpt_correction_type            gaussian
_exptl_absorpt_process_details
;
CrysAlisPro 1.171.38.43 (Rigaku Oxford Diffraction, 2015)
Numerical absorption correction based on gaussian integration over
			a multifaceted crystal model
Empirical absorption correction using spherical harmonics,
 implemented in SCALE3 ABSPACK scaling algorithm.
;
_oxdiff_exptl_absorpt_empirical_full_min           0.553
_oxdiff_exptl_absorpt_empirical_full_max           1.558
_oxdiff_exptl_absorpt_empirical_details
;
Empirical correction (ABSPACK) includes:
- Absorption correction using spherical harmonics
- Frame scaling
;
_diffrn_ambient_temperature 130.00(10) 
_diffrn_ambient_environment N~2~
_diffrn_source 'micro-focus sealed X-ray tube'
_diffrn_source_type 'SuperNova (Cu) X-ray Source'
_diffrn_radiation_probe x-ray
_diffrn_radiation_type 'Cu K\a'
_diffrn_radiation_wavelength 1.54184
_diffrn_radiation_monochromator mirror
_diffrn_measurement_device 'four-circle diffractometer'
_diffrn_measurement_device_type 'SuperNova, Dual, Cu at zero, Atlas'
_diffrn_detector 'CCD plate'
_diffrn_detector_type Atlas
_diffrn_measurement_method '\w scans'
_diffrn_detector_area_resol_mean  ?
_diffrn_reflns_number             7313
_diffrn_reflns_av_unetI/netI      0.0984
_diffrn_reflns_av_R_equivalents   0.0719
_diffrn_reflns_limit_h_min        -5
_diffrn_reflns_limit_h_max        6
_diffrn_reflns_limit_k_min        -18
_diffrn_reflns_limit_k_max        14
_diffrn_reflns_limit_l_min        -14
_diffrn_reflns_limit_l_max        18
_diffrn_reflns_theta_min          4.307
_diffrn_reflns_theta_max          77.076
_diffrn_reflns_theta_full         67.684
_diffrn_measured_fraction_theta_max   0.987
_diffrn_measured_fraction_theta_full  0.999
_diffrn_reflns_Laue_measured_fraction_max    0.987
_diffrn_reflns_Laue_measured_fraction_full   0.999
_diffrn_reflns_point_group_measured_fraction_max   0.721
_diffrn_reflns_point_group_measured_fraction_full  0.743
_reflns_number_total              3211
_reflns_number_gt                 2788
_reflns_threshold_expression      'I > 2\s(I)'
_reflns_Friedel_coverage          0.454
_reflns_Friedel_fraction_max      0.452
_reflns_Friedel_fraction_full     0.484
 
_reflns_special_details
;
 Reflections were merged by SHELXL according to the crystal
 class for the calculation of statistics and refinement.
 
 _reflns_Friedel_fraction is defined as the number of unique
 Friedel pairs measured divided by the number that would be
 possible theoretically, ignoring centric projections and
 systematic absences.
;
 
_computing_data_collection     'CrysAlisPro 1.171.38.43 (Rigaku OD, 2015)'
_computing_cell_refinement     'CrysAlisPro 1.171.38.43 (Rigaku OD, 2015)'
_computing_data_reduction      'CrysAlisPro 1.171.38.43 (Rigaku OD, 2015)'
_computing_structure_solution     ?
_computing_structure_refinement 'SHELXL-2016/6 (Sheldrick, 2016)'
_computing_molecular_graphics     ?
_computing_publication_material   ?
_refine_special_details           ?
_refine_ls_structure_factor_coef  Fsqd
_refine_ls_matrix_type            full
_refine_ls_weighting_scheme       calc
_refine_ls_weighting_details
'w=1/[\s^2^(Fo^2^)+(0.0779P)^2^+0.8746P] where P=(Fo^2^+2Fc^2^)/3'
_atom_sites_solution_primary      ?
_atom_sites_solution_secondary    ?
_atom_sites_solution_hydrogens    geom
_refine_ls_hydrogen_treatment     constr
_refine_ls_extinction_method      none
_refine_ls_extinction_coef        .
_refine_ls_abs_structure_details
;
 Classical Flack method preferred over Parsons because s.u. lower.
;
_refine_ls_abs_structure_Flack    0.00(5)
_chemical_absolute_configuration  ?
_refine_ls_number_reflns          3211
_refine_ls_number_parameters      307
_refine_ls_number_restraints      2
_refine_ls_R_factor_all           0.0698
_refine_ls_R_factor_gt            0.0597
_refine_ls_wR_factor_ref          0.1569
_refine_ls_wR_factor_gt           0.1441
_refine_ls_goodness_of_fit_ref    1.019
_refine_ls_restrained_S_all       1.019
_refine_ls_shift/su_max           0.000
_refine_ls_shift/su_mean          0.000
 
loop_
 _atom_site_label
 _atom_site_type_symbol
 _atom_site_fract_x
 _atom_site_fract_y
 _atom_site_fract_z
 _atom_site_U_iso_or_equiv
 _atom_site_adp_type
 _atom_site_occupancy
 _atom_site_site_symmetry_order  
 _atom_site_calc_flag
 _atom_site_refinement_flags_posn
 _atom_site_refinement_flags_adp
 _atom_site_refinement_flags_occupancy
 _atom_site_disorder_assembly
 _atom_site_disorder_group
C1 C 1.3057(19) 0.5978(6) 0.7082(7) 0.0259(17) Uani 1 1 d . . . . .
C2 C 1.5274(19) 0.6063(6) 0.7776(6) 0.0267(17) Uani 1 1 d . . . . .
H2 H 1.580344 0.664908 0.801174 0.032 Uiso 1 1 calc R U . . .
C3 C 1.673(2) 0.5300(6) 0.8132(6) 0.0303(18) Uani 1 1 d . . . . .
H3 H 1.828393 0.536199 0.859358 0.036 Uiso 1 1 calc R U . . .
C4 C 1.586(2) 0.4437(7) 0.7792(7) 0.033(2) Uani 1 1 d . . . . .
H4 H 1.680440 0.391099 0.804326 0.040 Uiso 1 1 calc R U . . .
C5 C 1.364(2) 0.4334(6) 0.7099(7) 0.033(2) Uani 1 1 d . . . . .
H5 H 1.303287 0.375021 0.688003 0.040 Uiso 1 1 calc R U . . .
C6 C 1.2369(17) 0.5108(6) 0.6746(6) 0.0240(16) Uani 1 1 d . . . . .
C7 C 1.135(2) 0.6742(6) 0.6708(6) 0.0265(17) Uani 1 1 d . . . . .
C8 C 0.7331(19) 0.7016(5) 0.5525(6) 0.0238(16) Uani 1 1 d . . . . .
C9 C 0.7485(18) 0.7964(6) 0.5541(6) 0.0243(17) Uani 1 1 d . . . . .
H9 H 0.894928 0.825793 0.591811 0.029 Uiso 1 1 calc R U . . .
C10 C 0.5500(17) 0.8476(5) 0.5006(6) 0.0213(15) Uani 1 1 d . . . . .
C11 C 0.3255(17) 0.8091(5) 0.4429(6) 0.0211(15) Uani 1 1 d . . . . .
C12 C 0.3135(18) 0.7137(6) 0.4435(6) 0.0248(17) Uani 1 1 d . . . . .
H12 H 0.165525 0.684011 0.406866 0.030 Uiso 1 1 calc R U . . .
C13 C 0.5117(19) 0.6615(6) 0.4962(6) 0.0252(17) Uani 1 1 d . . . . .
H13 H 0.497027 0.597073 0.494154 0.030 Uiso 1 1 calc R U . . .
C14 C -0.078(2) 0.8327(6) 0.3235(6) 0.0267(18) Uani 1 1 d . . . . .
C15 C -0.2644(18) 0.9078(6) 0.2831(6) 0.0243(17) Uani 1 1 d . . . . .
C16 C -0.493(2) 0.8852(6) 0.2229(7) 0.0297(19) Uani 1 1 d . . . . .
H16 H -0.532468 0.823660 0.206431 0.036 Uiso 1 1 calc R U . . .
C17 C -0.665(2) 0.9552(7) 0.1867(7) 0.034(2) Uani 1 1 d . . . . .
H17 H -0.826802 0.942226 0.145646 0.041 Uiso 1 1 calc R U . . .
C18 C -0.596(2) 1.0426(7) 0.2113(7) 0.035(2) Uani 1 1 d . . . . .
H18 H -0.708702 1.091734 0.186780 0.042 Uiso 1 1 calc R U . . .
C19 C -0.358(2) 1.0589(7) 0.2731(7) 0.037(2) Uani 1 1 d . . . . .
H19 H -0.311970 1.119982 0.289791 0.044 Uiso 1 1 calc R U . . .
C20 C 1.156(2) 0.3338(7) 0.4699(7) 0.034(2) Uani 1 1 d . . . . .
H20 H 1.266201 0.379550 0.448218 0.041 Uiso 1 1 calc R U . . .
C21 C 1.155(3) 0.2471(7) 0.4309(8) 0.039(2) Uani 1 1 d . . . . .
H21 H 1.256983 0.234461 0.381828 0.047 Uiso 1 1 calc R U . . .
C22 C 1.000(2) 0.1792(6) 0.4655(6) 0.032(2) Uani 1 1 d . . . . .
H22 H 0.997551 0.119118 0.441223 0.039 Uiso 1 1 calc R U . . .
C23 C 0.849(3) 0.2011(7) 0.5362(8) 0.042(2) Uani 1 1 d . . . . .
H23 H 0.742702 0.156077 0.561219 0.050 Uiso 1 1 calc R U . . .
C24 C 0.856(2) 0.2897(7) 0.5700(8) 0.035(2) Uani 1 1 d . . . . .
H24 H 0.750432 0.304247 0.617823 0.043 Uiso 1 1 calc R U . . .
N1 N 0.9300(15) 0.6457(5) 0.6038(5) 0.0234(15) Uani 1 1 d . . . . .
N2 N 0.5946(16) 0.9462(5) 0.5052(5) 0.0264(15) Uani 1 1 d . . . . .
N3 N 0.1280(16) 0.8617(5) 0.3907(5) 0.0266(15) Uani 1 1 d . . . . .
H3A H 0.135046 0.920549 0.401974 0.032 Uiso 1 1 calc R U . . .
N4 N -0.1921(18) 0.9926(5) 0.3099(6) 0.0291(16) Uani 1 1 d . . . . .
N5 N 1.0041(19) 0.3554(5) 0.5378(6) 0.0324(17) Uani 1 1 d . . . . .
O1 O 1.1713(16) 0.7537(4) 0.6989(5) 0.0336(15) Uani 1 1 d . . . . .
O2 O 0.8160(14) 0.9742(4) 0.5437(5) 0.0328(15) Uani 1 1 d . . . . .
O3 O 0.4111(16) 0.9982(5) 0.4720(6) 0.0315(14) Uani 1 1 d . . . . .
O4 O -0.1103(16) 0.7537(4) 0.2966(5) 0.0372(17) Uani 1 1 d . . . . .
Se1 Se 0.93840(11) 0.51681(5) 0.57295(7) 0.0264(2) Uani 1 1 d . . . . .
 
loop_
 _atom_site_aniso_label
 _atom_site_aniso_U_11
 _atom_site_aniso_U_22
 _atom_site_aniso_U_33
 _atom_site_aniso_U_23
 _atom_site_aniso_U_13
 _atom_site_aniso_U_12
C1 0.027(4) 0.019(4) 0.031(4) -0.003(3) 0.001(4) 0.001(3)
C2 0.028(4) 0.028(4) 0.023(4) -0.002(3) -0.001(3) 0.002(3)
C3 0.035(5) 0.030(4) 0.022(4) 0.001(3) -0.005(4) 0.005(4)
C4 0.039(5) 0.033(5) 0.027(4) 0.007(4) 0.003(4) 0.011(4)
C5 0.043(5) 0.021(4) 0.034(5) 0.000(4) 0.001(4) 0.008(4)
C6 0.018(4) 0.022(4) 0.029(4) 0.001(3) -0.006(3) 0.001(3)
C7 0.033(5) 0.022(4) 0.023(4) 0.001(3) -0.003(4) -0.007(3)
C8 0.028(4) 0.017(4) 0.025(4) -0.001(3) 0.001(3) -0.002(3)
C9 0.026(4) 0.019(4) 0.025(4) 0.003(3) -0.005(3) 0.001(3)
C10 0.023(4) 0.014(3) 0.026(4) 0.000(3) -0.001(3) 0.002(3)
C11 0.022(4) 0.016(4) 0.023(4) 0.000(3) -0.004(3) 0.007(3)
C12 0.023(4) 0.021(4) 0.029(4) 0.002(3) -0.004(3) 0.001(3)
C13 0.026(4) 0.021(4) 0.026(4) 0.008(3) -0.006(3) -0.004(3)
C14 0.029(4) 0.022(5) 0.025(4) -0.006(3) -0.008(3) 0.001(3)
C15 0.027(4) 0.020(4) 0.025(4) -0.002(3) -0.002(3) -0.003(3)
C16 0.032(5) 0.024(4) 0.031(5) 0.001(3) -0.003(4) 0.002(3)
C17 0.029(5) 0.043(5) 0.027(4) 0.005(4) -0.005(4) 0.010(4)
C18 0.037(5) 0.035(5) 0.030(5) 0.009(4) -0.001(4) 0.017(4)
C19 0.049(6) 0.026(5) 0.032(5) -0.001(4) -0.008(4) 0.003(4)
C20 0.040(5) 0.029(5) 0.033(5) 0.000(4) 0.004(4) 0.000(4)
C21 0.048(6) 0.033(5) 0.037(5) -0.004(4) 0.008(5) 0.001(4)
C22 0.042(5) 0.022(4) 0.029(5) -0.004(3) -0.008(4) 0.001(4)
C23 0.056(7) 0.024(5) 0.044(6) 0.000(4) 0.002(5) -0.009(4)
C24 0.040(6) 0.030(5) 0.037(5) 0.006(4) 0.009(5) 0.005(4)
N1 0.025(4) 0.019(3) 0.023(3) -0.001(2) -0.006(3) -0.003(3)
N2 0.029(4) 0.019(3) 0.029(4) -0.001(3) -0.003(3) 0.000(3)
N3 0.030(4) 0.022(3) 0.026(4) -0.001(3) -0.005(3) 0.002(3)
N4 0.034(4) 0.022(3) 0.028(4) 0.001(3) -0.006(3) 0.008(3)
N5 0.043(5) 0.024(4) 0.028(4) 0.001(3) -0.003(3) -0.001(3)
O1 0.045(4) 0.018(3) 0.032(3) -0.001(2) -0.013(3) -0.001(3)
O2 0.029(3) 0.021(3) 0.045(4) -0.003(3) -0.007(3) -0.002(2)
O3 0.028(3) 0.022(3) 0.041(4) 0.003(3) -0.006(3) 0.004(3)
O4 0.046(4) 0.019(3) 0.042(4) -0.002(3) -0.011(3) 0.001(3)
Se1 0.0307(4) 0.0179(3) 0.0284(4) 0.0011(5) -0.0030(3) 0.0000(5)
 
_geom_special_details
;
 All esds (except the esd in the dihedral angle between two l.s. planes)
 are estimated using the full covariance matrix.  The cell esds are taken
 into account individually in the estimation of esds in distances, angles
 and torsion angles; correlations between esds in cell parameters are only
 used when they are defined by crystal symmetry.  An approximate (isotropic)
 treatment of cell esds is used for estimating esds involving l.s. planes.
;
 
loop_
 _geom_bond_atom_site_label_1
 _geom_bond_atom_site_label_2
 _geom_bond_distance
 _geom_bond_site_symmetry_2
 _geom_bond_publ_flag
C1 C2 1.388(13) . ?
C1 C6 1.394(12) . ?
C1 C7 1.465(12) . ?
C2 C3 1.394(13) . ?
C2 H2 0.9500 . ?
C3 C4 1.409(15) . ?
C3 H3 0.9500 . ?
C4 C5 1.390(15) . ?
C4 H4 0.9500 . ?
C5 C6 1.365(12) . ?
C5 H5 0.9500 . ?
C6 Se1 1.938(8) . ?
C7 O1 1.243(11) . ?
C7 N1 1.369(11) . ?
C8 C9 1.396(11) . ?
C8 C13 1.403(12) . ?
C8 N1 1.407(11) . ?
C9 C10 1.387(12) . ?
C9 H9 0.9500 . ?
C10 C11 1.415(12) . ?
C10 N2 1.465(10) . ?
C11 N3 1.387(11) . ?
C11 C12 1.404(11) . ?
C12 C13 1.389(12) . ?
C12 H12 0.9500 . ?
C13 H13 0.9500 . ?
C14 O4 1.229(11) . ?
C14 N3 1.376(12) . ?
C14 C15 1.506(12) . ?
C15 N4 1.341(11) . ?
C15 C16 1.370(13) . ?
C16 C17 1.392(13) . ?
C16 H16 0.9500 . ?
C17 C18 1.364(16) . ?
C17 H17 0.9500 . ?
C18 C19 1.401(15) . ?
C18 H18 0.9500 . ?
C19 N4 1.338(13) . ?
C19 H19 0.9500 . ?
C20 N5 1.358(14) . ?
C20 C21 1.395(14) . ?
C20 H20 0.9500 . ?
C21 C22 1.396(15) . ?
C21 H21 0.9500 . ?
C22 C23 1.390(16) . ?
C22 H22 0.9500 . ?
C23 C24 1.390(14) . ?
C23 H23 0.9500 . ?
C24 N5 1.338(14) . ?
C24 H24 0.9500 . ?
N1 Se1 1.949(7) . ?
N2 O2 1.232(11) . ?
N2 O3 1.235(11) . ?
N3 H3A 0.8800 . ?
N5 Se1 2.459(8) . ?
 
loop_
 _geom_angle_atom_site_label_1
 _geom_angle_atom_site_label_2
 _geom_angle_atom_site_label_3
 _geom_angle
 _geom_angle_site_symmetry_1
 _geom_angle_site_symmetry_3
 _geom_angle_publ_flag
C2 C1 C6 117.8(8) . . ?
C2 C1 C7 123.9(8) . . ?
C6 C1 C7 118.3(8) . . ?
C1 C2 C3 120.9(8) . . ?
C1 C2 H2 119.6 . . ?
C3 C2 H2 119.6 . . ?
C2 C3 C4 118.5(9) . . ?
C2 C3 H3 120.8 . . ?
C4 C3 H3 120.8 . . ?
C5 C4 C3 121.6(9) . . ?
C5 C4 H4 119.2 . . ?
C3 C4 H4 119.2 . . ?
C6 C5 C4 117.3(9) . . ?
C6 C5 H5 121.4 . . ?
C4 C5 H5 121.4 . . ?
C5 C6 C1 123.8(9) . . ?
C5 C6 Se1 125.9(7) . . ?
C1 C6 Se1 110.3(6) . . ?
O1 C7 N1 125.4(9) . . ?
O1 C7 C1 123.4(8) . . ?
N1 C7 C1 111.2(8) . . ?
C9 C8 C13 117.8(8) . . ?
C9 C8 N1 122.8(8) . . ?
C13 C8 N1 119.4(7) . . ?
C10 C9 C8 120.0(8) . . ?
C10 C9 H9 120.0 . . ?
C8 C9 H9 120.0 . . ?
C9 C10 C11 123.4(7) . . ?
C9 C10 N2 114.9(7) . . ?
C11 C10 N2 121.7(7) . . ?
N3 C11 C12 122.3(8) . . ?
N3 C11 C10 122.4(7) . . ?
C12 C11 C10 115.3(7) . . ?
C13 C12 C11 121.9(8) . . ?
C13 C12 H12 119.1 . . ?
C11 C12 H12 119.1 . . ?
C12 C13 C8 121.6(8) . . ?
C12 C13 H13 119.2 . . ?
C8 C13 H13 119.2 . . ?
O4 C14 N3 124.7(9) . . ?
O4 C14 C15 121.6(8) . . ?
N3 C14 C15 113.8(8) . . ?
N4 C15 C16 125.0(8) . . ?
N4 C15 C14 116.4(8) . . ?
C16 C15 C14 118.7(8) . . ?
C15 C16 C17 118.1(9) . . ?
C15 C16 H16 121.0 . . ?
C17 C16 H16 121.0 . . ?
C18 C17 C16 118.8(10) . . ?
C18 C17 H17 120.6 . . ?
C16 C17 H17 120.6 . . ?
C17 C18 C19 119.0(9) . . ?
C17 C18 H18 120.5 . . ?
C19 C18 H18 120.5 . . ?
N4 C19 C18 123.3(10) . . ?
N4 C19 H19 118.4 . . ?
C18 C19 H19 118.4 . . ?
N5 C20 C21 122.4(10) . . ?
N5 C20 H20 118.8 . . ?
C21 C20 H20 118.8 . . ?
C20 C21 C22 118.6(10) . . ?
C20 C21 H21 120.7 . . ?
C22 C21 H21 120.7 . . ?
C23 C22 C21 118.7(9) . . ?
C23 C22 H22 120.6 . . ?
C21 C22 H22 120.6 . . ?
C24 C23 C22 119.2(10) . . ?
C24 C23 H23 120.4 . . ?
C22 C23 H23 120.4 . . ?
N5 C24 C23 122.7(10) . . ?
N5 C24 H24 118.6 . . ?
C23 C24 H24 118.6 . . ?
C7 N1 C8 126.0(8) . . ?
C7 N1 Se1 115.0(6) . . ?
C8 N1 Se1 118.9(6) . . ?
O2 N2 O3 122.1(8) . . ?
O2 N2 C10 118.1(7) . . ?
O3 N2 C10 119.8(7) . . ?
C14 N3 C11 127.6(8) . . ?
C14 N3 H3A 116.2 . . ?
C11 N3 H3A 116.2 . . ?
C19 N4 C15 115.9(9) . . ?
C24 N5 C20 118.3(9) . . ?
C24 N5 Se1 121.9(7) . . ?
C20 N5 Se1 118.6(6) . . ?
C6 Se1 N1 84.8(3) . . ?
C6 Se1 N5 90.2(3) . . ?
N1 Se1 N5 173.6(3) . . ?
 
loop_
 _geom_torsion_atom_site_label_1
 _geom_torsion_atom_site_label_2
 _geom_torsion_atom_site_label_3
 _geom_torsion_atom_site_label_4
 _geom_torsion
 _geom_torsion_site_symmetry_1
 _geom_torsion_site_symmetry_2
 _geom_torsion_site_symmetry_3
 _geom_torsion_site_symmetry_4
 _geom_torsion_publ_flag
C6 C1 C2 C3 -0.9(14) . . . . ?
C7 C1 C2 C3 176.8(9) . . . . ?
C1 C2 C3 C4 -2.0(15) . . . . ?
C2 C3 C4 C5 1.8(16) . . . . ?
C3 C4 C5 C6 1.2(16) . . . . ?
C4 C5 C6 C1 -4.4(15) . . . . ?
C4 C5 C6 Se1 176.1(7) . . . . ?
C2 C1 C6 C5 4.2(15) . . . . ?
C7 C1 C6 C5 -173.6(9) . . . . ?
C2 C1 C6 Se1 -176.2(7) . . . . ?
C7 C1 C6 Se1 6.0(11) . . . . ?
C2 C1 C7 O1 -0.9(16) . . . . ?
C6 C1 C7 O1 176.8(9) . . . . ?
C2 C1 C7 N1 -179.5(9) . . . . ?
C6 C1 C7 N1 -1.8(12) . . . . ?
C13 C8 C9 C10 -0.5(13) . . . . ?
N1 C8 C9 C10 178.9(8) . . . . ?
C8 C9 C10 C11 0.2(14) . . . . ?
C8 C9 C10 N2 -177.6(8) . . . . ?
C9 C10 C11 N3 179.3(9) . . . . ?
N2 C10 C11 N3 -3.1(13) . . . . ?
C9 C10 C11 C12 0.6(13) . . . . ?
N2 C10 C11 C12 178.2(8) . . . . ?
N3 C11 C12 C13 -179.8(9) . . . . ?
C10 C11 C12 C13 -1.0(13) . . . . ?
C11 C12 C13 C8 0.7(15) . . . . ?
C9 C8 C13 C12 0.1(14) . . . . ?
N1 C8 C13 C12 -179.3(9) . . . . ?
O4 C14 C15 N4 -172.7(10) . . . . ?
N3 C14 C15 N4 6.6(13) . . . . ?
O4 C14 C15 C16 7.6(15) . . . . ?
N3 C14 C15 C16 -173.1(9) . . . . ?
N4 C15 C16 C17 -0.2(15) . . . . ?
C14 C15 C16 C17 179.5(9) . . . . ?
C15 C16 C17 C18 1.1(15) . . . . ?
C16 C17 C18 C19 -1.0(16) . . . . ?
C17 C18 C19 N4 0.0(18) . . . . ?
N5 C20 C21 C22 -2.4(17) . . . . ?
C20 C21 C22 C23 1.2(16) . . . . ?
C21 C22 C23 C24 0.3(16) . . . . ?
C22 C23 C24 N5 -0.7(17) . . . . ?
O1 C7 N1 C8 2.8(16) . . . . ?
C1 C7 N1 C8 -178.7(8) . . . . ?
O1 C7 N1 Se1 178.0(8) . . . . ?
C1 C7 N1 Se1 -3.5(10) . . . . ?
C9 C8 N1 C7 10.2(15) . . . . ?
C13 C8 N1 C7 -170.4(9) . . . . ?
C9 C8 N1 Se1 -164.8(7) . . . . ?
C13 C8 N1 Se1 14.6(11) . . . . ?
C9 C10 N2 O2 10.2(12) . . . . ?
C11 C10 N2 O2 -167.6(8) . . . . ?
C9 C10 N2 O3 -169.0(9) . . . . ?
C11 C10 N2 O3 13.2(13) . . . . ?
O4 C14 N3 C11 -3.1(17) . . . . ?
C15 C14 N3 C11 177.6(8) . . . . ?
C12 C11 N3 C14 -10.6(15) . . . . ?
C10 C11 N3 C14 170.7(9) . . . . ?
C18 C19 N4 C15 0.9(17) . . . . ?
C16 C15 N4 C19 -0.8(15) . . . . ?
C14 C15 N4 C19 179.5(9) . . . . ?
C23 C24 N5 C20 -0.5(15) . . . . ?
C23 C24 N5 Se1 166.5(8) . . . . ?
C21 C20 N5 C24 2.1(15) . . . . ?
C21 C20 N5 Se1 -165.3(8) . . . . ?
 
loop_
 _geom_hbond_atom_site_label_D 
 _geom_hbond_atom_site_label_H 
 _geom_hbond_atom_site_label_A 
 _geom_hbond_distance_DH 
 _geom_hbond_distance_HA 
 _geom_hbond_distance_DA 
 _geom_hbond_angle_DHA 
 _geom_hbond_site_symmetry_A 
C5 H5 N5  0.95 2.47 3.076(13) 121.5 .
C9 H9 O1  0.95 2.19 2.821(11) 122.6 .
C12 H12 O4  0.95 2.20 2.835(11) 122.9 .
C13 H13 Se1  0.95 2.61 3.097(9) 112.4 .
C18 H18 O1  0.95 2.36 3.206(12) 147.6 2_374
C21 H21 O1  0.95 2.63 3.374(13) 135.6 2_564
N3 H3A N4  0.88 2.22 2.660(11) 110.6 .
N3 H3A O3  0.88 1.96 2.632(11) 132.6 .
C5 H5 N5  0.95 2.47 3.076(13) 121.5 .
C9 H9 O1  0.95 2.19 2.821(11) 122.6 .
C12 H12 O4  0.95 2.20 2.835(11) 122.9 .
C13 H13 Se1  0.95 2.61 3.097(9) 112.4 .
C18 H18 O1  0.95 2.36 3.206(12) 147.6 2_374
C21 H21 O1  0.95 2.63 3.374(13) 135.6 2_564
N3 H3A N4  0.88 2.22 2.660(11) 110.6 .
N3 H3A O3  0.88 1.96 2.632(11) 132.6 .
 
_refine_diff_density_max    1.053
_refine_diff_density_min   -0.773
_refine_diff_density_rms    0.107

_shelx_res_file
;
TITL jmwtf50 in Pc
    shelx.res
    created by SHELXL-2016/6 at 14:46:35 on 18-Dec-2017
CELL  1.54184   4.9715  14.7040  14.4842   90.000   98.163   90.000
ZERR     2.00   0.0004   0.0008   0.0009    0.000    0.007    0.000
LATT  -1
SYMM    X, - Y, 1/2 + Z
SFAC  C    H    N    O    SE
UNIT  48 34 10 8 2
MERG   2
bind  N5 Se1
HTAB C5 N5
HTAB C9 O1
HTAB C12 O4
HTAB C13 Se1
EQIV $1 x-2, -y+2, z-1/2
HTAB C18 O1_$1
EQIV $2 x, -y+1, z-1/2
HTAB C21 O1_$2
HTAB N3 N4
HTAB N3 O3
HTAB C5 N5
HTAB C9 O1
HTAB C12 O4
HTAB C13 Se1
HTAB C18 O1_$1
HTAB C21 O1_$2
HTAB N3 N4
HTAB N3 O3
FMAP   2
PLAN   20
ACTA
BOND   $H
CONF
L.S.  10
TEMP  -143.00
WGHT    0.077900    0.874600
FVAR       3.42566
C1    1    1.305727    0.597810    0.708190    11.00000    0.02693    0.01924 =
         0.03072   -0.00350    0.00126    0.00091
C2    1    1.527366    0.606320    0.777605    11.00000    0.02812    0.02793 =
         0.02287   -0.00150   -0.00089    0.00179
AFIX  43
H2    2    1.580344    0.664908    0.801174    11.00000   -1.20000
AFIX   0
C3    1    1.673353    0.530049    0.813226    11.00000    0.03511    0.03041 =
         0.02247    0.00063   -0.00547    0.00470
AFIX  43
H3    2    1.828393    0.536199    0.859358    11.00000   -1.20000
AFIX   0
C4    1    1.585688    0.443655    0.779241    11.00000    0.03867    0.03317 =
         0.02748    0.00703    0.00264    0.01106
AFIX  43
H4    2    1.680440    0.391099    0.804326    11.00000   -1.20000
AFIX   0
C5    1    1.363947    0.433448    0.709907    11.00000    0.04268    0.02124 =
         0.03383   -0.00026    0.00059    0.00785
AFIX  43
H5    2    1.303287    0.375021    0.688003    11.00000   -1.20000
AFIX   0
C6    1    1.236918    0.510824    0.674579    11.00000    0.01833    0.02220 =
         0.02897    0.00088   -0.00576    0.00060
C7    1    1.134706    0.674165    0.670816    11.00000    0.03256    0.02207 =
         0.02286    0.00109   -0.00267   -0.00655
C8    1    0.733148    0.701583    0.552486    11.00000    0.02842    0.01731 =
         0.02479   -0.00062    0.00050   -0.00226
C9    1    0.748511    0.796377    0.554090    11.00000    0.02588    0.01915 =
         0.02549    0.00287   -0.00496    0.00099
AFIX  43
H9    2    0.894928    0.825793    0.591811    11.00000   -1.20000
AFIX   0
C10   1    0.550021    0.847645    0.500616    11.00000    0.02341    0.01352 =
         0.02579   -0.00025   -0.00098    0.00181
C11   1    0.325527    0.809060    0.442887    11.00000    0.02160    0.01649 =
         0.02305   -0.00039   -0.00410    0.00658
C12   1    0.313465    0.713697    0.443524    11.00000    0.02272    0.02081 =
         0.02855    0.00214   -0.00392    0.00078
AFIX  43
H12   2    0.165525    0.684011    0.406866    11.00000   -1.20000
AFIX   0
C13   1    0.511738    0.661479    0.496243    11.00000    0.02579    0.02090 =
         0.02625    0.00751   -0.00587   -0.00363
AFIX  43
H13   2    0.497027    0.597073    0.494154    11.00000   -1.20000
AFIX   0
C14   1   -0.077678    0.832706    0.323506    11.00000    0.02939    0.02242 =
         0.02496   -0.00600   -0.00785    0.00129
C15   1   -0.264415    0.907755    0.283076    11.00000    0.02686    0.01960 =
         0.02474   -0.00158   -0.00243   -0.00259
C16   1   -0.492722    0.885235    0.222935    11.00000    0.03198    0.02387 =
         0.03099    0.00074   -0.00304    0.00226
AFIX  43
H16   2   -0.532468    0.823660    0.206431    11.00000   -1.20000
AFIX   0
C17   1   -0.664787    0.955153    0.186702    11.00000    0.02921    0.04277 =
         0.02728    0.00466   -0.00485    0.01023
AFIX  43
H17   2   -0.826802    0.942226    0.145646    11.00000   -1.20000
AFIX   0
C18   1   -0.596430    1.042622    0.211253    11.00000    0.03669    0.03535 =
         0.03035    0.00938   -0.00146    0.01660
AFIX  43
H18   2   -0.708702    1.091734    0.186780    11.00000   -1.20000
AFIX   0
C19   1   -0.358020    1.058867    0.273131    11.00000    0.04937    0.02624 =
         0.03153   -0.00111   -0.00784    0.00290
AFIX  43
H19   2   -0.311970    1.119982    0.289791    11.00000   -1.20000
AFIX   0
C20   1    1.155537    0.333844    0.469940    11.00000    0.04015    0.02939 =
         0.03305    0.00025    0.00433   -0.00004
AFIX  43
H20   2    1.266201    0.379550    0.448218    11.00000   -1.20000
AFIX   0
C21   1    1.154518    0.247079    0.430925    11.00000    0.04764    0.03271 =
         0.03681   -0.00420    0.00768    0.00141
AFIX  43
H21   2    1.256983    0.234461    0.381828    11.00000   -1.20000
AFIX   0
C22   1    0.999766    0.179162    0.465533    11.00000    0.04191    0.02242 =
         0.02925   -0.00371   -0.00787    0.00075
AFIX  43
H22   2    0.997551    0.119118    0.441223    11.00000   -1.20000
AFIX   0
C23   1    0.848989    0.201097    0.536250    11.00000    0.05565    0.02367 =
         0.04439    0.00048    0.00161   -0.00883
AFIX  43
H23   2    0.742702    0.156077    0.561219    11.00000   -1.20000
AFIX   0
C24   1    0.855636    0.289697    0.569978    11.00000    0.04032    0.02991 =
         0.03737    0.00602    0.00931    0.00507
AFIX  43
H24   2    0.750432    0.304247    0.617823    11.00000   -1.20000
AFIX   0
N1    3    0.930044    0.645685    0.603759    11.00000    0.02521    0.01941 =
         0.02294   -0.00104   -0.00569   -0.00288
N2    3    0.594623    0.946151    0.505238    11.00000    0.02924    0.01911 =
         0.02870   -0.00140   -0.00342    0.00004
N3    3    0.128006    0.861717    0.390745    11.00000    0.03012    0.02151 =
         0.02566   -0.00135   -0.00481    0.00180
AFIX  43
H3A   2    0.135046    0.920549    0.401974    11.00000   -1.20000
AFIX   0
N4    3   -0.192053    0.992597    0.309907    11.00000    0.03415    0.02241 =
         0.02781    0.00081   -0.00577    0.00794
N5    3    1.004130    0.355351    0.537830    11.00000    0.04276    0.02387 =
         0.02810    0.00104   -0.00348   -0.00141
O1    4    1.171285    0.753665    0.698897    11.00000    0.04465    0.01848 =
         0.03229   -0.00125   -0.01350   -0.00124
O2    4    0.816015    0.974234    0.543668    11.00000    0.02867    0.02077 =
         0.04541   -0.00305   -0.00748   -0.00215
O3    4    0.411107    0.998229    0.472030    11.00000    0.02812    0.02232 =
         0.04102    0.00262   -0.00588    0.00415
O4    4   -0.110293    0.753706    0.296629    11.00000    0.04604    0.01881 =
         0.04161   -0.00218   -0.01140    0.00144
SE1   5    0.938401    0.516811    0.572945    11.00000    0.03066    0.01793 =
         0.02844    0.00112   -0.00299    0.00004
HKLF    4




REM  jmwtf50 in Pc
REM R1 =  0.0597 for    2788 Fo > 4sig(Fo)  and  0.0698 for all    3211 data
REM    307 parameters refined using      2 restraints

END

WGHT      0.0773      0.8845

REM Highest difference peak  1.053,  deepest hole -0.773,  1-sigma level  0.107
Q1    1   1.1105  0.5134  0.6399  11.00000  0.05    1.05
Q2    1   0.7786  0.5190  0.5082  11.00000  0.05    0.96
Q3    1   1.1486  0.5089  0.5891  11.00000  0.05    0.59
Q4    1   1.0887  0.5700  0.5220  11.00000  0.05    0.43
Q5    1   0.0981  0.9904  0.4247  11.00000  0.05    0.42
Q6    1   0.5276  0.5621  0.4661  11.00000  0.05    0.42
Q7    1   0.7621  0.5782  0.5746  11.00000  0.05    0.41
Q8    1   0.7969  0.5700  0.6407  11.00000  0.05    0.40
Q9    1   0.7949  0.4629  0.6378  11.00000  0.05    0.38
Q10   1   1.1249  0.5355  0.7203  11.00000  0.05    0.37
Q11   1   0.6191  0.6197  0.5742  11.00000  0.05    0.35
Q12   1   0.7199  0.6585  0.5517  11.00000  0.05    0.35
Q13   1   0.7856  0.4544  0.6165  11.00000  0.05    0.34
Q14   1   0.4199  0.6881  0.4636  11.00000  0.05    0.33
Q15   1   1.8333  0.4191  0.8199  11.00000  0.05    0.30
Q16   1   0.0136  0.9819  0.2480  11.00000  0.05    0.30
Q17   1   0.9910  0.9506  0.6125  11.00000  0.05    0.29
Q18   1   1.3554  0.5559  0.6856  11.00000  0.05    0.29
Q19   1   0.6723  0.8073  0.4005  11.00000  0.05    0.29
Q20   1  -0.1978  1.0130  0.2118  11.00000  0.05    0.29
;
_shelx_res_checksum   67527

_shelx_hkl_file
;
  -5   0   8 2710.71 449.542  11
  -5   0   9-151.674 183.819  11
  -5   0  10 1445.12 302.601  11
  -5   0  11-90.1951 119.589  11
  -5   0  12 435.358 155.940  11
  -5  -1   7 375.805 218.933  11
  -5  -1   8 1552.67 326.756  11
  -5   1   8 1366.42 312.742  11
  -5   1   9 577.855 248.822  11
  -5  -1   9 91.3574 169.893  11
  -5  -1  10 470.406 193.521  11
  -5   1  10 773.269 244.982  11
  -5  -1  11 207.673 158.430  11
  -5   1  11 112.994 102.267  11
  -5   1  12 616.680 190.283  11
  -5  -1  12 761.863 212.092  11
  -5  -2   7 273.980 186.275  11
  -5  -2   8 699.949 290.188  11
  -5  -2   9 86.6926 180.886  11
  -5   2   9 85.3036 120.866  11
  -5  -2  10 1715.11 341.607  11
  -5   2  10 2065.50 347.015  11
  -5  -2  11 195.481 173.782  11
  -5   2  11 42.0728 111.376  11
  -5  -2  12 590.386 175.118  11
  -5   2  12 442.809 156.292  11
  -5  -3   6 4057.71 567.138  11
  -5  -3   7 119.976 145.549  11
  -5  -3   8 1792.80 378.209  11
  -5   3   9 244.579 152.946  11
  -5  -3   9 485.720 228.060  11
  -5   3  10 338.204 128.197  11
  -5  -3  10 410.920 220.201  11
  -5   3  11 59.5961 99.1803  11
  -5  -3  11 340.378 177.355  11
  -5  -3  12 1539.33 264.820  11
  -5  -4   6 1733.19 392.016  11
  -5  -4   7 256.777 172.272  11
  -5  -4   8 3101.52 475.788  11
  -5  -4   9 176.120 164.664  11
  -5  -4  10 1534.23 315.977  11
  -5   4  11-6.19652 66.2448  11
  -5  -4  11-52.2085 139.588  11
  -5  -4  12 271.006 142.836  11
  -5  -5   5-49.4331 198.238  11
  -5  -5   6 838.511 291.952  11
  -5  -5   7 768.271 261.795  11
  -5  -5   8 645.942 229.240  11
  -5  -5   9 719.338 240.191  11
  -5  -5  10 835.055 228.025  11
  -5  -5  11 470.566 167.907  11
  -5  -6   5 559.172 246.360  11
  -5  -6   6 857.422 246.614  11
  -5  -6   7 3075.24 477.269  11
  -5  -6   8 481.583 221.838  11
  -5  -6   9-355.679 248.771  11
  -5  -6  10 266.525 144.468  11
  -5  -6  11 509.110 151.506  11
  -5  -7  -6 2420.53 336.690   7
  -5  -7   5 661.558 224.040  11
  -5  -7   6 263.216 151.393  11
  -5  -7   7 490.178 199.522  11
  -5  -7   8 987.820 258.216  11
  -5  -7   9 284.347 155.712  11
  -5  -7  10 382.574 135.717  11
  -5  -8  -5 743.605 199.224   7
  -5  -8   4 1401.89 284.936  11
  -5  -8   5 600.416 190.040  11
  -5  -8   6 1267.58 256.016  11
  -5  -8   7 1023.05 237.285  11
  -5  -8   8 156.714 107.354  11
  -5  -8   9 23.8525 75.6982  11
  -5  -9  -4 731.738 181.517   7
  -5  -9  -3 491.731 188.350   7
  -5  -9   4 710.983 194.614  11
  -5  -9   5 1075.79 224.290  11
  -5  -9   6-414.929 140.391  11
  -5  -9   7 96.0010 113.170  11
  -5  -9   8 688.765 142.726  11
  -4   0  -2 6230.55 1812.73  19
  -4   0  -1 1186.28 793.391  19
  -4   0   0 3398.70 1007.84  19
  -4   0   1-1448.06 824.110  19
  -4   0   2 2242.11 805.094   2
  -4   0   3 689.492 408.842   2
  -4   0   4 4795.29 1452.82   2
  -4   0   5-357.593 236.513  11
  -4   0   5 635.972 435.124   2
  -4   0   6 4221.45 656.454  11
  -4   0   6 5991.32 1650.74   2
  -4   0   7 333.121 292.867  11
  -4   0   8 7433.43 927.118  11
  -4   0   9 109.873 235.860  11
  -4   0  10 1537.63 434.538  11
  -4   0  11 154.970 223.134  11
  -4   0  12 3160.54 573.089  11
  -4   0  13-25.0867 187.985  11
  -4   0  14-61.4916 205.197  11
  -4   0  15 87.5952 119.771  11
  -4   1  -2 15126.9 2819.72  19
  -4  -1  -2 15646.6 2862.61  19
  -4   1  -1 1736.41 1040.24  19
  -4  -1  -1-1094.09 790.379  19
  -4   1   0 11441.3 2320.91  19
  -4  -1   0 7919.53 1892.12  19
  -4   1   1 1274.66 622.406  19
  -4  -1   1 487.662 524.672  19
  -4   1   2 6377.31 1544.01  19
  -4  -1   2 5337.69 1579.92   2
  -4  -1   3 152.588 350.220   2
  -4   1   3 594.827 385.324   2
  -4   1   4 8476.94 1908.01   2
  -4  -1   4 9480.10 1981.89   2
  -4  -1   5 1681.17 728.281   2
  -4   1   5 2023.23 964.767   2
  -4  -1   5 1362.91 341.899  11
  -4   1   6 1068.60 328.391  11
  -4  -1   6 1198.15 334.276  11
  -4  -1   7 352.179 318.150  11
  -4   1   7-155.777 297.844  11
  -4  -1   8 3443.10 647.293  11
  -4   1   8 3532.04 656.409  11
  -4  -1   9-235.723 258.788  11
  -4   1   9-167.601 210.304  11
  -4   1  10 1965.83 472.040  11
  -4  -1  10 2105.77 530.289  11
  -4   1  11 39.0124 235.934  11
  -4  -1  11 417.138 328.110  11
  -4  -1  12 4832.63 699.174  11
  -4   1  12 4659.10 673.001  11
  -4   1  13 967.625 315.530  11
  -4  -1  13 694.324 283.521  11
  -4   1  14 1197.50 322.107  11
  -4  -1  14 1078.18 277.598  11
  -4  -1  15 803.273 212.617  11
  -4   1  15 979.289 228.710  11
  -4  -2  -2 6236.75 1799.81  19
  -4  -2  -1 742.158 775.500  19
  -4   2  -1 413.835 313.788  19
  -4  -2   0 4854.68 1444.55  19
  -4   2   0 2267.45 1062.09  19
  -4   2   1 2206.54 1059.72  19
  -4   2   2 7440.33 1608.42  19
  -4  -2   3 332.726 426.876   2
  -4   2   4 8700.90 2011.88   2
  -4  -2   4 6698.62 1719.02   2
  -4  -2   5 158.912 202.892  11
  -4  -2   5-1077.69 723.333   2
  -4   2   6 7429.57 879.990  11
  -4  -2   6 8558.93 989.586  11
  -4  -2   7 741.178 371.596  11
  -4   2   7 418.071 236.751  11
  -4   2   8 1655.26 468.233  11
  -4  -2   8 1480.80 494.418  11
  -4  -2   9 576.918 229.523  11
  -4   2   9 752.384 307.322  11
  -4   2  10 4400.73 723.985  11
  -4  -2  10 3993.86 676.404  11
  -4   2  11 460.744 288.737  11
  -4  -2  11 339.621 292.799  11
  -4   2  12 3996.64 618.073  11
  -4  -2  12 4371.57 653.412  11
  -4   2  13 288.607 236.463  11
  -4  -2  13 316.699 245.754  11
  -4  -2  14 3104.01 463.670  11
  -4   2  14 3218.91 459.766  11
  -4  -2  15 508.043 177.660  11
  -4   2  15 821.389 210.855  11
  -4   3  -1-2735.62 1222.55  19
  -4  -3  -1-1745.20 988.171  19
  -4   3   0 7502.75 1922.70  19
  -4   3   1 1187.78 778.895  19
  -4   3   2 4578.53 1413.96  19
  -4   3   3 3.37589 282.934  19
  -4  -3   4 15209.4 1301.41  11
  -4  -3   5 7341.59 915.769  11
  -4  -3   6 3671.99 668.623  11
  -4  -3   7 1424.57 452.224  11
  -4   3   7 1505.99 394.923  11
  -4   3   8 10677.3 1091.79  11
  -4  -3   8 10937.6 1132.16  11
  -4   3   9 1581.20 442.472  11
  -4  -3   9 1914.20 459.189  11
  -4   3  10 1263.89 417.638  11
  -4  -3  10 1700.76 459.023  11
  -4   3  11 384.330 242.032  11
  -4  -3  11 596.892 294.095  11
  -4  -3  12 3534.82 590.827  11
  -4   3  12 3183.93 544.250  11
  -4  -3  13 856.629 319.592  11
  -4   3  13 732.018 260.989  11
  -4   3  14 843.915 248.212  11
  -4  -3  14 1146.10 282.014  11
  -4   3  15 189.475 116.343  11
  -4  -3  15 26.8236 94.1153  11
  -4   4   1 3520.58 1308.62  19
  -4   4   2 2415.57 922.484  19
  -4   4   3 1876.25 962.445  19
  -4  -4   3 1735.86 510.038  11
  -4  -4   4 8106.42 973.119  11
  -4  -4   5 1136.43 364.544  11
  -4  -4   6 2023.55 510.175  11
  -4  -4   7 155.394 235.936  11
  -4   4   7 193.371 193.132  11
  -4   4   8 2917.32 522.226  11
  -4  -4   8 3011.74 584.893  11
  -4   4   9-92.1244 238.617  11
  -4  -4   9-142.354 273.237  11
  -4  -4  10 2674.14 566.080  11
  -4   4  10 2018.85 513.020  11
  -4  -4  11 1391.86 399.141  11
  -4   4  11 1092.95 339.197  11
  -4  -4  12 2172.69 428.273  11
  -4   4  12 2583.98 480.113  11
  -4   4  13 381.876 225.909  11
  -4  -4  13 0.53126 216.867  11
  -4   4  14 2907.50 409.988  11
  -4  -4  14 2370.35 389.533  11
  -4   4  15 7.71460 84.5643  11
  -4  -5   3 1056.91 364.262  11
  -4  -5   4 4793.92 742.011  11
  -4  -5   5 1884.98 518.661  11
  -4  -5   6 2302.10 547.242  11
  -4  -5   7 978.463 402.349  11
  -4   5   7 734.902 288.528  11
  -4  -5   8 4412.35 718.101  11
  -4   5   8 3596.19 633.341  11
  -4  -5   9 749.810 365.635  11
  -4   5   9 612.591 338.737  11
  -4   5  10 2110.12 481.700  11
  -4  -5  10 1913.52 454.684  11
  -4  -5  11 450.810 276.073  11
  -4   5  11 636.057 279.754  11
  -4  -5  12 541.120 244.066  11
  -4   5  12 747.953 282.207  11
  -4   5  13 325.074 236.258  11
  -4  -5  13 54.4712 164.273  11
  -4  -5  14 1195.16 243.737  11
  -4   5  14 650.887 208.832  11
  -4  -6  -9 1074.22 294.850   7
  -4  -6   2 4612.06 688.414  11
  -4  -6   3 2411.47 519.994  11
  -4  -6   4 1998.74 498.556  11
  -4  -6   5 2362.76 536.456  11
  -4  -6   6 1631.99 463.748  11
  -4  -6   7 1443.55 405.022  11
  -4   6   7 1007.21 355.809  11
  -4  -6   8 2557.46 560.282  11
  -4   6   8 2465.71 581.672  11
  -4   6   9 942.725 355.986  11
  -4  -6   9 1097.42 294.188  11
  -4  -6  10 2792.96 534.078  11
  -4   6  10 2631.22 538.657  11
  -4   6  11 903.158 338.711  11
  -4  -6  11 1122.30 352.223  11
  -4   6  12 1830.27 381.772  11
  -4  -6  12 1793.60 368.583  11
  -4  -6  13 1044.83 276.205  11
  -4   6  13 1292.84 281.193  11
  -4   6  14 183.781 92.1137  11
  -4  -6  14 49.9332 104.037  11
  -4  -7  -9 1568.89 313.449   7
  -4  -7   1 2851.84 521.607  11
  -4  -7   2 2234.61 493.647  11
  -4  -7   3 1623.16 488.432  11
  -4  -7   4 5342.94 802.995  11
  -4  -7   5 2005.53 486.752  11
  -4  -7   6 2518.73 554.757  11
  -4  -7   7 1146.40 364.551  11
  -4  -7   8 1993.27 495.758  11
  -4   7   8 1550.95 468.286  11
  -4   7   9 2265.73 482.547  11
  -4  -7   9 2985.77 571.364  11
  -4  -7  10 1018.96 336.995  11
  -4   7  10 1138.91 340.050  11
  -4   7  11 361.665 163.922  11
  -4  -7  11 37.8826 224.748  11
  -4   7  12 377.708 228.765  11
  -4  -7  12 422.569 197.973  11
  -4  -7  13 257.903 153.558  11
  -4   7  13 235.570 143.727  11
  -4  -8  -9 600.390 185.860   7
  -4  -8  -8 2090.61 396.855   7
  -4  -8   1 3163.12 534.300  11
  -4  -8   2 11541.3 1084.82  11
  -4  -8   3 2839.43 543.571  11
  -4  -8   4 233.763 319.208  11
  -4  -8   5 2777.05 553.826  11
  -4  -8   6 1250.69 422.967  11
  -4  -8   7 2639.90 549.091  11
  -4  -8   8 1504.58 438.454  11
  -4   8   8 663.007 280.302  11
  -4   8   9 1479.99 359.724  11
  -4  -8   9 2102.48 484.798  11
  -4  -8  10 2168.17 458.802  11
  -4   8  10 1525.24 369.339  11
  -4  -8  11 408.381 414.813  11
  -4   8  11-41.3074 176.590  11
  -4  -8  12 1101.61 256.470  11
  -4   8  12 957.396 229.881  11
  -4  -8  13 479.594 173.683  15
  -4  -9  -8 946.568 238.370   7
  -4  -9  -7 1907.06 385.380   7
  -4  -9   0 862.976 279.174  11
  -4  -9   1 7668.08 809.933  11
  -4  -9   2 769.664 243.453  11
  -4  -9   3 2591.37 527.867  11
  -4  -9   4 7543.66 868.392  11
  -4  -9   5 6274.18 806.606  11
  -4  -9   6 2317.91 473.662  11
  -4  -9   6 2004.09 379.718   6
  -4  -9   7 8421.61 878.833  11
  -4  -9   7 5913.64 615.272   6
  -4  -9   8 783.407 227.328   6
  -4  -9   8 589.137 280.204  11
  -4   9   9 1397.44 330.372  11
  -4  -9   9 2272.09 442.245  11
  -4   9  10 467.102 200.388  11
  -4  -9  10 441.860 254.023  11
  -4   9  11 1316.55 250.645  11
  -4  -9  11 1504.85 307.830  11
  -4  -9  12 1131.61 205.346  15
  -4  -9  12 679.121 157.039  11
  -4 -10  -8 123.967 124.464   7
  -4 -10  -7 3531.74 463.630   7
  -4 -10  -6 151.105 158.031   7
  -4 -10  -5 3329.37 538.743   7
  -4 -10   0 1746.83 370.356  11
  -4 -10   1 4982.89 654.524  11
  -4 -10   2 6127.48 720.886  11
  -4 -10   3 11190.8 998.600  11
  -4 -10   3 8293.46 775.429   6
  -4 -10   4 523.986 194.377   6
  -4 -10   4 655.668 261.119  11
  -4 -10   5 4157.88 599.191  11
  -4 -10   5 2883.91 437.747   6
  -4 -10   6 989.938 344.822  11
  -4 -10   6 590.814 199.469   6
  -4 -10   7 751.930 228.014   6
  -4 -10   7 679.630 299.354  11
  -4 -10   8 715.249 239.017  11
  -4 -10   9 1342.03 323.707  11
  -4 -10  10 2736.46 389.444  11
  -4 -10  11 1736.65 260.542  11
  -4 -11  -7 1431.56 247.318   7
  -4 -11  -6 437.525 159.228   7
  -4 -11  -5 3322.18 453.619   7
  -4 -11  -4 137.426 184.918   7
  -4 -11  -3 2403.09 468.584   7
  -4 -11  -2 154.634 145.069   7
  -4 -11  -1 2564.42 442.510   7
  -4 -11   0 107.976 143.328   7
  -4 -11   1 2364.73 394.585   6
  -4 -11   1 1464.31 297.329   7
  -4 -11   1 2179.41 407.742  11
  -4 -11   2 399.059 174.939   6
  -4 -11   2 2.38971 210.695  11
  -4 -11   3 8376.32 802.780  11
  -4 -11   3 6921.70 649.130   6
  -4 -11   4 202.550 133.536   6
  -4 -11   4 280.085 214.785  11
  -4 -11   5 1362.71 363.614  11
  -4 -11   5 889.942 248.611   6
  -4 -11   6 1085.37 282.678  11
  -4 -11   6 890.188 236.878   6
  -4 -11   7 173.289 163.499  11
  -4 -11   8 1542.03 312.102  11
  -4 -11   9 179.216 134.446  11
  -4 -11  10 264.015 118.511  11
  -4 -12  -6 1.93475 74.2613   7
  -4 -12  -5 1278.07 248.820   7
  -4 -12  -4 18.3324 140.235   7
  -4 -12  -3 2164.62 361.976   7
  -4 -12  -2 451.394 205.624   7
  -4 -12  -1 1868.57 338.671   7
  -4 -12   2 462.886 199.038  11
  -4 -12   3 1551.78 325.979  11
  -4 -12   3 922.542 224.964   6
  -4 -12   4 117.719 192.617  11
  -4 -12   4-12.1158 105.930   6
  -4 -12   5 1874.78 355.594  11
  -4 -12   6 235.425 152.867  11
  -4 -12   7 3207.78 401.051  11
  -4 -12   8 798.191 201.629  11
  -4 -12   9 1648.11 221.987  11
  -4 -13  -3 1635.11 250.609   7
  -4 -13   4 356.470 149.834  11
  -4 -13   5 716.124 193.587  11
  -4 -13   6 236.255 93.2419  16
  -4 -13   6 77.4153 101.926  11
  -4 -13   7 1437.60 209.229  11
  -4 -14   0 125.389 85.1944  16
  -4 -14   3 2243.63 268.811  16
  -4 -14   4 105.601 62.3881  16
  -3   0  -7 1121.61 1004.83  19
  -3   0  -6 3667.84 1475.58  19
  -3   0  -5-1011.87 810.045  19
  -3   0  -4 14183.6 2523.32  19
  -3   0  -3-46.2440 542.890  19
  -3   0  -2 8505.66 1820.26  19
  -3   0  -1 196.061 497.577  19
  -3   0   0 15957.6 2307.30  19
  -3   0   1 632.656 572.482  19
  -3   0   2 8392.77 1543.19  19
  -3   0   3 283.552 222.775  19
  -3   0   4 17486.4 2461.13   2
  -3   0   5 101.300 393.002   2
  -3   0   6 7741.08 1686.51   2
  -3   0   7-335.018 664.744   2
  -3   0   8 10827.3 2113.15   2
  -3   0   8 7979.26 938.818  11
  -3   0   9-176.638 301.973  11
  -3   0   9 63.1761 389.456   2
  -3   0   9 75.9566 139.950  14
  -3   0  10 1854.90 426.361  14
  -3   0  10 1793.70 494.944  11
  -3   0  11 50.0727 126.901  14
  -3   0  11-90.7335 247.866  11
  -3   0  12 8137.68 814.606  14
  -3   0  12 8203.06 1016.36  11
  -3   0  13-3.54308 127.553  14
  -3   0  13-89.2871 214.919  11
  -3   0  13-455.935 375.698   8
  -3   0  14 2621.61 388.550  14
  -3   0  14 4254.89 703.136   8
  -3   0  14 3667.93 636.093  11
  -3   0  15-120.674 181.528  11
  -3   0  16 2316.37 360.858  11
  -3   1  -7 8474.42 2372.07  19
  -3  -1  -7 9555.96 2362.36  19
  -3   1  -6 22944.4 3442.39  19
  -3  -1  -6 24340.3 3688.26  19
  -3  -1  -5 3900.72 1351.41  19
  -3   1  -5 5027.66 1698.46  19
  -3  -1  -4 15702.3 2651.39  19
  -3   1  -4 14021.5 2628.76  19
  -3  -1  -3 330.297 586.459  19
  -3   1  -3 882.041 664.907  19
  -3   1  -2 10450.3 1989.35  19
  -3  -1  -2 10205.2 1992.99  19
  -3  -1  -1 762.008 577.156  19
  -3   1  -1 495.827 631.385  19
  -3   1   0 34191.9 3444.16  19
  -3  -1   0 34410.9 3407.31  19
  -3   1   1 1004.90 545.598  19
  -3  -1   1 927.457 571.739  19
  -3   1   2 7104.73 1433.06  19
  -3  -1   2 7932.97 1479.52  19
  -3  -1   3 937.026 469.515  19
  -3  -1   3 348.548 604.919   2
  -3   1   3 789.159 473.583  19
  -3   1   4 13930.0 1843.25  19
  -3  -1   4 12806.4 2050.27   2
  -3   1   5 392.874 518.065   2
  -3  -1   5 400.748 642.843   2
  -3  -1   6 4743.59 1435.45   2
  -3   1   6 5625.63 1432.17   2
  -3  -1   7 9.57045 574.941   2
  -3   1   7 862.268 455.617   2
  -3  -1   8 16124.6 2581.07   2
  -3   1   8 11621.7 1128.18  11
  -3  -1   8 11708.7 1126.22  11
  -3   1   8 13798.2 2517.35   2
  -3   1   9 1709.96 838.668   2
  -3  -1   9 1518.70 490.238  11
  -3   1   9 797.205 343.801  11
  -3  -1   9 1877.95 1058.32   2
  -3   1   9 1047.14 277.678  14
  -3   1  10 11127.9 1054.99  14
  -3  -1  10 12029.9 1219.27  11
  -3   1  10 11972.4 1196.03  11
  -3  -1  11 5856.23 938.332   8
  -3   1  11 4603.84 651.134  14
  -3   1  11 5614.99 824.802  11
  -3  -1  11 5389.96 829.042  11
  -3  -1  12 1473.94 494.537   8
  -3   1  12 1415.61 441.642  11
  -3  -1  12 1186.82 408.519  11
  -3   1  12 1719.06 405.666  14
  -3  -1  13 558.117 311.144   8
  -3   1  13 357.775 247.915  14
  -3  -1  13 170.977 236.142  11
  -3   1  13 195.367 278.307  11
  -3   1  14 2702.78 532.571  11
  -3   1  14 2263.15 381.205  14
  -3  -1  14 2530.25 550.031  11
  -3  -1  14 3107.88 697.807   8
  -3   1  15 251.987 209.045  11
  -3  -1  15 370.065 198.701  11
  -3   1  15 398.502 168.658  14
  -3  -1  16 34.3107 108.075  11
  -3   1  16 41.1309 122.972  11
  -3  -2  -7 2697.75 1321.18  19
  -3   2  -7 3457.03 1483.94  19
  -3   2  -6 14717.6 2780.00  19
  -3  -2  -6 15501.8 2968.98  19
  -3   2  -5 729.326 464.147  19
  -3  -2  -5 461.644 469.117  19
  -3   2  -4 11041.6 2298.04  19
  -3  -2  -4 11630.9 2321.41  19
  -3   2  -3 1004.69 657.209  19
  -3  -2  -3 1235.08 885.666  19
  -3  -2  -2 8097.54 1796.15  19
  -3   2  -2 6287.28 1507.00  19
  -3  -2  -1 5142.41 1357.84  19
  -3   2  -1 4312.65 1366.72  19
  -3   2   0 12877.0 2115.69  19
  -3  -2   0 12364.2 2024.50  19
  -3  -2   1 453.021 480.660   2
  -3  -2   1-60.6275 621.826  19
  -3   2   1 115.490 301.209  19
  -3   2   2 35296.4 3325.38  19
  -3  -2   2 34972.0 3185.90   2
  -3  -2   2 37236.4 3224.99  19
  -3  -2   3 357.303 474.182   2
  -3   2   3 442.987 408.687  19
  -3   2   4 7585.31 1452.54  19
  -3  -2   4 8935.53 1733.09   2
  -3   2   5 3512.71 898.970  19
  -3  -2   5 5238.32 1444.88   2
  -3  -2   6 9817.50 1905.24   2
  -3   2   6 9195.69 1897.34   2
  -3   2   7 5169.81 1474.90   2
  -3  -2   7 5479.89 1448.82   2
  -3   2   8 6742.54 844.996  11
  -3  -2   8 7567.78 909.353  11
  -3  -2   8 9604.56 1994.06   2
  -3   2   8 7184.55 832.268  14
  -3   2   8 9203.66 1966.91   2
  -3   2   9 1150.24 320.387  14
  -3  -2   9 2001.13 964.113   2
  -3   2   9 1699.61 975.991   2
  -3  -2   9 967.176 394.181   8
  -3  -2   9 635.416 334.394  11
  -3   2   9 988.897 358.367  11
  -3   2  10 18324.6 1507.98  11
  -3  -2  10 21287.8 1623.29  11
  -3  -2  10 23620.1 1811.18   8
  -3   2  10 19180.0 1532.63  14
  -3  -2  11 2220.84 615.511   8
  -3  -2  11 2131.83 439.247   6
  -3  -2  11 1982.05 535.000  11
  -3   2  11 1768.22 462.944  14
  -3   2  11 1642.45 492.824  11
  -3   2  12 3705.40 607.225  14
  -3  -2  12 4877.41 859.727   8
  -3  -2  12 5607.16 670.468   6
  -3  -2  12 4098.03 749.430  11
  -3   2  12 4218.18 740.833  11
  -3   2  13 235.076 279.592  11
  -3   2  13 25.4384 236.447  14
  -3  -2  13-452.945 311.357  11
  -3   2  14 2162.58 390.498  14
  -3  -2  14 1426.51 404.755  11
  -3   2  14 1672.94 400.212  11
  -3   2  15-216.310 192.203  11
  -3  -2  15 70.1522 140.460  11
  -3   2  15-84.7462 138.921  14
  -3   2  16 1035.27 236.563  11
  -3  -3  -6-125.877 454.986  19
  -3   3  -6 1117.47 701.824  19
  -3  -3  -5 5562.10 1693.88  19
  -3   3  -5 4636.03 1482.53  19
  -3   3  -4 7263.96 1780.56  19
  -3  -3  -4 8262.49 1936.91  19
  -3  -3  -3 771.581 719.677  19
  -3   3  -3 22.0727 418.421  19
  -3  -3  -2 13357.8 2318.41  19
  -3   3  -2 14493.7 2431.43  19
  -3  -3  -1 1154.15 680.321  19
  -3   3  -1 120.634 502.317  19
  -3   3   0 24316.4 2960.24  19
  -3  -3   0 23787.4 2866.78  19
  -3   3   1 16808.6 2356.32  19
  -3  -3   1 16166.9 1993.50   2
  -3  -3   1 17073.6 2269.11  19
  -3  -3   2 4203.18 1038.54   2
  -3  -3   2 3402.08 836.600  19
  -3   3   2 5008.90 1344.73  19
  -3   3   3 9433.58 1687.85  19
  -3  -3   3 8285.48 1572.90   2
  -3   3   4 8709.32 1560.26  19
  -3  -3   4 9197.33 1685.35   2
  -3  -3   5 1953.07 918.374   2
  -3   3   5 695.872 445.158  19
  -3   3   6 6347.62 1576.45   2
  -3  -3   6 5153.54 1369.33   2
  -3  -3   7 344.352 377.886   2
  -3   3   7 683.626 461.012   2
  -3   3   8 14747.8 1245.41  14
  -3  -3   8 18436.6 2653.35   2
  -3  -3   8 15168.0 1342.34  11
  -3   3   8 17410.2 2813.46   2
  -3   3   8 13598.8 1232.83  11
  -3  -3   9 7042.92 970.497   8
  -3   3   9 7955.78 1838.63   2
  -3   3   9 6721.21 894.215  11
  -3  -3   9 6791.41 924.452  11
  -3   3   9 6636.19 861.519  14
  -3  -3   9 8543.81 1827.26   2
  -3   3  10 6527.08 928.592  14
  -3   3  10 6155.42 861.984  11
  -3  -3  10 7377.64 1055.83   8
  -3  -3  10 6852.14 925.236  11
  -3  -3  10 7064.20 785.803   6
  -3  -3  11 297.895 407.594   8
  -3   3  11 173.172 227.894  14
  -3   3  11-29.0039 242.778  11
  -3  -3  11 467.227 328.005  11
  -3  -3  11 147.422 217.141   6
  -3   3  12 5388.94 814.860  11
  -3  -3  12 6086.79 1011.99   8
  -3  -3  12 5602.35 684.184   6
  -3  -3  12 5045.43 808.662  11
  -3   3  12 4663.03 698.962  14
  -3   3  13 1012.32 360.500  11
  -3  -3  13 808.844 273.730   6
  -3  -3  13 697.027 354.126  11
  -3   3  13 1007.26 322.453  14
  -3   3  14 1471.28 407.529  11
  -3   3  14 1762.47 359.865  14
  -3  -3  14 1567.87 393.932  11
  -3   3  15 155.041 168.004  11
  -3   3  15 487.070 216.513  14
  -3  -3  15-81.4313 177.819  11
  -3  -3  16 976.805 233.175  15
  -3   3  16 550.506 189.389  11
  -3   4  -6 5203.63 1581.58  19
  -3  -4  -6 1920.98 1132.89  19
  -3  -4  -5-23.0445 839.641  19
  -3   4  -5 1582.54 557.068  19
  -3  -4  -4 5527.94 1765.58  19
  -3   4  -4 6954.90 1862.06  19
  -3   4  -3 8156.36 1943.91  19
  -3  -4  -3 7837.47 1929.77  19
  -3   4  -2 5959.30 1599.29  19
  -3  -4  -2 5474.11 1549.26  19
  -3  -4  -1 728.010 536.120  19
  -3   4  -1 1920.67 861.507  19
  -3   4   0 4073.00 1149.54  19
  -3  -4   0 3795.78 1120.33  19
  -3   4   1 3124.32 1059.03  19
  -3  -4   1 2575.28 892.243  19
  -3  -4   2 896.674 527.382   2
  -3   4   2 2090.97 794.318  19
  -3  -4   3 3479.83 931.724   2
  -3   4   3 2507.95 981.969  19
  -3   4   4 8007.67 1570.75  19
  -3  -4   4 10258.3 1717.83   2
  -3   4   5 979.531 532.208  19
  -3  -4   5 1088.40 441.029   2
  -3   4   6 10294.9 1997.98   2
  -3  -4   6 13508.8 2156.13   2
  -3   4   7 2012.94 1299.34   2
  -3  -4   7 907.805 316.201  11
  -3   4   7 936.870 315.291  14
  -3  -4   7 1178.12 578.601   2
  -3   4   8 11643.9 2231.54   2
  -3   4   8 8333.36 948.263  14
  -3  -4   8 8767.19 1014.34  11
  -3  -4   8 9797.53 1915.60   2
  -3  -4   9-203.192 411.716   2
  -3   4   9 484.321 307.475  14
  -3   4   9 866.638 390.696  11
  -3   4   9-299.106 850.805   2
  -3  -4   9 291.213 215.143   6
  -3  -4   9 38.1986 235.391  11
  -3   4  10 8537.40 1001.47  11
  -3  -4  10 11609.6 1028.51   6
  -3  -4  10 9500.12 1089.06  11
  -3   4  10 8966.01 1012.04  14
  -3  -4  11 1107.20 333.614   6
  -3   4  11 710.970 267.428  14
  -3  -4  11 937.332 391.257  11
  -3   4  11 931.503 385.901  11
  -3   4  12 3948.29 630.397  14
  -3  -4  12 4215.40 613.014   6
  -3  -4  12 3871.06 714.835  11
  -3   4  12 3241.80 639.424  11
  -3   4  13 2315.14 441.253  14
  -3   4  13 2011.13 517.555  11
  -3  -4  13 2880.25 505.494   6
  -3  -4  13 1817.78 448.458  11
  -3   4  14 2190.55 469.685  11
  -3  -4  14 1844.38 420.552  11
  -3   4  14 2320.50 416.072  14
  -3   4  15 179.437 153.887  14
  -3  -4  15 401.567 188.079  11
  -3   4  15-93.9060 210.000  11
  -3   4  16 1191.58 235.626  11
  -3  -4  16 1711.36 268.962  15
  -3   5  -5 1964.77 1068.83  19
  -3  -5  -5 3092.17 1539.24  19
  -3   5  -4 13819.7 2517.79  19
  -3  -5  -4 13621.6 2702.83  19
  -3  -5  -3 8299.47 2004.76  19
  -3   5  -3 8555.93 2002.21  19
  -3   5  -2 15013.3 2593.66  19
  -3  -5  -2 13366.8 2355.51  19
  -3  -5  -1 2283.62 717.310  19
  -3  -5  -1 2766.11 802.201   1
  -3   5  -1 1928.43 914.858  19
  -3   5   0 8145.54 1774.69  19
  -3  -5   0 8068.25 1688.54  19
  -3  -5   0 7422.45 1583.28   1
  -3  -5   1 2365.07 936.884   1
  -3   5   1 2050.96 866.700  19
  -3   5   2 10812.7 1965.06  19
  -3  -5   2 11797.6 1993.56   1
  -3  -5   3 1360.22 667.955   1
  -3   5   3 1503.58 802.379  19
  -3  -5   4 13527.4 1911.58   2
  -3   5   4 11289.1 1916.32  19
  -3  -5   5 5059.32 1259.10   2
  -3   5   5 2913.64 936.810  19
  -3   5   6 7193.06 854.035  14
  -3  -5   6 8388.32 950.436  11
  -3   5   6 8303.32 1577.99  19
  -3  -5   6 9603.56 1772.26   2
  -3  -5   7 969.409 520.266   2
  -3   5   7 1302.74 356.404  14
  -3  -5   7 1528.12 406.590  11
  -3   5   8 1576.75 403.436  14
  -3  -5   8 1375.53 363.187   6
  -3  -5   8 1884.21 491.052  11
  -3   5   8 2836.40 1087.90   2
  -3   5   9 69.5395 236.109  14
  -3  -5   9 365.542 257.782   6
  -3  -5   9 305.289 318.063  11
  -3   5  10 3206.26 632.060  11
  -3  -5  10 2684.08 492.109   6
  -3   5  10 3746.76 661.739  14
  -3  -5  10 3387.96 686.015  11
  -3   5  11 2814.25 520.422  14
  -3  -5  11 2919.36 627.504  11
  -3  -5  11 2853.78 523.035   6
  -3   5  11 2178.26 516.079  11
  -3   5  12 3991.78 687.810  11
  -3  -5  12 4031.66 691.147  11
  -3   5  12 4810.63 677.187  14
  -3  -5  12 4756.27 647.949   6
  -3  -5  13 1294.86 318.686   6
  -3   5  13 1551.12 371.695  14
  -3   5  13 1136.16 415.500  11
  -3  -5  13 1434.54 415.174  11
  -3   5  14 1235.97 331.212  14
  -3   5  14 940.168 371.433  11
  -3  -5  14 667.604 299.783  11
  -3   5  15 127.413 152.243  11
  -3   5  15 537.633 192.094  14
  -3   5  16 432.495 141.149  11
  -3  -5  16 1010.50 237.023  15
  -3  -6 -10 2852.26 492.067   7
  -3   6  -5 101.993 765.546  19
  -3   6  -4 5692.58 1642.10  19
  -3   6  -3 4762.21 1411.61  19
  -3   6  -2 8236.66 1917.74  19
  -3   6  -1 1980.36 908.825  19
  -3  -6  -1 515.655 347.910  19
  -3  -6   0 2478.86 916.408   1
  -3   6   0 3434.02 1133.83  19
  -3  -6   0 2125.96 764.178  19
  -3   6   1 5292.63 1414.15  19
  -3  -6   1 4915.95 1376.53   1
  -3  -6   2 6376.58 1566.06   1
  -3   6   2 5932.02 1484.98  19
  -3  -6   3 2246.35 1085.07   1
  -3   6   3 3126.97 1108.50  19
  -3  -6   4 7705.71 1821.31   1
  -3   6   4 7169.65 1587.05  19
  -3  -6   5 2830.03 589.723  11
  -3  -6   5 3082.97 920.744   2
  -3   6   5 1369.01 578.219  19
  -3   6   5 1390.02 353.717  14
  -3  -6   6 11337.7 1025.02   6
  -3  -6   6 12915.4 2045.39   2
  -3   6   6 9760.09 1788.87  19
  -3   6   6 9931.75 1022.48  14
  -3  -6   6 10009.5 1093.55  11
  -3   6   7 3979.66 683.050  14
  -3  -6   7 5450.05 728.213   6
  -3  -6   7 5081.65 1276.54   2
  -3  -6   7 4487.52 719.872  11
  -3   6   7 5052.38 1563.61   2
  -3   6   8 3666.10 665.117  14
  -3  -6   8 3672.20 593.206   6
  -3  -6   8 4809.11 776.678  11
  -3  -6   9 2616.42 520.969   6
  -3  -6   9 1992.23 521.303  11
  -3   6   9 2298.35 530.235  14
  -3   6  10 23.4435 196.552  14
  -3  -6  10 46.5125 265.827  11
  -3  -6  10 572.362 288.468   6
  -3  -6  11 874.283 392.047  11
  -3   6  11 747.984 355.166  11
  -3  -6  11 929.378 352.046   6
  -3   6  11 942.279 321.167  14
  -3  -6  12 2674.30 568.869  11
  -3  -6  12 2380.98 443.423   6
  -3   6  12 3028.07 538.203  14
  -3   6  12 2719.71 567.968  11
  -3  -6  13 1120.52 335.456   6
  -3  -6  13 398.912 225.182  11
  -3   6  13 791.378 301.345  11
  -3   6  13 1077.67 301.296  14
  -3   6  14 1474.52 321.121  14
  -3   6  14 1452.83 363.237  11
  -3  -6  14 1362.13 300.358   6
  -3  -6  14 1051.78 282.658  11
  -3   6  15-76.6078 131.897  11
  -3   6  15 173.490 111.645  14
  -3  -6  15 23.1831 173.105  15
  -3  -7 -10 3117.13 496.181   7
  -3   7  -4 8198.94 2049.52  19
  -3   7  -3 5091.34 1525.04  19
  -3   7  -2 6120.55 1679.96  19
  -3   7  -1 2279.39 1132.03  19
  -3  -7  -1 2311.02 875.777   1
  -3   7   0 14194.0 2487.38  19
  -3  -7   0 14133.4 2339.57   1
  -3   7   1 3467.75 1143.87  19
  -3  -7   1 2560.25 998.599   1
  -3  -7   2 7394.66 1714.60   1
  -3   7   2 5939.76 1510.40  19
  -3  -7   3 3522.16 1269.53   1
  -3  -7   3 3131.46 652.126  11
  -3   7   3 2341.77 1006.65  19
  -3   7   4 5969.10 1518.61  19
  -3  -7   4 5901.75 841.990  11
  -3  -7   4 6126.47 1657.81   1
  -3   7   5 4238.22 1155.69  19
  -3  -7   5 6553.83 886.579  11
  -3  -7   5 5702.39 774.216   6
  -3  -7   5 5237.84 1435.65   1
  -3  -7   6 3935.07 663.031  11
  -3   7   6 3521.80 1117.20  19
  -3   7   6 3695.33 616.344  14
  -3  -7   6 4124.11 626.784   6
  -3  -7   7 2114.85 557.690  11
  -3   7   7 1526.69 459.214  14
  -3  -7   7 1810.91 482.649   6
  -3   7   8 683.746 279.092  14
  -3  -7   8 756.616 350.180   6
  -3  -7   8 1293.52 445.531  11
  -3  -7   9 1337.52 480.358  11
  -3  -7   9 1450.81 444.497   6
  -3   7   9 889.015 299.874  14
  -3  -7  10 2760.77 618.720  11
  -3   7  10 2742.59 542.572  14
  -3  -7  10 3437.81 595.102   6
  -3  -7  11 1960.60 485.253  11
  -3  -7  11 1809.25 420.456   6
  -3   7  11 1429.49 408.289  14
  -3   7  11 1253.05 374.154  11
  -3   7  12 1507.16 395.140  11
  -3  -7  12 1370.52 437.781  11
  -3   7  12 2036.58 451.260  14
  -3  -7  12 2331.27 468.475   6
  -3   7  13 1319.85 317.839  14
  -3  -7  13 1580.89 366.503   6
  -3  -7  13 1041.18 326.391  11
  -3   7  13 1049.87 313.495  11
  -3   7  14 105.039 163.085  11
  -3   7  14 378.024 194.637  14
  -3  -7  14-79.5035 141.337   6
  -3   7  15 620.819 197.471  11
  -3  -7  15 497.193 195.015  15
  -3  -8 -10 3700.68 544.271   7
  -3  -8  -9 2574.03 532.072   7
  -3  -8  -2 21902.0 1505.93  11
  -3   8  -2 14889.6 2623.87  19
  -3   8  -1 5464.47 1597.95  19
  -3  -8  -1 6570.46 1633.41   1
  -3  -8  -1 8923.99 956.904  11
  -3  -8   0 5850.47 1684.36   1
  -3  -8   0 6560.43 854.134  11
  -3   8   0 4237.42 1373.02  19
  -3  -8   1 6778.31 1649.99   1
  -3   8   1 4442.11 1217.10  19
  -3  -8   1 6569.93 877.928  11
  -3   8   2 3733.83 1267.83  19
  -3  -8   2 5066.97 1382.78   1
  -3  -8   2 4867.49 751.828  11
  -3  -8   3 1724.31 835.871   1
  -3   8   3 1213.61 712.644  19
  -3  -8   3 3656.64 684.283  11
  -3   8   4 2892.76 1082.55  19
  -3  -8   4 6679.44 894.917  11
  -3  -8   4 5996.80 1693.01   1
  -3   8   5 5984.94 1561.61  19
  -3  -8   5 6451.55 864.109   6
  -3  -8   5 6159.78 875.377  11
  -3  -8   6 3926.92 669.245   6
  -3  -8   6 3813.95 682.923  11
  -3  -8   7 4976.08 792.953  11
  -3   8   7 3120.41 591.946  14
  -3  -8   7 4396.67 695.285   6
  -3   8   8 5495.80 768.875  14
  -3  -8   8 5314.34 759.554   6
  -3  -8   8 5662.82 833.513  11
  -3  -8   9 3137.50 544.436   6
  -3   8   9 3450.92 601.434  14
  -3  -8   9 3785.62 664.442  11
  -3   8  10 1062.67 336.495  14
  -3  -8  10 1236.68 387.955   6
  -3  -8  10 1042.79 402.335  11
  -3  -8  11 1293.53 353.021  11
  -3   8  11 1673.95 421.833  14
  -3  -8  11 1718.98 427.430   6
  -3  -8  12 2038.74 412.852   6
  -3  -8  12 1559.55 381.502  11
  -3   8  12 2320.49 437.403  14
  -3   8  12 1825.18 447.011  11
  -3   8  13 472.728 214.365  14
  -3   8  13 253.857 170.262  11
  -3  -8  13 233.822 169.951   6
  -3  -8  13 364.023 227.447  11
  -3  -8  14 662.644 223.133  15
  -3   8  14 379.649 170.411  11
  -3  -8  14 609.277 176.707   6
  -3  -8  15 391.752 212.842  15
  -3   8  15 297.291 126.022  11
  -3  -9 -10 1372.69 316.896   7
  -3  -9  -9 1060.44 306.065   7
  -3  -9  -8 2807.62 592.062   7
  -3  -9  -2 4389.88 657.361  11
  -3  -9  -1 6769.01 868.825  11
  -3  -9   0 20372.2 1557.12  11
  -3  -9   1 17174.8 1440.91  11
  -3  -9   2 3093.75 626.500  11
  -3  -9   3 14559.9 1363.39  11
  -3  -9   4 117.123 270.831  11
  -3  -9   5 12101.1 1258.44  11
  -3  -9   5 11414.5 1141.72   6
  -3  -9   6-52.4376 235.067   6
  -3  -9   6-429.429 338.138  11
  -3  -9   7 9335.15 1059.45  11
  -3  -9   7 8384.58 959.015   6
  -3  -9   8 4201.41 715.262  11
  -3  -9   8 4457.76 687.192   6
  -3   9   9 5506.54 732.388  14
  -3  -9   9 4757.41 681.838   6
  -3  -9   9 5372.85 796.848  11
  -3  -9  10 1525.65 384.663  11
  -3  -9  10 1860.61 423.349   6
  -3   9  10 1821.19 420.270  14
  -3   9  11 2799.53 542.137  11
  -3  -9  11 3625.68 540.618   6
  -3  -9  11 3028.35 527.567  11
  -3   9  11 3738.17 556.816  14
  -3  -9  12 402.595 208.381  11
  -3   9  12 1244.63 358.381  11
  -3  -9  12 1340.76 320.953   6
  -3   9  13 1857.50 359.824  11
  -3  -9  13 1904.26 333.029   6
  -3  -9  13 2823.08 419.023  15
  -3   9  14 327.842 139.660  11
  -3  -9  14 593.197 183.534  15
  -3 -10 -10 409.013 203.502   7
  -3 -10  -9 4495.72 593.359   7
  -3 -10  -8 1868.60 437.183   7
  -3 -10  -7 7865.69 923.111   7
  -3 -10  -2 5409.12 777.049  11
  -3 -10  -1 13311.4 1230.69  11
  -3 -10   0 519.777 332.969  11
  -3 -10   1 11631.9 1193.15  11
  -3 -10   2 370.354 332.184  11
  -3 -10   3 5447.02 841.898  11
  -3 -10   4 5835.21 857.019  11
  -3 -10   5 5572.76 807.079   6
  -3 -10   5 6120.85 854.216  11
  -3 -10   6 6683.52 892.049   6
  -3 -10   6 6930.34 893.950  11
  -3 -10   7 1004.85 385.026   6
  -3 -10   7 4668.24 897.799  11
  -3 -10   8 4555.02 716.360  11
  -3 -10   8 3503.36 618.122   6
  -3 -10   9 3921.43 652.795  11
  -3 -10   9 3224.40 541.762   6
  -3 -10  10 803.688 320.559  11
  -3 -10  10 1047.26 325.580   6
  -3 -10  11 2744.14 462.905  11
  -3  10  11 2698.02 503.418  11
  -3 -10  11 2813.39 456.396   6
  -3 -10  12 188.833 124.198  11
  -3 -10  12 647.887 217.285  15
  -3  10  12 209.572 166.021  11
  -3 -10  12 532.260 213.781   6
  -3 -10  13 1827.19 294.196  15
  -3  10  13 1229.21 261.672  11
  -3 -10  13 1531.41 260.510   6
  -3 -11  -9 1192.50 288.995   7
  -3 -11  -8-54.2574 168.054   7
  -3 -11  -7 5004.27 721.993   7
  -3 -11  -6 759.933 304.111   7
  -3 -11  -5 8248.81 1014.64   7
  -3 -11  -4 165.359 234.442   7
  -3 -11  -1 9170.90 986.825  11
  -3 -11   0 2935.56 571.326  11
  -3 -11   1 2910.39 577.807  11
  -3 -11   1 1930.24 457.617   7
  -3 -11   2 4561.63 735.106  11
  -3 -11   3 1800.27 491.460  11
  -3 -11   4 3604.00 650.367   6
  -3 -11   4 3906.89 692.373  11
  -3 -11   5 2150.25 464.448   6
  -3 -11   5 2512.42 523.459  11
  -3 -11   6 371.584 307.940  11
  -3 -11   6 79.7176 219.046   6
  -3 -11   7 2532.95 523.486   6
  -3 -11   7 2652.29 512.776  11
  -3 -11   8 481.066 255.787   6
  -3 -11   8 749.643 288.508  11
  -3 -11   9 7746.94 802.858   6
  -3 -11   9 8524.12 852.028  11
  -3 -11  10 1856.57 377.137  11
  -3 -11  10 1776.74 329.136  15
  -3 -11  10 1364.30 325.826   6
  -3 -11  11 777.578 222.823  11
  -3  11  11 917.633 268.292  11
  -3 -11  11 1433.87 285.104  15
  -3 -11  11 972.515 266.266   6
  -3  11  12 202.795 117.591  11
  -3 -11  12 401.301 145.772   6
  -3 -12  -9 1800.73 281.522   7
  -3 -12  -8 706.452 237.715   7
  -3 -12  -7 2070.63 394.983   7
  -3 -12  -6 1271.81 338.009   7
  -3 -12  -5 5213.63 711.991   7
  -3 -12  -4 2990.25 546.440   7
  -3 -12  -3 7649.07 927.475   7
  -3 -12  -2 1614.27 411.796   7
  -3 -12  -1 5206.35 717.791   7
  -3 -12   0 1248.98 394.908   7
  -3 -12   0 1580.00 420.287  11
  -3 -12   1 8174.82 915.819  11
  -3 -12   2 948.959 417.321  11
  -3 -12   3 6956.14 865.291  11
  -3 -12   4 2248.54 498.166   6
  -3 -12   4 2697.13 503.817  11
  -3 -12   5 3466.33 611.094   6
  -3 -12   5 2902.61 530.158  11
  -3 -12   6 5122.83 696.284  11
  -3 -12   6 4315.84 647.632   6
  -3 -12   7 1788.29 407.289  11
  -3 -12   7 1229.24 395.619   6
  -3 -12   8 1601.41 364.306  11
  -3 -12   8 1249.35 327.805   6
  -3 -12   9 2068.42 383.380  11
  -3 -12   9 1794.80 361.737   6
  -3 -12  10-91.6853 180.253   6
  -3 -12  10 169.752 143.324  11
  -3  12  10-23.6742 131.188  11
  -3  12  11 1095.74 233.146  11
  -3 -12  11 1388.06 248.562   6
  -3 -13  -8 481.174 161.706   7
  -3 -13  -7 4158.35 480.368   7
  -3 -13  -6 308.993 202.955   7
  -3 -13  -5 3247.18 514.070   7
  -3 -13  -4-50.8485 155.744   7
  -3 -13  -3 2636.25 474.248   7
  -3 -13  -2 909.254 294.549   7
  -3 -13  -1 3661.19 583.763   7
  -3 -13   0 777.933 281.835   7
  -3 -13   1 4588.43 654.267  11
  -3 -13   2 370.471 215.147  11
  -3 -13   3 3122.09 551.258   6
  -3 -13   3 3192.86 555.752  11
  -3 -13   4 490.484 243.336   6
  -3 -13   4 585.194 290.472  11
  -3 -13   5 7482.78 806.941   6
  -3 -13   5 8795.64 836.334  11
  -3 -13   6 339.222 256.017  11
  -3 -13   6-112.942 235.730   6
  -3 -13   7 4055.91 471.042  16
  -3 -13   7 3573.18 521.209   6
  -3 -13   7 3447.55 478.547  11
  -3 -13   8 296.063 171.950   6
  -3 -13   8 165.136 168.958  11
  -3  13   8-0.39194 132.717  11
  -3 -13   9 5886.02 545.694   6
  -3 -13   9 7032.02 555.778  11
  -3  13  10 206.852 89.8444  11
  -3 -13  10 321.776 141.035   6
  -3 -14  -6 161.683 137.571   7
  -3 -14  -5 3382.54 434.337   7
  -3 -14  -4 89.1400 138.819   7
  -3 -14  -3 4392.78 441.473  16
  -3 -14  -3 4449.51 535.165   7
  -3 -14  -2 642.895 192.061   7
  -3 -14  -1 4487.64 516.518   7
  -3 -14   2 1553.90 392.517   6
  -3 -14   3 2449.58 456.468   6
  -3 -14   3 3018.25 448.681  11
  -3 -14   4 476.894 240.930  11
  -3 -14   4 368.601 202.191   6
  -3 -14   5 1458.70 340.650   6
  -3 -14   5 1470.83 304.605  11
  -3 -14   6-120.659 196.066   6
  -3 -14   6-57.6387 127.778  16
  -3 -14   6 352.474 198.703  11
  -3 -14   7 3228.04 338.443  16
  -3 -14   7 2807.08 358.809  11
  -3 -14   7 2020.51 340.811   6
  -3 -14   8-28.1384 97.5641  11
  -3 -14   8-7.51275 115.014   6
  -3 -14   9 1277.39 225.279   6
  -3 -15  -4-595.425 154.731   7
  -3 -15  -3 798.592 186.885   7
  -3 -15  -2 209.876 109.401  16
  -3 -15  -1 4323.11 442.568  16
  -3 -15   0 178.555 147.622   6
  -3 -15   0 362.089 169.267  16
  -3 -15   1 4666.59 540.959   6
  -3 -15   1 6352.81 574.236  16
  -3 -15   2 149.308 140.714  16
  -3 -15   2 157.522 145.361   6
  -3 -15   3 2586.61 403.689   6
  -3 -15   3 3682.38 435.281  16
  -3 -15   4 190.422 148.340   6
  -3 -15   4 186.129 128.509  16
  -3 -15   5 3128.35 346.986  16
  -3 -15   5 2230.11 329.115   6
  -3 -15   6 476.169 152.641   6
  -3 -15   6 770.813 169.111  16
  -3 -15   7 1435.98 233.986   6
  -3 -16  -1 968.292 204.502   6
  -3 -16   0 280.296 121.571   6
  -3 -16   0 81.5982 73.3805  16
  -3 -16   1 4702.06 386.822  16
  -3 -16   1 3940.14 405.848   6
  -3 -16   2 1646.82 235.433  16
  -3 -16   2 1008.09 203.930   6
  -3 -16   3 1769.53 257.930   6
  -3 -16   3 2747.74 292.450  16
  -3 -16   4-24.2295 95.0759   6
  -3 -16   4 29.4142 65.8270  16
  -2   0  -9-222.221 699.248  19
  -2   0  -8 7610.39 1905.56  19
  -2   0  -7-290.738 483.533  19
  -2   0  -6 6067.52 1505.39  19
  -2   0  -5 491.570 572.414  19
  -2   0  -4 41771.3 3693.45  19
  -2   0  -3-479.070 659.375  19
  -2   0  -2 65992.3 4304.86  19
  -2   0  -1 7.29334 427.284  19
  -2   0   0 27175.4 2410.98  19
  -2   0   1 178.756 267.433  19
  -2   0   2 19738.4 1805.31  19
  -2   0   3-95.5338 228.275  19
  -2   0   4 14577.5 1801.91   2
  -2   0   4 15037.9 1377.22  19
  -2   0   5 139.019 432.390   2
  -2   0   5-652.209 266.751  19
  -2   0   6 27187.9 2692.32   2
  -2   0   7 366.914 464.642   2
  -2   0   8 95967.1 5704.48   2
  -2   0   9 399.521 360.278   2
  -2   0  10 10882.9 1950.26   2
  -2   0  11 98.3496 146.049  14
  -2   0  11 182.734 235.129  11
  -2   0  11-66.9712 258.632   6
  -2   0  11 253.790 233.895   9
  -2   0  12 12606.5 1085.36  14
  -2   0  12 12989.4 1291.83  11
  -2   0  13 275.022 182.447  14
  -2   0  13 130.503 250.263  11
  -2   0  14 3422.69 518.831  14
  -2   0  14 3170.19 712.819   8
  -2   0  14 3168.87 567.888  11
  -2   0  15-91.8981 264.654   8
  -2   0  15-380.869 253.304  11
  -2   0  15-131.229 123.716  14
  -2   0  16 4599.28 744.084   8
  -2   0  17-254.478 229.478   8
  -2   1  -9 2834.86 1186.48  19
  -2  -1  -9 2920.08 1334.39  19
  -2   1  -8 11951.0 2303.99  19
  -2  -1  -8 12216.1 2470.27  19
  -2   1  -7 1151.07 666.634  19
  -2  -1  -7 820.774 753.332  19
  -2  -1  -6 20373.3 2859.64  19
  -2  -1  -6 22730.6 2451.89  18
  -2   1  -6 20001.3 2752.97  19
  -2   1  -5 4206.33 1281.87  19
  -2  -1  -5 5063.49 1395.23  19
  -2  -1  -5 5519.67 1179.44  18
  -2  -1  -4 66737.8 4135.20  18
  -2   1  -4 68608.8 4836.82  19
  -2   1  -3 1560.55 763.773  19
  -2  -1  -3 730.996 362.555  18
  -2  -1  -2 25463.1 2564.83  19
  -2   1  -2 23699.1 2524.07  19
  -2   1  -1 16816.2 1972.32  19
  -2  -1  -1 16661.1 1943.99  19
  -2   1   0 15330.3 1787.66  19
  -2  -1   0 14788.1 1721.60  19
  -2  -1   1 4122.28 846.033  19
  -2   1   1 4520.64 970.057  19
  -2   1   2 26335.3 2187.88  19
  -2  -1   2 25761.9 2054.17  19
  -2  -1   3 692.744 442.701   2
  -2  -1   3 672.199 325.966  19
  -2   1   3 667.368 302.754  19
  -2  -1   4 31026.8 1941.51  19
  -2  -1   4 31167.0 2721.32   2
  -2   1   4 32826.3 2255.30  19
  -2  -1   5 641.141 451.474   2
  -2   1   5 1497.87 754.671   2
  -2   1   5 1076.54 393.632  19
  -2   1   6 51178.9 3822.23   2
  -2  -1   6 50048.9 3733.00   2
  -2   1   7 48609.5 3846.15   2
  -2  -1   7 50166.1 3850.12   2
  -2  -1   8 3049.39 1014.97   2
  -2   1   8 1218.75 617.666   2
  -2   1   9 1289.33 617.218   2
  -2  -1   9 910.869 616.973   2
  -2   1  10 5225.71 1340.26   2
  -2  -1  10 7488.36 1636.14   2
  -2   1  11 3180.69 612.124  11
  -2  -1  11 2669.43 582.127  11
  -2  -1  11 3379.46 592.522   9
  -2  -1  11 3041.37 506.313   6
  -2   1  11 3318.13 565.694  14
  -2   1  11 4304.42 1253.52   2
  -2  -1  11 4617.14 1391.22   2
  -2  -1  12 3387.46 645.230  11
  -2  -1  12 3614.58 782.382   8
  -2  -1  12 3980.43 623.031   9
  -2  -1  12 4119.20 642.140   6
  -2   1  12 3663.96 586.105  14
  -2  -1  12 3011.01 475.000  14
  -2   1  12 3452.60 661.370  11
  -2  -1  13-179.749 333.112  11
  -2  -1  13 33.9205 402.943   8
  -2  -1  13-30.9831 180.282  14
  -2   1  13 568.656 270.893  14
  -2   1  13-156.719 298.539  11
  -2   1  14 4614.93 608.130  14
  -2  -1  14 5760.66 986.600   8
  -2   1  14 5648.78 958.266   8
  -2   1  14 5304.10 752.062  11
  -2  -1  14 4816.78 724.404  11
  -2   1  15 0.69854 279.573  11
  -2   1  15 248.297 165.282  14
  -2  -1  15 246.863 351.739   8
  -2  -1  15-214.251 254.807  15
  -2  -1  15 388.760 232.972  11
  -2   1  15-503.772 322.306   8
  -2   1  16 3002.91 563.525   8
  -2  -1  16 3412.89 645.218   8
  -2   1  16 2609.75 376.684  14
  -2  -1  17 156.420 237.755   8
  -2   1  17 61.2388 160.368   8
  -2   2  -9 3231.18 1397.32  19
  -2  -2  -9 3493.43 1440.50  19
  -2   2  -8 20937.4 3079.87  19
  -2  -2  -8 20472.3 3239.76  19
  -2  -2  -7 6026.45 1409.37  18
  -2   2  -7 4376.89 1307.79  19
  -2  -2  -6 9575.25 1632.19  18
  -2   2  -6 7512.21 1598.43  19
  -2   2  -5 713.246 735.397  19
  -2  -2  -5 454.546 373.371  18
  -2   2  -4 6554.06 1444.70  19
  -2  -2  -4 6547.24 1324.43  18
  -2   2  -3 1823.41 810.985  19
  -2  -2  -3 2169.20 697.183  18
  -2   2  -2 62859.1 4263.82  19
  -2  -2  -2 63848.9 3980.54  18
  -2  -2  -2 65461.5 3331.17   1
  -2   2  -1 3491.49 978.931  19
  -2  -2  -1 3732.29 769.803   1
  -2  -2   0 24291.8 2276.09  19
  -2  -2   0 24452.8 2037.83   1
  -2   2   0 25153.2 2366.04  19
  -2  -2   1 7022.98 1133.55  19
  -2   2   1 6077.62 1115.51  19
  -2  -2   1 7193.99 1093.95   1
  -2  -2   2 22930.4 2073.23   1
  -2   2   2 22069.5 2110.19  19
  -2  -2   2 20832.0 1950.21   2
  -2  -2   2 21225.2 1835.63  19
  -2  -2   3 2575.96 602.514  19
  -2  -2   3 2364.08 715.790   2
  -2  -2   3 2187.37 657.151   1
  -2   2   3 3058.29 768.065  19
  -2   2   4 1648.24 492.406  19
  -2  -2   4 1389.49 662.878   2
  -2   2   5 6394.43 1034.34  19
  -2  -2   5 6349.87 1220.79   2
  -2   2   6 63691.3 4374.93   2
  -2   2   6 72847.7 3602.01  19
  -2  -2   6 70647.9 4465.11   2
  -2   2   7 1734.52 784.359   2
  -2  -2   7 2290.56 829.925   2
  -2  -2   8 23015.0 2662.63   2
  -2   2   8 19128.2 2448.11   2
  -2   2   9 983.144 536.392   2
  -2  -2   9 260.755 714.704   2
  -2   2  10 4618.11 1267.23   2
  -2  -2  10 4130.97 658.544  11
  -2   2  10 3958.46 655.514  14
  -2  -2  10 5914.55 1393.72   2
  -2  -2  11 523.557 336.021   8
  -2   2  11-25.9891 202.860  14
  -2  -2  11 164.923 268.173   6
  -2   2  11-730.841 745.836   2
  -2  -2  11 391.306 308.364   2
  -2  -2  11 229.303 216.447   9
  -2  -2  11 124.494 191.658  11
  -2   2  11 259.813 260.145  11
  -2   2  12 4326.13 663.663  14
  -2  -2  12 3510.46 644.655  11
  -2  -2  12 4963.71 737.963   9
  -2  -2  12 4931.14 717.917   6
  -2  -2  12 4206.28 861.924   8
  -2   2  12 4202.19 754.381  11
  -2  -2  13 752.608 317.075  11
  -2   2  13 198.837 185.137  14
  -2   2  13-198.129 327.343  11
  -2  -2  13-173.016 440.023   8
  -2  -2  13 118.297 257.273   6
  -2  -2  14 5059.71 733.032  11
  -2  -2  14 5839.98 990.266   8
  -2   2  14 5824.93 723.053  14
  -2   2  14 5272.04 768.067  11
  -2   2  15-449.402 276.614  11
  -2  -2  15 51.2222 344.507   8
  -2   2  15 274.743 199.396  14
  -2   2  15 405.659 250.035   8
  -2  -2  15 33.7992 201.895  15
  -2  -2  16 1456.39 291.404  15
  -2   2  16 1740.98 324.612  14
  -2   2  16 1680.67 401.872   8
  -2  -2  16 2350.88 562.847   8
  -2   2  17 386.188 194.274   8
  -2   2  17 136.635 116.785  14
  -2  -2  17-98.1171 295.845   8
  -2  -3  -9 5529.45 1782.99  19
  -2   3  -8 8785.34 1953.98  19
  -2  -3  -8 8934.72 1828.94  18
  -2   3  -7 1672.13 937.992  19
  -2  -3  -7 314.084 293.829  18
  -2  -3  -6 9425.73 1762.17  18
  -2   3  -6 7429.90 1700.77  19
  -2  -3  -5 1210.88 579.690  18
  -2   3  -5 1387.14 604.756  19
  -2  -3  -4 10121.7 1742.57  18
  -2   3  -4 9979.67 1761.48  19
  -2  -3  -3 15322.0 1523.54   1
  -2  -3  -3 13966.7 1914.34  18
  -2   3  -3 12246.5 1862.46  19
  -2   3  -2 11916.5 1823.23  19
  -2  -3  -2 12937.0 1428.09   1
  -2  -3  -2 12191.8 1726.69  18
  -2   3  -1 21771.8 2365.45  19
  -2  -3  -1 21006.8 1585.23   2
  -2  -3  -1 22393.8 1952.97   1
  -2  -3  -1 20672.7 2217.80  18
  -2   3   0 9363.85 1476.16  19
  -2  -3   0 9709.59 1164.58   2
  -2  -3   0 9658.53 1330.43   1
  -2  -3   1 2761.44 675.192   2
  -2  -3   1 4059.31 939.348   1
  -2   3   1 3605.48 901.089  19
  -2  -3   2 11158.6 1431.82   2
  -2  -3   2 10991.1 1488.81   1
  -2  -3   2 12426.4 1398.40  19
  -2   3   2 11458.8 1589.18  19
  -2  -3   3 1724.47 635.344   2
  -2  -3   3 2302.94 709.585   1
  -2   3   3 1811.19 636.209  19
  -2  -3   3 1736.91 467.670  19
  -2  -3   4 12968.3 1744.20   1
  -2   3   4 14124.5 1630.28  19
  -2  -3   4 14133.6 1736.14   2
  -2   3   5 12294.4 1479.30  19
  -2  -3   5 11344.6 1636.52   2
  -2  -3   5 10487.7 1611.24   1
  -2   3   6 11931.7 1439.07  19
  -2  -3   6 10736.3 1645.57   2
  -2   3   6 10331.7 1633.75   2
  -2  -3   7 1834.22 658.631   2
  -2   3   7 1714.20 699.414   2
  -2   3   8 17461.0 2346.53   2
  -2  -3   8 19379.5 2441.70   2
  -2  -3   9 4050.83 1082.27   2
  -2   3   9 3568.80 1036.25   2
  -2   3  10 9947.95 1022.04  14
  -2  -3  10 10994.3 1218.40   8
  -2  -3  10 10919.6 992.924   6
  -2   3  10 11890.2 2020.44   2
  -2  -3  10 12145.7 2079.33   2
  -2  -3  10 8530.45 1005.01  11
  -2   3  11 1664.41 443.753  14
  -2  -3  11 1010.18 522.022   2
  -2  -3  11 1642.12 464.327   8
  -2  -3  11 1520.24 377.690   9
  -2  -3  11 1350.96 429.346  11
  -2  -3  11 1456.65 442.850   6
  -2   3  12 1796.36 443.798  14
  -2  -3  12 2394.86 467.460   9
  -2   3  12 1573.06 481.512  11
  -2  -3  12 2312.93 512.251  11
  -2  -3  12 2242.05 498.919   6
  -2  -3  12 1699.46 558.175   8
  -2  -3  13 1439.33 585.460   8
  -2  -3  13 1338.04 422.650   6
  -2  -3  13 1447.17 449.604  11
  -2   3  13 1063.30 341.922  14
  -2   3  13 1462.38 438.161  11
  -2  -3  14 2140.38 463.991  11
  -2  -3  14 3019.82 724.607   8
  -2   3  14 2873.37 563.957  11
  -2   3  14 3374.26 560.318  14
  -2   3  15-31.9106 182.014  11
  -2   3  15-147.883 371.302   8
  -2  -3  15-68.5955 402.255   8
  -2  -3  15 272.616 305.234  15
  -2   3  15 171.511 159.748  14
  -2   3  16 1563.29 303.062  11
  -2   3  16 1946.65 351.506  14
  -2  -3  16 2501.86 611.830   8
  -2   3  16 2253.20 460.603   8
  -2   3  17 26.9140 139.051   8
  -2   3  17 99.5403 89.5083  14
  -2   4  -8 2533.97 1070.64  19
  -2  -4  -8-709.433 763.433  18
  -2   4  -7 2575.66 1210.88  19
  -2  -4  -7 1813.23 876.843  18
  -2   4  -6 6826.83 1780.07  19
  -2  -4  -6 7326.25 1673.33  18
  -2   4  -5 7754.29 1650.41  19
  -2  -4  -5 6787.54 1570.40  18
  -2  -4  -4 5824.96 1438.52  18
  -2   4  -4 5837.36 1435.99  19
  -2   4  -3 6595.85 1450.61  19
  -2  -4  -3 9020.89 1235.20   1
  -2  -4  -3 9196.95 1623.59  18
  -2  -4  -2 5389.66 999.201   1
  -2  -4  -2 6105.18 1318.54  18
  -2   4  -2 5660.12 1260.61  19
  -2  -4  -1 6490.99 1387.91  18
  -2  -4  -1 6899.20 1149.08   1
  -2   4  -1 5885.46 1345.83  19
  -2   4   0 35201.4 3022.02  19
  -2  -4   0 36318.3 2786.08   1
  -2  -4   0 37152.1 3088.80  18
  -2  -4   0 39850.9 2271.91   2
  -2  -4   1-3.27230 433.321   1
  -2  -4   1-30.3323 298.290   2
  -2   4   1 271.743 520.865  19
  -2  -4   2 18365.7 2000.91   1
  -2  -4   2 17427.5 1733.89   2
  -2   4   2 19113.7 2099.14  19
  -2  -4   2 18302.1 1757.85  19
  -2  -4   3 5278.68 1179.46   1
  -2   4   3 6369.09 1208.79  19
  -2  -4   3 7617.08 1223.48   2
  -2   4   4 34651.2 2776.24  19
  -2  -4   4 34578.8 2715.91   2
  -2  -4   4 32758.6 2858.62   1
  -2  -4   5 3545.36 911.240   2
  -2  -4   5 3898.60 1030.16   1
  -2   4   5 6231.57 1165.85  19
  -2  -4   6 13786.2 1964.33   1
  -2   4   6 15486.1 1798.85  19
  -2  -4   6 14799.7 1979.92   2
  -2   4   7 1005.65 347.262   2
  -2  -4   7 1847.60 806.077   2
  -2   4   8 12425.1 1939.03   2
  -2  -4   8 11686.7 1890.93   2
  -2   4   9 1513.59 480.544   2
  -2  -4   9 3049.43 1038.62   2
  -2   4  10 16760.3 2391.02   2
  -2  -4  10 16457.0 2479.98   2
  -2  -4  10 19559.1 1380.12   6
  -2   4  10 16440.2 1312.70  14
  -2  -4  10 17228.2 1594.93   8
  -2  -4  10 13903.0 1294.11  11
  -2  -4  11 2149.23 513.879  11
  -2  -4  11 2254.65 629.583   8
  -2   4  11 1496.93 424.778  14
  -2  -4  11 2014.70 494.150   6
  -2  -4  12 9546.48 1011.74   6
  -2   4  12 8234.73 931.920  14
  -2  -4  12 9049.84 935.658   9
  -2  -4  12 8580.67 1001.13  11
  -2  -4  12 10570.4 1334.09   8
  -2  -4  13 527.188 241.407  11
  -2  -4  13 721.985 447.079   8
  -2  -4  13 774.420 336.608   6
  -2   4  13 723.136 283.222  14
  -2   4  13 505.363 332.083  11
  -2   4  14 1840.85 488.910  11
  -2  -4  14 2542.76 521.919   6
  -2   4  14 2318.14 465.549  14
  -2  -4  14 2830.27 711.984   8
  -2   4  15 1269.58 325.459  11
  -2   4  15 1406.70 321.753  14
  -2  -4  15 1531.88 442.681  15
  -2   4  15 703.504 301.292   8
  -2  -4  15 1073.89 540.750   8
  -2   4  16 1953.37 338.447  11
  -2  -4  16 2425.97 696.953   8
  -2  -4  16 3681.34 532.174  15
  -2   4  16 2299.74 362.063  14
  -2   4  16 2349.26 406.531   8
  -2   4  17 640.472 165.055  14
  -2  -4  17 916.530 392.063  15
  -2  -5  -8 7017.21 1776.25  18
  -2   5  -7 2856.65 913.960  19
  -2  -5  -7 6640.71 1795.43  18
  -2  -5  -6 33442.5 3887.36  18
  -2   5  -6 34339.5 3737.86  19
  -2  -5  -5 4898.93 1418.68  18
  -2   5  -5 4278.98 1304.02  19
  -2  -5  -4 19879.4 2587.57  18
  -2   5  -4 17042.5 2450.07  19
  -2   5  -3 995.801 555.701  19
  -2  -5  -3 1521.12 756.947  18
  -2  -5  -3 2136.22 662.005   1
  -2   5  -2 14993.1 2102.93  19
  -2  -5  -2 15213.4 2104.23  18
  -2  -5  -2 15045.0 1778.54   1
  -2  -5  -1 2300.73 783.634  18
  -2   5  -1 2012.76 802.738  19
  -2  -5  -1 2704.28 804.449   1
  -2   5   0 3841.34 1049.11  19
  -2  -5   0 5016.71 1148.49  18
  -2  -5   0 4631.70 1052.89   1
  -2  -5   1 6587.99 1276.12   1
  -2   5   1 8027.09 1454.32  19
  -2  -5   1 8977.71 1064.58   2
  -2  -5   2 17195.7 2042.99   1
  -2  -5   2 21065.0 1791.80   2
  -2   5   2 17917.4 2119.46  19
  -2  -5   3 2676.81 854.703   1
  -2   5   3 3053.55 886.846  19
  -2  -5   3 2235.79 693.423   2
  -2  -5   4 13804.7 1663.24   2
  -2   5   4 13107.3 1779.54  19
  -2  -5   4 12901.9 1814.32   1
  -2  -5   5 3171.13 826.476   2
  -2   5   5 3301.90 831.226  19
  -2  -5   5 3056.23 878.107   1
  -2  -5   6 8119.74 1551.30   1
  -2  -5   6 9584.44 1564.32   2
  -2   5   6 9593.23 1507.58  19
  -2  -5   7 9016.70 1669.91   2
  -2   5   7 8540.81 1650.80   2
  -2  -5   8 8508.05 1632.87   2
  -2   5   8 9003.88 1763.76   2
  -2  -5   9 2439.46 537.819  11
  -2  -5   9 2198.03 767.015   2
  -2   5   9 2512.45 783.963   2
  -2  -5   9 4198.44 770.393   8
  -2   5   9 2805.23 526.594  14
  -2  -5   9 3454.70 544.600   6
  -2  -5  10 3884.28 676.322  11
  -2  -5  10 4346.17 1403.90   2
  -2   5  10 3382.46 572.309  14
  -2  -5  10 4417.98 841.765   8
  -2  -5  10 4605.22 665.559   6
  -2  -5  11 1762.94 469.394  11
  -2   5  11 2114.37 488.198  14
  -2  -5  11 1780.70 595.215   8
  -2  -5  11 2109.02 526.104   6
  -2  -5  12 1146.14 439.241   8
  -2   5  12 1825.43 435.249  14
  -2  -5  12 2215.58 538.480   6
  -2  -5  12 1855.05 463.635  11
  -2  -5  13 688.436 338.693  11
  -2  -5  13 983.809 538.516   8
  -2   5  13 963.783 333.888  14
  -2   5  13 657.279 359.488  11
  -2  -5  13 1724.19 465.882   6
  -2  -5  14 6218.33 1092.28   8
  -2   5  14 6698.21 775.011  14
  -2  -5  14 6227.23 767.970   6
  -2   5  14 5582.94 787.901  11
  -2   5  15 743.052 260.437  11
  -2  -5  15 860.813 677.774   8
  -2  -5  15 1420.03 451.093  15
  -2   5  15 1546.44 372.111  14
  -2   5  16 1544.55 306.060  11
  -2   5  16 2095.40 341.302  14
  -2  -5  16 2578.70 453.733  15
  -2  -5  17 1058.97 398.484  15
  -2   5  17 257.326 113.261  14
  -2  -6  -8 4962.39 1510.43  18
  -2  -6  -7 4657.43 1561.79  18
  -2  -6  -6 9527.71 2254.84  18
  -2   6  -6 7763.44 1758.70  19
  -2  -6  -5 5465.69 1791.73  18
  -2   6  -5 4017.98 1303.50  19
  -2   6  -4 9002.24 1787.01  19
  -2  -6  -4 9571.60 1990.97  18
  -2  -6  -3 7857.50 1386.68   1
  -2  -6  -3 5438.08 1318.36  18
  -2   6  -3 5018.98 1267.03  19
  -2  -6  -2 17822.1 2050.77   1
  -2   6  -2 15152.3 2233.07  19
  -2  -6  -2 13553.7 2122.85  18
  -2   6  -1 7882.20 1588.83  19
  -2  -6  -1 8240.29 1425.30   1
  -2  -6  -1 7713.21 1502.11  18
  -2  -6   0 23776.9 2440.07   1
  -2   6   0 26308.3 2789.94  19
  -2  -6   0 24849.2 2716.06  18
  -2  -6   1 1110.22 633.810   1
  -2   6   1 1814.44 798.709  19
  -2  -6   2 16366.6 2085.89   1
  -2  -6   2 20532.0 1780.85   2
  -2   6   2 18644.7 2270.93  19
  -2   6   3 19970.1 2308.04  19
  -2  -6   3 17751.5 2271.34   1
  -2  -6   3 21314.8 1958.33   2
  -2   6   4 8523.72 1545.28  19
  -2  -6   4 9357.56 1352.73   2
  -2  -6   4 6477.39 1360.62   1
  -2   6   5 5019.32 1192.08  19
  -2  -6   5 4365.87 1081.50   1
  -2  -6   5 5390.53 1099.45   2
  -2   6   6 5169.90 1154.35  19
  -2  -6   6 5459.23 1241.82   2
  -2  -6   6 4719.84 1321.30   1
  -2  -6   7 872.193 528.220   2
  -2   6   7 45.0338 451.976   2
  -2  -6   7 1200.63 680.986   1
  -2   6   8 17200.1 2401.52   2
  -2  -6   8 16116.9 2231.78   2
  -2  -6   9 6178.74 1042.09   8
  -2  -6   9 5076.93 751.476  11
  -2  -6   9 4154.66 1173.63   2
  -2  -6   9 5340.61 724.651   6
  -2   6   9 4070.34 642.065  14
  -2  -6  10 5816.65 834.220  11
  -2  -6  10 6706.61 847.019   6
  -2   6  10 5497.64 748.314  14
  -2  -6  10 6364.58 1051.38   8
  -2  -6  11 383.033 359.726  11
  -2  -6  11 603.612 437.987   8
  -2   6  11 0.85743 199.985  14
  -2  -6  11 424.838 321.308   6
  -2   6  12 985.501 366.204  14
  -2  -6  12 296.858 499.070   8
  -2  -6  12 754.776 300.567  11
  -2  -6  12 1296.73 417.816   6
  -2  -6  13 109.526 568.038   8
  -2   6  13 125.254 212.732  14
  -2  -6  13-100.883 294.223   6
  -2   6  14 1796.77 393.275  14
  -2  -6  14 2181.68 436.015   6
  -2   6  14 1629.49 440.180  11
  -2   6  15 565.754 258.591  11
  -2   6  15 1068.08 288.437  14
  -2  -6  15 969.716 362.044  15
  -2   6  16 1294.50 261.621  11
  -2  -6  16 2530.30 493.919  15
  -2   6  16 2048.68 321.828  14
  -2  -7 -10 2077.53 462.202   7
  -2  -7  -7 10860.3 2318.15  18
  -2   7  -6 9375.69 1844.80  19
  -2  -7  -6 14419.9 2736.86  18
  -2   7  -5 10915.5 2067.44  19
  -2  -7  -5 14069.9 2600.31  18
  -2   7  -4 19696.6 2764.30  19
  -2  -7  -4 24310.2 3214.98  18
  -2  -7  -3 1227.49 822.677  18
  -2   7  -3 1132.60 799.534  19
  -2  -7  -3 1145.64 518.919   1
  -2  -7  -2 16944.7 2218.33   1
  -2   7  -2 12190.7 2076.52  19
  -2  -7  -2 13390.9 2269.57  18
  -2   7  -1 4900.87 1276.75  19
  -2  -7  -1 4806.61 1228.91  18
  -2  -7  -1 4022.04 1077.89   1
  -2  -7   0 4492.03 1199.80   1
  -2   7   0 4832.67 1295.22  19
  -2  -7   0 4561.09 1221.19  18
  -2  -7   1 7159.30 1533.07  18
  -2   7   1 6455.76 1449.13  19
  -2  -7   1 6906.52 1372.84   1
  -2  -7   2 11605.6 1819.74   1
  -2   7   2 9330.06 1648.72  19
  -2  -7   3 11352.2 1858.47   1
  -2  -7   3 14887.2 1650.68   2
  -2   7   3 12176.0 1916.13  19
  -2  -7   4 9414.81 1733.37   1
  -2  -7   4 11677.8 1545.77   2
  -2   7   4 10454.1 1780.74  19
  -2  -7   5 1092.31 498.403   2
  -2  -7   5 1172.47 768.216   1
  -2   7   5 1447.85 670.716  19
  -2  -7   6 15241.5 2073.01   2
  -2  -7   6 13019.3 2166.28   1
  -2  -7   7 6291.87 1365.27   2
  -2  -7   7 4803.22 1393.22   1
  -2  -7   8 4130.94 688.623  11
  -2  -7   8 5277.12 1372.68   2
  -2   7   8 3887.36 621.457  14
  -2  -7   8 4313.48 696.286   6
  -2   7   9 13517.4 1194.59  14
  -2  -7   9 16035.9 2468.41   2
  -2  -7   9 16643.6 1364.33   6
  -2  -7   9 13756.0 1263.72  11
  -2  -7  10 1052.01 343.073  11
  -2   7  10 958.985 339.449  14
  -2  -7  10 1871.94 892.749   8
  -2  -7  10 1006.53 347.977   6
  -2   7  11 3432.90 616.902  14
  -2  -7  11 2129.32 463.161  11
  -2  -7  11 2573.66 557.695   6
  -2  -7  12 525.417 298.761   6
  -2   7  12 702.102 300.953  14
  -2  -7  12-15.5991 182.977  11
  -2  -7  13 6257.77 785.206   6
  -2   7  13 6887.24 790.338  14
  -2  -7  14 643.842 254.094   6
  -2  -7  14 1203.44 409.791  15
  -2   7  14 380.001 227.141  11
  -2   7  14 588.829 224.709  14
  -2   7  15 1107.42 283.712  14
  -2  -7  15 647.333 366.439  15
  -2   7  15 545.879 224.688  11
  -2   7  16 620.885 170.217  14
  -2  -7  16 885.940 392.863  15
  -2  -8 -10 11654.1 1098.49   7
  -2  -8  -9 5967.32 857.969   7
  -2  -8  -6 17864.0 2994.32  18
  -2  -8  -5 7833.93 1886.97  18
  -2   8  -5 5306.55 1451.26  19
  -2  -8  -4 10888.1 2128.78  18
  -2   8  -4 10797.0 2065.76  19
  -2   8  -3 5636.19 1459.76  19
  -2  -8  -3 8002.05 1571.32   1
  -2  -8  -3 6654.73 1624.31  18
  -2   8  -2 8358.65 1763.30  19
  -2  -8  -2 7700.81 1698.41  18
  -2  -8  -2 10818.2 2029.88   1
  -2   8  -1 8948.41 1725.96  19
  -2  -8  -1 10616.3 1912.42   1
  -2  -8  -1 10791.9 2008.14  18
  -2  -8   0 8498.55 1710.78   1
  -2   8   0 5953.57 1396.40  19
  -2  -8   0 7040.57 1535.82  18
  -2   8   1 8050.45 1620.73  19
  -2  -8   1 7405.05 1544.35   1
  -2   8   2 9614.28 1742.89  19
  -2  -8   2 9084.26 1700.45   1
  -2  -8   3 8049.00 1698.12   1
  -2   8   3 9743.50 1773.27  19
  -2  -8   4 22572.6 2815.08   1
  -2   8   4 22837.7 2762.96  19
  -2  -8   5 10024.7 1606.79   2
  -2  -8   5 8593.60 1792.46   1
  -2   8   5 10084.2 1836.72  19
  -2  -8   6 894.427 364.414   6
  -2  -8   6 1063.50 392.269  11
  -2  -8   6 690.084 372.300   1
  -2  -8   7 4418.65 714.278  11
  -2  -8   7 5488.59 797.479   6
  -2  -8   7 5463.81 1254.86   2
  -2   8   7 4680.88 652.064  14
  -2  -8   7 4579.83 1440.32   1
  -2  -8   8 1825.48 458.169  11
  -2  -8   8 2015.23 813.871   2
  -2  -8   8 1860.21 863.601   1
  -2   8   8 1334.80 340.079  14
  -2  -8   8 2059.82 524.397   6
  -2  -8   9 2786.02 559.868  11
  -2   8   9 2691.18 526.129  14
  -2  -8   9 3017.16 618.321   6
  -2   8  10 2878.68 555.615  14
  -2  -8  10 3088.18 638.507   6
  -2  -8  10 1934.70 479.933  11
  -2  -8  11 2486.55 497.015  11
  -2  -8  11 3565.12 628.774   6
  -2   8  11 3547.10 618.075  14
  -2  -8  12 1128.43 343.839   6
  -2   8  12 1266.67 380.508  14
  -2   8  13 684.699 258.969  14
  -2  -8  13 1186.96 396.731  15
  -2  -8  13 318.352 250.183   6
  -2  -8  14 368.630 264.385  15
  -2   8  14 453.003 225.633  11
  -2   8  14 680.824 228.299  14
  -2  -8  14 386.113 244.029   6
  -2   8  15 1856.40 310.859  14
  -2   8  15 756.344 227.505  11
  -2  -8  15 1727.18 432.382  15
  -2  -8  16 436.880 398.279  15
  -2   8  16-226.093 101.350  14
  -2  -9 -11 3796.93 538.489   7
  -2  -9 -10 1016.73 340.360   7
  -2  -9  -9 486.775 265.354   7
  -2  -9  -8 8593.06 1061.93   7
  -2  -9  -5 1970.09 454.876  18
  -2  -9  -4 11833.6 2315.51  18
  -2   9  -4 7272.08 1615.74  19
  -2  -9  -3 20356.7 2700.32   1
  -2  -9  -3 21845.4 3113.73  18
  -2   9  -3 15878.4 2465.40  19
  -2  -9  -3 24899.7 1617.52  11
  -2   9  -2 3146.23 1023.69  19
  -2  -9  -2 3248.62 1148.81  18
  -2  -9  -2 3666.60 1286.14   1
  -2  -9  -1 18619.5 2863.42   1
  -2   9  -1 15695.9 2448.18  19
  -2  -9  -1 15053.1 2405.49  18
  -2  -9   0 3208.90 1164.69   1
  -2   9   0 3143.31 1172.47  19
  -2  -9   0 4293.02 1286.68  18
  -2   9   1 11439.0 2025.23  19
  -2  -9   1 11305.2 2043.17   1
  -2   9   2 1159.96 669.582  19
  -2  -9   2 347.919 703.214   1
  -2  -9   3 15542.8 2443.51   1
  -2   9   3 17768.6 2532.97  19
  -2  -9   4 2495.80 999.713   1
  -2   9   4 2762.65 1035.76  19
  -2  -9   4 2111.49 348.007  11
  -2  -9   5 11770.3 2166.82   1
  -2  -9   5 14386.4 1262.78  11
  -2  -9   6 5781.06 816.203   6
  -2   9   6 4556.17 650.938  14
  -2  -9   6 4015.64 1428.15   1
  -2  -9   6 5698.57 811.254  11
  -2  -9   7 12035.2 2373.60   1
  -2   9   7 11968.4 1088.85  14
  -2  -9   7 14485.0 1290.20  11
  -2  -9   7 13981.0 1276.68   6
  -2  -9   8 4867.54 740.310  11
  -2  -9   8 6737.11 902.995   6
  -2   9   8 4727.80 677.733  14
  -2  -9   9 6312.26 861.493   6
  -2  -9   9 6238.83 829.638  11
  -2   9   9 6635.11 809.789  14
  -2   9  10 3294.18 565.919  14
  -2  -9  10 3833.65 675.417   6
  -2  -9  10 2783.90 562.185  11
  -2   9  11 3493.31 582.259  14
  -2  -9  11 3631.52 640.492   6
  -2  -9  11 2481.29 528.928  11
  -2   9  12 1198.36 361.884  14
  -2  -9  12 898.973 323.688   6
  -2  -9  13 2756.03 525.555  15
  -2   9  13 2513.80 410.053  14
  -2  -9  13 2249.26 479.672   6
  -2   9  14 332.040 211.582  11
  -2   9  14 91.6850 116.123  14
  -2  -9  14 58.2517 160.498   6
  -2  -9  14 603.146 341.028  15
  -2   9  15 593.526 167.426  11
  -2   9  15 1214.35 217.966  14
  -2 -10 -11 2408.49 409.730   7
  -2 -10 -10 1423.84 366.309   7
  -2 -10  -9 5026.51 746.553   7
  -2 -10  -8 570.600 300.707   7
  -2 -10  -7 7183.95 987.833   7
  -2 -10  -6 1089.44 415.375   7
  -2  10  -3 8106.92 1782.94  19
  -2 -10  -3 10802.1 2228.86  18
  -2 -10  -3 13083.6 1218.59  11
  -2 -10  -3 12219.6 2125.82   1
  -2 -10  -2 2904.34 1012.55  18
  -2 -10  -2 7258.10 910.099  11
  -2  10  -2 3015.39 1102.87  19
  -2 -10  -2 7723.14 1828.26   1
  -2  10  -1 5895.30 1554.23  19
  -2 -10  -1 3675.77 1292.50   1
  -2 -10  -1 5779.48 1563.89  18
  -2 -10  -1 6004.62 817.921  11
  -2 -10   0 13123.3 2236.79  18
  -2 -10   0 12998.3 2233.57   1
  -2  10   0 13028.9 2263.88  19
  -2 -10   0 17835.2 1453.50  11
  -2 -10   1 9948.83 2105.10   1
  -2 -10   1 12354.7 1167.92  11
  -2  10   1 8704.09 1882.53  19
  -2  10   2 8986.08 1839.02  19
  -2 -10   2 7386.69 1799.13   1
  -2 -10   2 9902.23 1074.55  11
  -2 -10   3 5215.00 770.475  11
  -2  10   3 5700.23 1512.35  19
  -2 -10   3 3931.83 1328.54   1
  -2 -10   4 454.125 712.615   1
  -2 -10   4 2213.80 581.165  11
  -2 -10   5 6169.03 1717.01   1
  -2 -10   5 7821.53 946.361  11
  -2 -10   6 2659.17 590.664   6
  -2 -10   6 2723.15 595.644  11
  -2 -10   7 6641.92 933.996   6
  -2  10   7 6293.51 780.236  14
  -2 -10   7 7686.16 943.056  11
  -2  10   8 2657.78 515.097  14
  -2 -10   8 2777.94 577.593   6
  -2 -10   8 2690.76 540.516  11
  -2  10   9 2481.60 485.995  14
  -2 -10   9 1898.48 475.179   6
  -2 -10   9 1846.04 429.744  11
  -2  10  10 2388.40 454.982  14
  -2 -10  10 2865.64 580.568   6
  -2 -10  10 2587.84 492.358  11
  -2 -10  11 2901.71 534.183  15
  -2 -10  11 1839.10 455.643   6
  -2  10  11 1942.31 375.354  14
  -2  10  12 1025.65 281.960  14
  -2 -10  12 1112.82 356.636   6
  -2 -10  12 1430.80 395.945  15
  -2 -10  13 940.267 336.383  15
  -2  10  13 859.198 238.128  14
  -2 -10  13 486.893 239.936   6
  -2  10  14 840.695 244.571  11
  -2 -10  14 566.276 171.419   6
  -2  10  14 696.686 168.518  14
  -2 -11 -11 1523.05 305.866   7
  -2 -11 -10 105.320 138.412   7
  -2 -11  -9 7960.49 874.709   7
  -2 -11  -8 2112.58 516.918   7
  -2 -11  -7 2786.33 606.599   7
  -2 -11  -6 593.021 409.098   7
  -2 -11  -5 2737.28 603.083   7
  -2 -11  -4 3273.18 693.273   7
  -2 -11  -3 1807.02 523.688   7
  -2 -11  -2 2633.21 603.610   7
  -2 -11  -2 2069.38 514.070  11
  -2 -11  -1 4170.43 721.431   7
  -2 -11  -1 4985.18 774.838  11
  -2 -11  -1 3730.70 1254.27  18
  -2  11   0 1685.02 658.451  19
  -2 -11   0 2885.05 1106.23   1
  -2 -11   0 1651.36 453.225   7
  -2 -11   0 1380.73 453.020  11
  -2 -11   1 12303.0 2316.02   1
  -2 -11   1 15155.1 1365.26  11
  -2  11   1 9154.01 2000.92  19
  -2 -11   2 4462.05 737.929  11
  -2 -11   3 3823.57 670.412  11
  -2 -11   4 2770.00 531.549  11
  -2 -11   5 12791.9 1323.88   6
  -2 -11   5 13735.1 1262.22  11
  -2 -11   6 5190.50 828.272   6
  -2 -11   6 5195.26 744.461  11
  -2 -11   7 4837.09 736.029  11
  -2 -11   7 4305.46 744.236   6
  -2 -11   8-188.270 256.023  11
  -2 -11   8 620.996 358.696   6
  -2  11   9 2740.63 468.727  14
  -2 -11   9 2341.55 529.022   6
  -2 -11   9 3324.54 526.517  11
  -2 -11  10 363.767 247.615  15
  -2  11  10 322.184 195.020  14
  -2 -11  10 38.6318 219.179   6
  -2 -11  10 430.604 247.179  11
  -2 -11  11 1541.70 380.825   6
  -2  11  11 2225.47 376.553  14
  -2  11  12 907.450 230.598  14
  -2 -11  12 471.527 321.310  15
  -2 -11  12 439.548 243.654   6
  -2 -11  13 618.805 215.572   6
  -2  11  13 638.831 241.093  11
  -2  11  14 2630.54 331.851  11
  -2 -12 -10 1862.86 355.754   7
  -2 -12  -9 5870.15 722.294   7
  -2 -12  -8 431.279 243.077   7
  -2 -12  -7 8982.14 1017.62   7
  -2 -12  -6 1512.84 446.379   7
  -2 -12  -5 6657.36 910.099   7
  -2 -12  -4 7526.18 980.643   7
  -2 -12  -3 18789.6 1566.01   7
  -2 -12  -2 2320.65 579.579   7
  -2 -12  -1 9765.97 1043.96   7
  -2 -12  -1 9929.28 1102.03  11
  -2 -12   0 1671.25 464.268  11
  -2 -12   0 1247.80 419.564   7
  -2 -12   1 6473.96 914.420  11
  -2 -12   2 10709.4 1148.26  11
  -2 -12   3 2772.14 592.234  11
  -2 -12   4 6648.62 851.909  11
  -2 -12   5 4878.57 804.210   6
  -2 -12   5 5610.93 779.258  11
  -2 -12   6 343.647 274.943   6
  -2 -12   6 279.451 208.248  11
  -2 -12   7 11475.7 1047.38  11
  -2 -12   7 8680.16 1015.14   6
  -2 -12   8 206.376 123.338  16
  -2 -12   8 517.332 327.326   6
  -2 -12   9 434.713 200.554  11
  -2 -12   9 154.140 274.656   6
  -2 -12  10 539.009 277.387   6
  -2 -12  11 2267.96 431.487   6
  -2 -12  12 1809.23 322.716   6
  -2  12  13 1496.04 246.484  11
  -2 -12  13 2265.34 297.061   6
  -2 -13 -10 368.312 178.955   7
  -2 -13  -9 4441.32 545.328   7
  -2 -13  -8 181.142 234.272   7
  -2 -13  -7 4324.78 661.127   7
  -2 -13  -6 1765.83 463.317   7
  -2 -13  -5 5925.50 818.804   7
  -2 -13  -4 1137.98 397.274   7
  -2 -13  -3 13119.5 1194.88   7
  -2 -13  -2 580.347 265.593   7
  -2 -13  -1 9512.26 1023.65   7
  -2 -13   0 2629.47 602.123  11
  -2 -13   0 1918.92 438.309   7
  -2 -13   1 17092.2 1410.78  11
  -2 -13   2 943.068 344.301  11
  -2 -13   3 5360.18 762.245  11
  -2 -13   4 622.517 328.539   6
  -2 -13   4-0.82939 259.084  11
  -2 -13   4 414.941 274.537  17
  -2 -13   5 16976.0 1318.79  17
  -2 -13   5 18298.3 1487.56   6
  -2 -13   5 19768.2 1408.73  11
  -2 -13   6 1945.13 480.958   6
  -2 -13   6 2216.25 463.047  11
  -2 -13   7 6628.43 659.271  16
  -2 -13   7 6161.50 707.479  11
  -2 -13   7 5401.93 757.212   6
  -2 -13   8 1296.17 269.910  16
  -2 -13   8 660.533 229.517  11
  -2 -13   8 691.549 284.611   6
  -2 -13   9 1395.86 376.729   6
  -2 -13  10-56.4230 188.908   6
  -2 -13  11 2360.85 353.945   6
  -2  13  12 454.989 147.872  11
  -2 -13  12 489.571 151.567   6
  -2 -14  -9 3495.63 406.047   7
  -2 -14  -8 330.019 154.024   7
  -2 -14  -7 8353.06 805.456   7
  -2 -14  -6 451.073 268.483   7
  -2 -14  -5 5593.18 709.020   7
  -2 -14  -4 5.40815 135.008  16
  -2 -14  -4 328.871 257.284   7
  -2 -14  -3 8298.51 799.410  16
  -2 -14  -3 9721.72 953.279   7
  -2 -14  -2 866.135 314.610   7
  -2 -14  -1 8370.12 882.525   7
  -2 -14   0 217.348 182.432   7
  -2 -14   2 496.337 221.244  11
  -2 -14   3 6317.30 771.064  11
  -2 -14   4-44.8056 260.643   6
  -2 -14   4 217.259 203.736  17
  -2 -14   4-98.2553 206.352  11
  -2 -14   5 1695.32 507.888   6
  -2 -14   5 1311.89 364.129  17
  -2 -14   5 2302.23 433.282  16
  -2 -14   5 1503.47 350.177  11
  -2 -14   6 578.583 240.715  16
  -2 -14   6 885.006 303.358  11
  -2 -14   6 115.839 259.999   6
  -2 -14   7 6379.32 595.534  16
  -2 -14   7 5666.21 596.622  11
  -2 -14   7 4322.75 640.687   6
  -2 -14   8 1230.73 339.772   6
  -2 -14   9 1882.50 357.898   6
  -2 -14  10 388.219 171.818   6
  -2 -14  11 1684.25 235.517   6
  -2 -15  -8 93.4888 90.5548   7
  -2 -15  -7 1000.18 260.452   7
  -2 -15  -6 316.851 170.707   7
  -2 -15  -5 2000.62 390.584   7
  -2 -15  -4 502.359 227.748   7
  -2 -15  -3 4826.77 611.442   7
  -2 -15  -3 5056.74 532.681  16
  -2 -15  -2 18.7951 150.447   7
  -2 -15  -2 43.4419 128.568  16
  -2 -15  -1 8825.59 815.689   7
  -2 -15  -1 7882.83 763.924  16
  -2 -15   0 601.317 240.959  16
  -2 -15   1 6299.67 695.508  16
  -2 -15   2 558.265 296.755  16
  -2 -15   3 1929.05 448.948   6
  -2 -15   3 1561.03 363.188  17
  -2 -15   4-73.9355 242.322   6
  -2 -15   4 85.0660 159.707  16
  -2 -15   5 4880.21 544.604  16
  -2 -15   5 3644.69 569.195   6
  -2 -15   6 208.196 177.420  16
  -2 -15   6-268.917 237.476   6
  -2 -15   7 4740.87 451.624  16
  -2 -15   7 2687.28 432.243   6
  -2 -15   8 133.281 121.503   6
  -2 -15   9 3852.08 395.145   6
  -2 -16  -6 1796.35 258.686   7
  -2 -16  -5 4793.63 473.397   7
  -2 -16  -4 45.8917 135.493   7
  -2 -16  -3 4765.30 512.796   7
  -2 -16  -3 3528.53 365.354  16
  -2 -16  -2 1356.57 259.835  16
  -2 -16  -2 1029.87 258.096   7
  -2 -16  -1 3090.98 406.318  16
  -2 -16   0 157.470 147.818  16
  -2 -16   1 2654.07 462.984   6
  -2 -16   1 3231.14 430.463  16
  -2 -16   2 268.951 231.326   6
  -2 -16   2 159.761 169.123  16
  -2 -16   3 4208.82 554.937   6
  -2 -16   3 5757.23 563.632  16
  -2 -16   4 139.305 133.567  16
  -2 -16   4 33.5235 152.072   6
  -2 -16   5 4468.30 439.041  16
  -2 -16   5 2526.49 400.186   6
  -2 -16   6 358.520 161.684   6
  -2 -16   6 410.216 136.932  16
  -2 -16   7 2894.31 340.115   6
  -2 -17  -2 18.7875 112.181   6
  -2 -17  -1 1039.49 248.135   6
  -2 -17  -1 1466.69 223.823  16
  -2 -17   0 981.089 225.920   6
  -2 -17   0 1646.60 246.732  16
  -2 -17   1 1826.85 295.501   6
  -2 -17   1 2440.76 300.435  16
  -2 -17   2 1364.59 248.016  16
  -2 -17   2 884.507 225.599   6
  -2 -17   3 7331.41 513.185  16
  -2 -17   3 4569.91 451.492   6
  -2 -17   4 44.5057 86.5894  16
  -2 -17   4 395.175 154.644   6
  -1   0  -9 231.822 302.518  19
  -1   0  -8 7259.90 1595.50  19
  -1   0  -7-9.53270 176.196  18
  -1   0  -6 61475.5 3241.51  18
  -1   0  -5 83.5502 203.463  18
  -1   0  -4 155421. 5432.33  18
  -1   0  -3 34.8044 219.312  18
  -1   0  -2 64393.7 2855.08  18
  -1   0  -1 52.5833 200.187  18
  -1   0   0 35844.1 1998.93  19
  -1   0   1-10.7820 271.517  19
  -1   0   2 79100.4 2885.11  19
  -1   0   3-43.9470 289.952  12
  -1   0   3-77.9669 151.074  19
  -1   0   4 828349. 23373.7  12
  -1   0   4 852054. 23561.1   2
  -1   0   5 27.4567 230.799  12
  -1   0   5-118.832 370.815   2
  -1   0   6 14357.2 1599.25   2
  -1   0   6 12342.2 1529.08  12
  -1   0   7 395.855 428.404   2
  -1   0   7 27.9059 308.016  12
  -1   0   8 76567.3 4308.34   2
  -1   0   8 64908.1 4353.54  12
  -1   0   9 239.469 255.239   2
  -1   0   9-249.564 363.386  12
  -1   0  10 10729.8 1699.70   2
  -1   0  10 8946.02 1785.10  12
  -1   0  11 109.667 289.133   2
  -1   0  11 163.168 220.278  10
  -1   0  11 57.9490 269.178   9
  -1   0  11 196.593 285.272   6
  -1   0  11 274.491 447.713  12
  -1   0  12 18434.6 1532.68   9
  -1   0  12 16503.9 1312.38  17
  -1   0  12 17226.6 2406.22   2
  -1   0  12 14274.0 1191.13  14
  -1   0  12 13306.2 2437.48  12
  -1   0  13 140.752 195.741  14
  -1   0  13-111.893 326.999   9
  -1   0  13 312.980 279.030  17
  -1   0  14 3669.32 694.449   9
  -1   0  14 4368.24 687.662  17
  -1   0  14 3553.06 584.785  14
  -1   0  15-289.105 202.521  14
  -1   0  15 157.300 298.809   9
  -1   0  16 1655.40 519.122   8
  -1   0  16 1271.33 242.512  14
  -1   0  17 595.334 313.075   8
  -1   0  18 4006.22 492.260   8
  -1  -1  -8 26013.3 2406.49  18
  -1   1  -8 24051.5 2785.57  19
  -1  -1  -7 11321.9 1492.20  18
  -1   1  -7 10763.3 1795.42  19
  -1  -1  -6 39296.2 2650.94  18
  -1   1  -6 40625.4 2333.89  18
  -1   1  -6 36393.1 3159.13  19
  -1  -1  -5 844.922 428.415  18
  -1   1  -5 606.207 326.805  19
  -1   1  -5 657.398 276.631  18
  -1  -1  -4 26330.6 1898.56  18
  -1   1  -4 26338.3 1649.74  18
  -1   1  -4 28365.1 2320.03  19
  -1   1  -3 21352.1 1902.67  19
  -1  -1  -3 21424.7 1063.09   1
  -1  -1  -3 20858.8 1578.14  18
  -1   1  -3 21010.4 1376.23  18
  -1  -1  -2 65332.8 2390.36   1
  -1   1  -2 67958.0 3309.37  19
  -1  -1  -2 65454.2 2971.93  18
  -1   1  -1 32718.1 2064.85  19
  -1  -1  -1 34417.5 1636.91   1
  -1  -1  -1 32405.8 1920.82  18
  -1  -1   0 46427.3 2064.67   1
  -1  -1   0 45632.2 2280.13  18
  -1   1   0 43210.2 2300.38  19
  -1   1   1 2092.97 459.784  19
  -1  -1   1 2168.91 454.669   1
  -1  -1   1 1942.95 398.729  19
  -1   1   2 123423. 4205.66  19
  -1  -1   2 120982. 4243.57   1
  -1  -1   2 118569. 3686.91  19
  -1  -1   3 159078. 4343.99  19
  -1   1   3 173803. 5231.75  19
  -1  -1   3 158755. 5393.06   1
  -1   1   3 169346. 5188.11  12
  -1   1   4 1887.98 398.839  19
  -1   1   4 2111.17 481.673  12
  -1  -1   4 1770.12 538.581   2
  -1  -1   4 1677.91 516.498  12
  -1   1   4 1977.15 537.716   2
  -1   1   5 4780.08 845.260  12
  -1  -1   5 4882.19 866.382   2
  -1   1   5 4730.05 846.590   2
  -1  -1   5 4199.55 871.275  12
  -1   1   6 9549.14 1287.35  12
  -1  -1   6 10896.0 1413.82   2
  -1   1   6 10522.9 1331.61   2
  -1  -1   6 10434.8 1418.31  12
  -1  -1   7 378.070 275.934  12
  -1  -1   7 646.392 560.939   2
  -1   1   7 216.493 331.981  12
  -1   1   7 776.203 489.338   2
  -1   1   8 13569.1 1764.16  12
  -1  -1   8 16222.4 1903.03   2
  -1   1   8 15098.9 1821.05   2
  -1  -1   8 12865.1 1896.39  12
  -1  -1   9 325.741 308.300   2
  -1   1   9-253.555 518.309   2
  -1  -1   9-1098.03 628.145  12
  -1   1   9-193.755 228.603  12
  -1  -1  10 11572.1 1806.27   2
  -1  -1  10 7418.42 1719.23  12
  -1   1  10 10582.3 1635.32   2
  -1   1  10 9600.35 1861.35  12
  -1  -1  11 3230.58 1024.68   2
  -1   1  11 4195.58 1132.94   2
  -1   1  11 3564.31 554.668  14
  -1   1  11 3875.81 741.683  10
  -1   1  11 4094.65 652.888   9
  -1  -1  11 1809.35 911.299  12
  -1  -1  11 4412.52 690.299   9
  -1   1  11 3938.85 1299.32  12
  -1  -1  11 3927.69 591.854   6
  -1  -1  12 10634.7 1945.50   2
  -1   1  12 10547.2 1102.26   9
  -1  -1  12 11767.5 1107.93   6
  -1   1  12 10739.9 1306.15  10
  -1   1  12 12670.5 1176.77  17
  -1  -1  12 12170.5 1159.93   9
  -1  -1  12 11655.1 1106.80  17
  -1  -1  12 10122.6 964.324  14
  -1   1  12 10051.0 1003.70  14
  -1  -1  12 9204.60 2144.60  12
  -1   1  12 9623.08 2014.94  12
  -1   1  13-142.731 304.347   9
  -1   1  13 624.056 329.065  14
  -1  -1  13 308.014 173.971  14
  -1   1  13-194.757 300.902  17
  -1  -1  13 163.451 232.844  17
  -1  -1  13 106.727 221.163   9
  -1  -1  14 5581.59 745.523  17
  -1  -1  14 3664.45 553.574  14
  -1   1  14 4907.52 825.474   9
  -1   1  14 4230.10 648.179  14
  -1  -1  14 5270.25 697.131  15
  -1  -1  14 4630.07 787.501   9
  -1   1  15 178.127 259.097   9
  -1   1  15-202.968 215.393  14
  -1  -1  15 191.084 312.891   9
  -1  -1  15 166.610 321.234  15
  -1  -1  15 185.317 146.099  14
  -1   1  16 2366.60 410.982  14
  -1  -1  16 2610.60 536.267   9
  -1  -1  16 2093.77 556.348   8
  -1   1  17 182.416 237.492   8
  -1  -1  17-298.205 306.369   8
  -1   1  17 418.362 179.659  14
  -1   1  18 1229.23 277.378   8
  -1  -1  18 1411.67 316.629   8
  -1   2  -8 3534.04 1070.39  19
  -1  -2  -8 5669.77 1230.20  18
  -1   2  -7 80.6177 328.651  19
  -1  -2  -7 489.203 340.061  18
  -1   2  -6 57493.2 3903.35  19
  -1  -2  -6 54236.7 3408.27  18
  -1   2  -5 1092.77 588.066  19
  -1  -2  -5 1412.15 561.387  18
  -1  -2  -4 32369.3 1498.75   1
  -1   2  -4 32324.6 2515.92  19
  -1  -2  -4 26074.2 2091.44  18
  -1  -2  -3 102.645 137.564   1
  -1  -2  -3 103.834 208.768  18
  -1   2  -3 374.792 406.676  19
  -1  -2  -2 11415.3 948.358   1
  -1   2  -2 11797.8 1316.99  19
  -1  -2  -2 11695.0 1198.54  18
  -1  -2  -1 699.209 372.256  18
  -1  -2  -1 773.868 278.553   1
  -1   2  -1 421.449 283.025  19
  -1  -2   0 24593.8 1505.90   1
  -1   2   0 23538.2 1720.78  19
  -1  -2   0 21658.4 1233.84   2
  -1  -2   0 23593.8 1650.20  18
  -1  -2   1 5855.06 806.052  18
  -1   2   1 5105.52 755.726  19
  -1  -2   1 5244.22 725.900   1
  -1  -2   1 5652.74 691.493   2
  -1   2   2 101202. 3930.16  19
  -1   2   2 102251. 2991.91  12
  -1  -2   2 92809.7 3717.64   2
  -1  -2   2 97389.2 3826.31   1
  -1   2   3 13865.7 1214.10  19
  -1  -2   3 11762.2 1219.91   2
  -1  -2   3 12492.6 1219.54   1
  -1   2   3 13135.8 962.416  12
  -1  -2   4 52204.3 2775.33   1
  -1   2   4 59747.1 2739.58  19
  -1   2   4 56919.1 2600.15  12
  -1  -2   4 53481.2 2927.90   2
  -1   2   5 18434.2 1560.19  12
  -1  -2   5 16993.3 1665.76   2
  -1  -2   5 16073.2 1494.17   1
  -1  -2   5 14853.5 1738.96  12
  -1   2   5 17945.9 1674.07   2
  -1   2   6 5241.37 959.664   2
  -1   2   6 5041.59 897.250  12
  -1  -2   6 4305.13 971.447  12
  -1  -2   6 4737.54 916.631   2
  -1   2   7 2699.11 810.255   2
  -1  -2   7 2371.40 751.423   2
  -1  -2   7 1345.10 582.690  12
  -1   2   7 1961.39 652.652  12
  -1  -2   8 7892.83 1596.70  12
  -1   2   8 12013.8 1593.22   2
  -1  -2   8 11214.0 1607.05   2
  -1   2   8 12245.8 1725.88  12
  -1  -2   9 374.794 344.463   2
  -1   2   9 516.829 543.139  12
  -1   2   9 1059.58 590.434   2
  -1  -2   9 214.514 543.371  12
  -1  -2  10 5405.21 1240.82   2
  -1   2  10 7010.73 1331.06   2
  -1  -2  10 3515.94 1131.77  12
  -1   2  10 4388.88 1266.58  12
  -1  -2  11 2297.28 894.106   2
  -1   2  11 1537.99 472.913  10
  -1  -2  11 1484.71 376.252   6
  -1   2  11 2239.74 1017.62  12
  -1  -2  11 1289.75 752.648  12
  -1   2  11 912.937 272.337  14
  -1  -2  11 999.604 286.273   9
  -1   2  11 1400.07 404.200   9
  -1   2  12 5263.03 755.448  11
  -1   2  12 5791.70 919.291  10
  -1  -2  12 7329.85 896.392   9
  -1   2  12 6934.28 913.971   9
  -1   2  12 7356.66 870.547  14
  -1  -2  12 7429.00 880.790  17
  -1  -2  12 7370.60 864.274   6
  -1  -2  12 3870.88 1284.87  12
  -1   2  12 4357.48 1372.89  12
  -1  -2  12 7784.33 1725.93   2
  -1   2  13 1274.18 395.889  11
  -1  -2  13 1015.62 371.008   9
  -1   2  13 947.309 429.146   9
  -1  -2  13 1235.48 407.532  17
  -1   2  13 910.945 361.305  14
  -1  -2  13 891.649 340.280   6
  -1   2  13 766.653 479.449  10
  -1   2  14 3609.78 685.185   9
  -1  -2  14 4285.49 664.106  15
  -1   2  14 3588.62 607.797  14
  -1  -2  14 3757.00 697.909   9
  -1  -2  14 4072.65 640.831  17
  -1  -2  15-144.190 269.262   9
  -1  -2  15 220.110 265.110  17
  -1  -2  15 460.400 420.168  15
  -1   2  15-44.2493 205.274  14
  -1  -2  15 294.264 410.394   8
  -1  -2  16 2930.17 667.547  15
  -1   2  16 2804.11 463.940  14
  -1  -2  16 2970.18 520.129   9
  -1  -2  16 3215.22 662.875   8
  -1  -2  17-27.8521 222.885   8
  -1   2  17-375.582 310.331   8
  -1   2  17 22.8456 100.320  14
  -1   2  18 850.388 239.270   8
  -1  -2  18 1281.15 329.037   8
  -1  -3  -9 6083.71 1391.06  18
  -1  -3  -8 19538.3 2362.48  18
  -1   3  -7 3409.90 921.698  19
  -1  -3  -7 3809.19 990.551  18
  -1   3  -6 4822.63 1096.00  19
  -1  -3  -6 7086.76 1287.23  18
  -1   3  -5 11792.3 1634.41  19
  -1  -3  -5 13033.5 1636.49  18
  -1  -3  -5 12253.4 982.177   1
  -1  -3  -4 1608.50 600.092  18
  -1   3  -4 1495.96 528.295  19
  -1  -3  -4 1800.27 425.967   1
  -1  -3  -3 265.981 307.494  18
  -1  -3  -3 600.833 271.559   1
  -1   3  -3 595.878 362.265  19
  -1  -3  -2 17636.3 1624.39  18
  -1   3  -2 18266.6 1731.63  19
  -1  -3  -2 18100.2 1365.33   1
  -1  -3  -1 22825.2 1753.58  18
  -1   3  -1 22942.2 1862.61  19
  -1  -3  -1 23171.8 977.262   2
  -1  -3  -1 22680.1 1563.90   1
  -1   3   0 32887.1 2227.50  19
  -1  -3   0 35744.2 2203.73  18
  -1  -3   0 36235.9 1572.77   2
  -1  -3   0 35128.9 2003.65   1
  -1  -3   1 6888.95 873.912   1
  -1  -3   1 7200.11 744.416   2
  -1  -3   1 6636.34 898.280  18
  -1   3   1 7617.80 1019.04  19
  -1  -3   2 8526.49 1034.71   1
  -1   3   2 10518.6 1174.01  19
  -1  -3   2 9813.93 979.662   2
  -1   3   2 9080.61 535.393  12
  -1  -3   3 2969.47 272.863  19
  -1  -3   3 3466.06 637.965   2
  -1   3   3 3889.82 700.737  19
  -1   3   3 3963.70 483.951  12
  -1  -3   3 3403.44 696.714   1
  -1  -3   4 11434.2 1278.09   1
  -1  -3   4 11978.3 1304.19   2
  -1   3   4 11979.0 1044.03  12
  -1   3   4 12517.8 1283.47  19
  -1  -3   5 10188.9 1236.28   1
  -1  -3   5 11018.8 1370.80   2
  -1   3   5 10810.2 1169.51  12
  -1   3   5 9613.78 1240.00   2
  -1  -3   6 4088.18 852.281   1
  -1  -3   6 5139.84 998.413   2
  -1   3   6 5277.34 1008.55   2
  -1   3   6 4812.36 902.877  12
  -1  -3   6 4438.40 1074.84  12
  -1  -3   7 7776.23 1331.33   2
  -1   3   7 8401.86 1288.40   2
  -1  -3   7 6200.71 1294.94  12
  -1   3   7 7018.77 1170.46  12
  -1   3   8 14755.2 1897.11  12
  -1  -3   8 10751.5 1900.35  12
  -1  -3   8 15758.6 1989.15   2
  -1   3   8 15583.9 1782.60   2
  -1  -3   9 2122.28 791.843   2
  -1   3   9 2998.22 900.006   2
  -1  -3   9 2077.36 910.582  12
  -1   3   9 2376.32 929.229  12
  -1  -3  10 12961.7 2288.41  12
  -1   3  10 14632.0 2250.30  12
  -1  -3  10 17719.8 2301.09   2
  -1  -3  11 1122.75 471.948   2
  -1  -3  11 681.804 326.447   9
  -1   3  11 558.378 282.920  10
  -1   3  11 1117.27 396.096   9
  -1  -3  11 601.420 277.629  17
  -1   3  11 791.852 371.021  14
  -1  -3  11 698.964 333.534   6
  -1   3  11 276.384 291.571  12
  -1  -3  12 8683.91 977.875  17
  -1   3  12 8784.29 1140.47  10
  -1   3  12 8075.36 987.261   9
  -1  -3  12 8906.31 994.182   9
  -1   3  12 8386.35 921.911  14
  -1  -3  12 9420.01 1000.47   6
  -1  -3  12 5726.47 1587.73   2
  -1   3  13 813.058 428.162  11
  -1  -3  13 190.025 260.116  17
  -1  -3  13 288.533 209.074   9
  -1   3  13-45.0781 297.005   9
  -1   3  13 202.884 351.291  10
  -1   3  13-111.389 213.783  14
  -1  -3  13 7.99525 307.910   6
  -1   3  14 4044.45 624.084  14
  -1  -3  14 3689.68 749.747   8
  -1  -3  14 4886.79 701.177  17
  -1  -3  14 4904.09 759.676  15
  -1  -3  14 4085.07 659.591   9
  -1   3  15 548.693 241.717  14
  -1  -3  15 984.466 407.473  15
  -1  -3  15 287.631 212.123  17
  -1  -3  15 1115.02 535.021   8
  -1  -3  15 520.842 292.079   9
  -1  -3  16 3803.04 787.256   8
  -1  -3  16 3495.95 561.053   9
  -1   3  16 3310.92 481.717  14
  -1  -3  16 3642.31 689.064  15
  -1   3  17 161.707 142.719  14
  -1  -3  17 506.102 243.320   8
  -1   3  17 363.316 221.740   8
  -1  -4  -9 3885.27 1249.46  18
  -1  -4  -8 6996.42 1481.96  18
  -1   4  -7 2528.23 881.389  19
  -1  -4  -7 3313.54 1071.19  18
  -1   4  -6 10636.2 1641.14  19
  -1  -4  -6 12728.1 1889.80  18
  -1   4  -5 19300.6 2082.11  19
  -1  -4  -5 22183.9 2516.51  18
  -1  -4  -5 21621.1 1592.60   1
  -1  -4  -4 80641.7 4477.04  18
  -1   4  -4 76686.9 4321.38  19
  -1  -4  -4 82828.0 3540.23   1
  -1  -4  -3 7527.17 1151.98  18
  -1   4  -3 6934.56 1151.57  19
  -1  -4  -3 7710.96 948.173   1
  -1   4  -2 3223.60 809.663  19
  -1  -4  -2 3405.14 754.360  18
  -1  -4  -2 3594.34 658.570   1
  -1   4  -1 12371.2 1443.79  19
  -1  -4  -1 12174.8 629.660   2
  -1  -4  -1 12496.4 1342.71  18
  -1  -4  -1 11877.6 1230.36   1
  -1   4   0 36665.8 2481.41  19
  -1  -4   0 41844.0 1709.61   2
  -1  -4   0 33934.4 2317.92  18
  -1  -4   0 34190.3 2187.41   1
  -1  -4   1 3515.36 544.301   2
  -1  -4   1 3749.15 734.604  18
  -1   4   1 3795.56 784.431  19
  -1  -4   1 3182.44 700.352   1
  -1  -4   2 28817.2 2047.60   1
  -1   4   2 32643.3 2211.56  19
  -1  -4   2 30880.0 2002.35  18
  -1  -4   2 29909.7 1770.34   2
  -1  -4   3 218.923 378.845   1
  -1   4   3-203.847 354.673  19
  -1  -4   3 1.92457 226.059   2
  -1   4   3 1.94156 129.688  12
  -1   4   4 52733.2 2984.17  19
  -1  -4   4 45606.0 2703.54   2
  -1  -4   4 42464.8 2790.36   1
  -1   4   4 46714.2 2332.89  12
  -1  -4   5 3089.97 778.620   2
  -1  -4   5 2945.13 727.726   1
  -1   4   5 3764.58 682.638  12
  -1   4   6 25502.3 2212.20   2
  -1   4   6 30304.7 2277.77  12
  -1  -4   6 26965.2 2338.84   2
  -1  -4   6 26665.6 2239.22   1
  -1  -4   7 4006.84 995.560   2
  -1   4   7 3206.03 737.068  12
  -1   4   7 4185.49 896.571   2
  -1  -4   7 4290.97 885.272   1
  -1   4   8 19373.0 2030.55   2
  -1  -4   8 18549.5 2208.07   2
  -1   4   8 17610.6 2112.68  12
  -1  -4   9 977.545 348.783   2
  -1   4   9 1616.38 691.434  12
  -1  -4  10 7728.98 1567.12   2
  -1   4  10 5711.90 1382.39  12
  -1   4  11 2918.28 655.658  10
  -1   4  11 3396.34 597.968  14
  -1  -4  11 2171.93 430.991  17
  -1  -4  11 2880.36 553.972   9
  -1   4  11 3566.96 627.822   9
  -1  -4  11 3062.18 557.433   6
  -1  -4  11 2592.16 985.194   2
  -1   4  12 19007.8 1540.46   9
  -1  -4  12 18940.3 1461.06   9
  -1  -4  12 21360.2 1922.35   8
  -1  -4  12 18962.4 1505.24  17
  -1   4  12 18904.0 1451.97  14
  -1  -4  12 20085.4 1513.84   6
  -1   4  12 20498.7 1757.10  10
  -1   4  13 1962.34 498.506  14
  -1  -4  13 1965.39 485.347   9
  -1  -4  13 2155.80 528.268  17
  -1   4  13 1522.03 477.466  10
  -1  -4  13 1888.19 494.580   6
  -1  -4  13 1932.91 539.467   8
  -1  -4  14 10317.9 1063.80   9
  -1  -4  14 9941.70 1398.68   8
  -1  -4  14 11137.2 1117.27  15
  -1   4  14 9654.30 983.750  14
  -1  -4  14 10575.7 1077.23   6
  -1  -4  14 10431.2 1031.49  17
  -1   4  14 8679.32 915.348  11
  -1  -4  15 2462.71 501.260  17
  -1  -4  15 2541.93 662.617   8
  -1  -4  15 1493.68 426.804  15
  -1   4  15 2643.42 509.207  14
  -1  -4  15 2083.20 469.027   9
  -1  -4  16 1997.42 403.431   9
  -1  -4  16 2027.15 589.654   8
  -1   4  16 2383.39 400.007  14
  -1  -4  16 2628.07 449.412  17
  -1  -4  17-157.475 369.751   8
  -1   4  17 307.963 147.463  14
  -1   4  17 157.330 185.518   8
  -1  -4  17 719.502 463.115  15
  -1  -5 -10 23228.3 3145.82  18
  -1  -5  -9 458.813 384.179  18
  -1  -5  -8 21001.4 2709.78  18
  -1  -5  -7 1191.56 538.354  18
  -1   5  -6 18082.6 2120.70  19
  -1  -5  -6 19582.6 2402.50  18
  -1  -5  -5 11630.1 1847.79  18
  -1   5  -5 10368.5 1593.52  19
  -1  -5  -5 13923.5 1407.46   1
  -1  -5  -4 1214.10 463.916   1
  -1   5  -4 1022.88 534.720  19
  -1  -5  -4 1242.18 553.987  18
  -1   5  -3 19141.0 2006.87  19
  -1  -5  -3 19938.8 2055.52  18
  -1  -5  -3 20524.1 1828.97   1
  -1   5  -2 19691.3 1944.90  19
  -1  -5  -2 22540.0 1858.04   1
  -1  -5  -2 19253.3 1869.90  18
  -1   5  -1 6499.08 1118.57  19
  -1  -5  -1 6545.68 1062.03  18
  -1  -5  -1 6774.01 996.946   1
  -1  -5   0 19550.6 1823.77  18
  -1  -5   0 25567.7 1348.79   2
  -1   5   0 20905.5 1968.34  19
  -1  -5   0 19906.4 1749.88   1
  -1  -5   1 24923.8 1534.06   2
  -1  -5   1 21543.2 1862.11  18
  -1   5   1 22560.0 2020.69  19
  -1  -5   1 20253.4 1798.21   1
  -1   5   2 14056.2 1569.32  19
  -1  -5   2 10997.2 1312.45  18
  -1  -5   2 13826.2 1258.72   2
  -1  -5   2 12801.3 1487.60   1
  -1  -5   3 10878.4 1379.64   1
  -1   5   3 13226.2 1575.60  19
  -1  -5   3 12572.1 1284.62   2
  -1   5   4 9916.26 1342.72  19
  -1  -5   4 8777.01 1281.51   1
  -1  -5   4 9649.02 1242.97   2
  -1   5   4 8740.32 984.030  12
  -1  -5   5 611.929 483.514   2
  -1   5   5 748.065 361.768  12
  -1  -5   5 602.340 407.381   1
  -1  -5   6 15521.3 1841.25   1
  -1  -5   6 16705.5 1891.67   2
  -1   5   6 15790.6 1718.00   2
  -1   5   6 18449.1 1781.62  12
  -1  -5   7 7903.13 1374.83   2
  -1  -5   7 8497.18 1363.76   1
  -1   5   7 9831.43 1397.09   2
  -1   5   7 9048.55 1380.78  12
  -1  -5   8 4938.04 1183.91   2
  -1   5   8 4828.87 1085.55  12
  -1  -5   9 7298.79 1519.13   2
  -1  -5  10 14376.5 2267.09   2
  -1   5  10 13903.6 1182.70  14
  -1  -5  10 15583.7 1527.74   8
  -1  -5  10 15358.7 1237.63   6
  -1  -5  11 4799.61 906.398   8
  -1   5  11 4413.89 742.824  10
  -1  -5  11 3903.90 670.308  17
  -1  -5  11 4335.51 653.979   9
  -1   5  11 4793.85 699.008  14
  -1  -5  11 4927.51 713.719   6
  -1  -5  11 5801.08 1480.74   2
  -1  -5  12 4744.48 907.025   8
  -1   5  12 5991.25 941.858  10
  -1  -5  12 5321.41 754.880   9
  -1   5  12 4872.44 729.691  14
  -1  -5  12 5119.71 786.788  17
  -1  -5  12 5118.85 771.703   6
  -1  -5  13-35.9753 192.851  17
  -1  -5  13-599.121 486.293   8
  -1   5  13-27.3173 389.719  10
  -1  -5  13 183.288 265.292   9
  -1  -5  13-379.300 459.997  15
  -1   5  13 142.677 211.338  14
  -1  -5  13-65.9292 280.119   6
  -1   5  14 9348.19 1113.30  10
  -1  -5  14 8420.69 908.462   9
  -1  -5  14 9414.95 950.650  17
  -1  -5  14 8167.76 974.574  15
  -1   5  14 8108.66 896.468  14
  -1  -5  14 7826.07 906.375   6
  -1  -5  14 8372.39 1219.33   8
  -1   5  14 6437.97 768.686  11
  -1  -5  15 1499.43 553.959   8
  -1  -5  15 1741.52 386.548   9
  -1  -5  15 1411.16 552.786  15
  -1   5  15 1926.59 422.449  14
  -1  -5  15 1891.83 409.672  17
  -1  -5  16 2498.72 631.453   8
  -1   5  16 2514.01 413.956  14
  -1  -5  16 2575.40 727.946  15
  -1  -5  16 2275.00 378.647  17
  -1   5  17 826.116 238.843   8
  -1   5  17 821.991 207.273  14
  -1  -5  17 924.625 434.067  15
  -1  -6  -9 3679.21 1217.74  18
  -1  -6  -8 17479.4 2558.95  18
  -1  -6  -7 4043.82 1200.52  18
  -1   6  -6 8076.41 1417.17  19
  -1  -6  -6 10394.8 1802.11  18
  -1   6  -5 7810.40 1380.03  19
  -1  -6  -5 8724.15 1573.75  18
  -1  -6  -5 10461.7 1405.59   1
  -1   6  -4 21759.4 2279.05  19
  -1  -6  -4 23104.7 2437.13  18
  -1  -6  -4 29435.1 2433.75   1
  -1  -6  -3 4596.18 1046.01  18
  -1  -6  -3 5456.78 1190.99   1
  -1   6  -3 4309.57 986.976  19
  -1   6  -2 20167.0 2086.63  19
  -1  -6  -2 17413.9 1970.62  18
  -1  -6  -2 21070.0 2083.34   1
  -1   6  -1 30842.6 2534.80  19
  -1  -6  -1 27368.7 2351.04  18
  -1  -6  -1 31304.4 2432.63   1
  -1  -6   0 37285.1 2698.95  18
  -1   6   0 38819.7 2846.30  19
  -1  -6   0 37403.8 2663.73   1
  -1   6   1 10309.7 1454.54  19
  -1  -6   1 10742.5 1403.09  18
  -1  -6   1 11750.6 1109.11   2
  -1  -6   1 9371.03 1324.15   1
  -1  -6   2 24595.8 2062.87  18
  -1  -6   2 27720.4 1911.27   2
  -1   6   2 23536.3 2244.74  19
  -1  -6   2 22746.4 2136.89   1
  -1  -6   3 563.224 407.917   2
  -1  -6   3 126.211 290.683   1
  -1   6   3 159.575 371.572  19
  -1  -6   4 21744.0 2174.86   1
  -1  -6   4 25273.1 2113.33   2
  -1   6   4 25105.6 2371.64  19
  -1  -6   5 11874.2 1661.84   1
  -1  -6   5 11741.5 1520.23   2
  -1  -6   6 40843.1 3208.30   1
  -1   6   6 39902.8 2885.67   2
  -1  -6   6 43842.1 3243.64   2
  -1  -6   7 2676.20 842.781   2
  -1  -6   7 1864.98 757.071   1
  -1  -6   8 10029.1 1705.93   2
  -1  -6   9 98.9421 285.482   2
  -1   6  10 7889.99 1040.77  10
  -1  -6  10 7532.30 938.129  17
  -1   6  10 6564.35 822.593  14
  -1  -6  10 7103.35 1092.51   8
  -1  -6  10 7223.49 862.551   6
  -1  -6  10 6005.99 1517.40   2
  -1   6  11 4038.54 709.580  10
  -1  -6  11 3054.11 542.555   9
  -1   6  11 3745.12 613.356  14
  -1  -6  11 3759.82 835.088   8
  -1  -6  11 3928.36 670.968  17
  -1  -6  11 3546.23 619.116   6
  -1   6  12 2715.88 612.633  10
  -1  -6  12 3668.73 834.698   8
  -1  -6  12 3573.72 644.440  17
  -1   6  12 2488.19 535.331  14
  -1  -6  12 2837.04 520.929   9
  -1  -6  12 2671.00 546.253   6
  -1  -6  13 1206.80 400.824  17
  -1   6  13 565.177 321.453  10
  -1  -6  13 1266.08 345.061   9
  -1  -6  13 495.028 319.223   8
  -1   6  13 1047.09 384.498  14
  -1  -6  13 912.688 347.386   6
  -1   6  14 1544.51 390.933  10
  -1  -6  14 2033.29 488.186  17
  -1  -6  14 1153.65 298.085   9
  -1  -6  14 1668.34 599.766   8
  -1  -6  14 1912.75 519.751  15
  -1   6  14 1782.98 424.339  14
  -1  -6  14 1724.08 478.775   6
  -1   6  15 2845.60 461.425  11
  -1  -6  15 4035.06 838.212   8
  -1  -6  15 3239.94 461.472   9
  -1  -6  15 3509.87 754.148  15
  -1  -6  15 3706.65 527.787  17
  -1   6  15 3460.89 520.958  14
  -1  -6  16 5249.86 850.009  15
  -1   6  16 5122.38 546.480  14
  -1   6  17 267.288 111.231  14
  -1  -7  -9 27691.6 1746.28   7
  -1  -7  -9 22024.7 3178.05  18
  -1  -7  -8 11698.9 2203.86  18
  -1  -7  -7 1592.39 802.198  18
  -1  -7  -6 9434.02 1742.38  18
  -1   7  -5 4939.26 1120.36  19
  -1  -7  -5 6612.21 1371.39  18
  -1  -7  -5 7296.34 1271.34   1
  -1  -7  -4 4237.94 1056.97  18
  -1   7  -4 3049.47 930.412  19
  -1  -7  -4 4846.63 1057.59   1
  -1  -7  -3 4779.08 1067.03   1
  -1   7  -3 3151.15 827.963  19
  -1  -7  -3 3238.40 900.283  18
  -1  -7  -2 14251.4 1818.53   1
  -1  -7  -2 14549.5 1840.26  18
  -1   7  -2 15154.8 1926.04  19
  -1  -7  -1 14125.5 1759.08  18
  -1   7  -1 14862.7 1856.02  19
  -1  -7  -1 15139.7 1828.33   1
  -1  -7   0 25537.5 2344.25  18
  -1   7   0 26276.7 2493.97  19
  -1  -7   0 26944.5 2423.98   1
  -1  -7   1 16623.7 1828.12  18
  -1   7   1 18740.4 2056.27  19
  -1  -7   1 14758.5 1812.79   1
  -1  -7   2 33922.3 2638.48  18
  -1  -7   2 41673.3 2573.43   2
  -1   7   2 38801.0 3054.02  19
  -1  -7   2 35833.1 2874.25   1
  -1  -7   3 22528.2 2317.61   1
  -1   7   3 24653.5 2492.74  19
  -1  -7   3 23672.4 2013.28   2
  -1  -7   4 5669.16 1213.82   1
  -1   7   4 7365.04 1339.93  19
  -1  -7   4 7311.98 1184.77   2
  -1  -7   5 48016.4 3634.44   1
  -1  -7   5 49647.5 3430.34   2
  -1  -7   6 9882.66 1569.13   2
  -1  -7   6 8099.61 1502.03   1
  -1  -7   7 6984.84 1380.15   1
  -1  -7   7 6572.16 1337.40   2
  -1  -7   8 1723.82 686.137   2
  -1   7   9 3602.35 602.901  14
  -1  -7   9 3303.36 753.131   8
  -1  -7   9 2218.87 495.523  17
  -1  -7   9 1267.71 651.906   2
  -1  -7   9 2838.06 576.842   6
  -1  -7  10 1743.88 539.947   8
  -1   7  10 2179.11 555.218  10
  -1   7  10 2338.35 520.344  14
  -1  -7  10 1851.21 461.152  17
  -1  -7  10 1862.52 477.129   6
  -1  -7  10 1653.67 629.150   2
  -1   7  11 4274.10 754.564  10
  -1  -7  11 3341.49 770.784   8
  -1  -7  11 3472.85 683.964  17
  -1  -7  11 2871.93 574.239   6
  -1   7  11 3749.01 644.961  14
  -1   7  12 317.245 208.000  10
  -1  -7  12 352.116 352.272   8
  -1  -7  12 550.496 415.284  15
  -1  -7  12 1102.18 412.351  17
  -1   7  12 597.123 313.924  14
  -1  -7  12 721.671 293.358   6
  -1   7  13 5328.35 828.314  10
  -1  -7  13 6072.42 842.020  15
  -1  -7  13 5668.84 1043.29   8
  -1  -7  13 5506.87 761.177  17
  -1   7  13 5541.83 724.659  14
  -1  -7  13 5422.80 740.511   6
  -1  -7  14 1360.63 356.687   6
  -1  -7  14 1915.98 715.902   8
  -1  -7  14 2184.85 436.836  17
  -1   7  14 1982.43 432.381  14
  -1  -7  14 1871.63 535.886  15
  -1  -7  15 1601.73 336.231  17
  -1  -7  15 953.761 610.236  15
  -1   7  15 1448.33 332.800  14
  -1   7  16 700.121 202.602  14
  -1  -7  16 647.943 612.621  15
  -1  -8 -10 2579.32 509.656   7
  -1  -8  -9 17013.3 1418.88   7
  -1  -8  -8 10415.4 2109.61  18
  -1  -8  -8 15039.2 1294.49   7
  -1  -8  -7 12631.8 2350.21  18
  -1  -8  -7 15110.3 1329.65   7
  -1  -8  -6 15262.3 2354.81  18
  -1  -8  -5 14523.6 2209.31  18
  -1  -8  -5 15591.5 1946.90   1
  -1   8  -4 9204.25 1569.41  19
  -1  -8  -4 12631.4 2001.06  18
  -1  -8  -4 11412.6 1695.87   1
  -1  -8  -3 2426.75 841.166  18
  -1   8  -3 2345.53 796.626  19
  -1  -8  -3 2895.32 801.773   1
  -1  -8  -2 7013.45 1340.51   1
  -1   8  -2 6733.94 1337.94  19
  -1  -8  -2 5109.90 1181.55  18
  -1   8  -1 10967.4 1661.58  19
  -1  -8  -1 8911.81 1506.14  18
  -1  -8  -1 8348.88 1438.55   1
  -1   8   0 19661.0 2304.48  19
  -1  -8   0 21157.6 2270.04  18
  -1  -8   0 18782.2 2165.57   1
  -1   8   1 22604.2 2416.89  19
  -1  -8   1 22505.5 2317.46  18
  -1  -8   1 22132.1 2393.06   1
  -1   8   2 1922.41 687.556  19
  -1  -8   2 1864.21 670.230  18
  -1  -8   2 1821.31 780.977   1
  -1  -8   3 7477.04 1403.03   1
  -1   8   3 8278.20 1490.87  19
  -1  -8   3 8324.47 1231.65   2
  -1  -8   4 7148.95 1429.39   1
  -1  -8   4 6933.16 1189.43   2
  -1  -8   5 2644.25 848.615   1
  -1  -8   5 4558.65 1130.00   2
  -1  -8   6 2348.70 804.640   1
  -1  -8   6 2753.24 830.396   2
  -1  -8   7 13796.0 2062.83   1
  -1  -8   7 14098.3 2100.84   2
  -1  -8   8 2141.48 754.074   8
  -1   8   8 1556.82 373.377  14
  -1  -8   8 1418.59 407.078  17
  -1  -8   8 1730.69 648.705   2
  -1  -8   8 1431.10 405.375   6
  -1  -8   9 2972.10 805.153   8
  -1   8   9 2876.70 545.908  14
  -1  -8   9 2992.22 593.218  17
  -1  -8   9 2888.61 1020.70   2
  -1  -8   9 3553.04 623.570   6
  -1   8  10 2028.31 478.181  14
  -1  -8  10 1467.48 469.666  17
  -1  -8  10 1609.88 517.103   8
  -1  -8  10 1221.99 375.054   6
  -1  -8  11 8631.20 1268.10   8
  -1  -8  11 7577.98 947.471  17
  -1   8  11 7277.27 853.007  14
  -1  -8  11 7593.62 923.601   6
  -1   8  12 1307.70 352.221  10
  -1  -8  12 1082.15 762.405   8
  -1  -8  12 1186.63 383.110  15
  -1   8  12 1430.09 366.265  14
  -1  -8  12 1450.15 438.939   6
  -1  -8  12 668.258 296.158  17
  -1  -8  13 3553.68 583.611  17
  -1   8  13 3916.23 634.827  10
  -1  -8  13 4930.86 762.663  15
  -1   8  13 4283.17 626.478  14
  -1  -8  13 4560.02 665.656   6
  -1  -8  14 496.602 236.179  17
  -1   8  14 1028.98 294.241  14
  -1  -8  14 1444.09 639.344  15
  -1  -8  14 965.898 299.579   6
  -1  -8  15 3278.93 434.978  17
  -1  -8  15 2577.63 742.051  15
  -1   8  15 3164.79 434.478  14
  -1  -8  16 1722.70 531.844  15
  -1   8  16 1414.70 233.412  14
  -1  -9 -11 4333.80 633.048   7
  -1  -9 -10 3957.94 649.796   7
  -1  -9  -9 2964.52 605.335   7
  -1  -9  -8 14200.8 1316.00   7
  -1  -9  -7 18167.6 2854.02  18
  -1  -9  -7 19857.3 1621.39   7
  -1  -9  -6 2596.24 1100.21  18
  -1  -9  -6 3548.08 617.774   7
  -1  -9  -5 11289.6 2111.25  18
  -1  -9  -5 12267.4 1887.23   1
  -1  -9  -4 1920.82 748.440  18
  -1   9  -4 1043.53 572.394  19
  -1  -9  -4 2708.20 866.628   1
  -1  -9  -3 3378.26 1009.26  18
  -1   9  -3 2735.01 899.023  19
  -1  -9  -3 3940.94 895.254   1
  -1   9  -2 6463.69 1321.54  19
  -1  -9  -2 5783.88 1280.17  18
  -1  -9  -2 5843.36 1292.97   1
  -1   9  -1 18361.7 2286.51  19
  -1  -9  -1 15298.0 2114.01  18
  -1  -9  -1 14830.0 2021.85   1
  -1   9   0 3035.12 941.199  19
  -1  -9   0 2594.50 907.192  18
  -1  -9   0 2248.03 826.311   1
  -1  -9   1 22510.9 2404.32  18
  -1   9   1 24885.7 2687.98  19
  -1  -9   1 20255.9 2403.65   1
  -1   9   2 11540.7 1883.52  19
  -1  -9   2 10485.4 1771.69   1
  -1  -9   3 23752.5 2699.73   1
  -1  -9   4 5936.31 1312.45   1
  -1  -9   5 5963.53 1373.12   1
  -1  -9   6 4304.08 1179.08   2
  -1  -9   6 4787.54 1308.72   1
  -1  -9   7 9699.75 1099.13  17
  -1  -9   7 9667.02 1851.05   1
  -1  -9   7 11102.0 1122.36   6
  -1  -9   7 10144.1 1843.38   2
  -1  -9   8 2608.56 575.799  17
  -1   9   8 3070.40 527.608  14
  -1  -9   8 3531.07 643.496   6
  -1  -9   9 8424.95 987.683   6
  -1  -9   9 7127.64 956.585  17
  -1   9   9 7822.04 868.429  14
  -1  -9  10 2874.89 588.102  15
  -1   9  10 2907.65 524.697  14
  -1  -9  10 2485.83 584.475  17
  -1  -9  10 2627.03 557.971   6
  -1   9  11 3195.91 542.095  14
  -1  -9  11 3501.30 650.585  17
  -1  -9  11 3200.24 632.925  15
  -1  -9  11 2954.91 548.913   6
  -1  -9  12 3066.46 615.441  15
  -1  -9  12 3096.75 589.539  17
  -1   9  12 2627.82 491.166  14
  -1  -9  12 3086.52 557.034   6
  -1  -9  13 6.97608 240.004  17
  -1  -9  13 657.078 484.094  15
  -1   9  13 289.862 191.911  14
  -1  -9  13 358.270 243.210   6
  -1  -9  14 1425.90 352.786  17
  -1  -9  14 1493.89 664.500  15
  -1   9  14 1498.28 321.634  14
  -1  -9  14 917.506 268.075   6
  -1  -9  15 1990.31 689.493  15
  -1   9  15 1761.46 283.782  14
  -1 -10 -11 4629.23 636.754   7
  -1 -10 -10 608.973 310.694   7
  -1 -10  -9 7252.56 934.636   7
  -1 -10  -8 1622.34 479.568   7
  -1 -10  -7 4010.21 737.114   7
  -1 -10  -6 7689.40 1854.38  18
  -1 -10  -6 10751.9 1149.20   7
  -1 -10  -5 10198.2 2092.54  18
  -1 -10  -5 13165.0 1261.84   7
  -1 -10  -5 9488.68 1789.15   1
  -1 -10  -4 8340.25 1781.81  18
  -1 -10  -4 11931.6 1119.52   7
  -1 -10  -4 7276.35 1438.59   1
  -1  10  -3 11532.7 1935.73  19
  -1 -10  -3 15475.6 2369.95  18
  -1 -10  -3 16106.7 2258.62   1
  -1  10  -2 8080.60 1678.60  19
  -1 -10  -2 8366.91 1685.03  18
  -1 -10  -2 7735.99 1608.17   1
  -1 -10  -1 8929.66 1684.32   1
  -1  10  -1 7310.98 1477.42  19
  -1 -10  -1 8082.52 1606.45  18
  -1 -10   0 2275.58 884.067  18
  -1  10   0 2590.24 905.378  19
  -1 -10   0 1789.85 642.746   1
  -1  10   1 1537.36 699.348  19
  -1 -10   1 903.656 392.802   1
  -1 -10   2 4558.83 1262.01   1
  -1 -10   3 10524.3 1949.54   1
  -1 -10   4 2920.47 1085.60   1
  -1 -10   5 7609.54 1800.40   1
  -1 -10   6 5526.71 871.777  17
  -1 -10   6 6059.50 849.238   6
  -1 -10   6 4244.81 1207.74   1
  -1 -10   6 5318.19 713.102  11
  -1 -10   7 5475.78 833.207  17
  -1 -10   7 5006.25 792.241   6
  -1 -10   8 2667.64 626.527  17
  -1 -10   8 3769.43 664.896   6
  -1 -10   9 1659.60 487.987  17
  -1 -10   9 1709.94 425.967  15
  -1  10   9 1321.40 337.883  14
  -1 -10   9 1771.14 466.255   6
  -1 -10  10 2589.14 555.412  17
  -1 -10  10 3189.56 613.158  15
  -1  10  10 2670.45 464.128  14
  -1 -10  10 2366.86 543.800   6
  -1 -10  11 3605.17 605.181  17
  -1 -10  11 4369.87 667.507  15
  -1  10  11 3398.39 519.974  14
  -1 -10  11 3668.60 610.810   6
  -1 -10  12 6773.11 798.908  17
  -1 -10  12 8274.01 937.244  15
  -1  10  12 7319.52 739.727  14
  -1 -10  12 7400.81 811.433   6
  -1 -10  13 2945.82 478.573  17
  -1 -10  13 2611.66 445.737   6
  -1 -10  13 3332.02 735.729  15
  -1  10  13 2867.32 408.251  14
  -1 -10  14 3839.37 451.614  17
  -1 -10  14 4838.66 812.834  15
  -1  10  14 4505.75 450.480  14
  -1 -10  14 4361.15 498.060   6
  -1 -10  15 654.561 418.864  15
  -1 -11 -11 2718.72 470.472   7
  -1 -11 -10 351.819 191.420   7
  -1 -11  -9 1882.98 530.786   7
  -1 -11  -8 2627.97 609.055   7
  -1 -11  -7 1316.91 438.389   7
  -1 -11  -6 4239.71 737.206   7
  -1 -11  -5 13329.2 1288.62   7
  -1 -11  -4 668.820 551.857  18
  -1 -11  -4 407.397 220.032   7
  -1 -11  -4 911.336 519.739   1
  -1 -11  -3 29732.5 1882.36   7
  -1 -11  -3 22208.4 3008.35  18
  -1 -11  -3 24874.9 3005.41   1
  -1 -11  -2 4490.80 1252.64  18
  -1  11  -2 4660.87 1224.07  19
  -1 -11  -2 7173.49 853.969   7
  -1 -11  -2 4586.09 1219.83   1
  -1 -11  -1 18136.4 2582.15  18
  -1 -11  -1 22720.6 1519.31   7
  -1  11  -1 18179.0 2503.17  19
  -1 -11  -1 22607.1 1601.94  11
  -1 -11  -1 18499.3 2593.66   1
  -1 -11   0 1002.44 834.285   1
  -1 -11   0 1835.45 500.787  11
  -1 -11   1 6863.15 823.978  11
  -1 -11   1 5032.58 1243.68   1
  -1 -11   2 5838.59 1526.05   1
  -1 -11   2 7086.62 837.767  11
  -1 -11   3 9660.46 1853.63   1
  -1 -11   3 10418.5 1013.00  11
  -1 -11   4 3755.82 1233.95   1
  -1 -11   4 2877.27 522.420  11
  -1 -11   5 8336.61 1739.03   1
  -1 -11   5 8857.31 1088.80   6
  -1 -11   5 8744.22 915.889  11
  -1 -11   6 2150.22 540.923   6
  -1 -11   6 2784.81 695.236  17
  -1 -11   6 1640.00 353.742  11
  -1 -11   7 7504.86 1051.43  17
  -1 -11   7 9468.36 879.695  16
  -1 -11   7 7923.48 984.758   6
  -1 -11   8 182.771 258.514  17
  -1 -11   8 504.331 328.261   6
  -1 -11   9 4058.56 691.524  17
  -1 -11   9 5616.10 648.323  15
  -1 -11   9 4582.97 734.077   6
  -1 -11  10 6456.92 842.611  17
  -1 -11  10 6561.77 804.052  15
  -1 -11  10 6804.38 840.454   6
  -1 -11  11 5659.50 737.762  17
  -1 -11  11 7664.76 870.411  15
  -1  11  11 5767.85 613.091  14
  -1 -11  11 6007.95 734.968   6
  -1 -11  12-72.6537 190.650  17
  -1 -11  12-141.838 605.812  15
  -1  11  12 821.376 251.410  14
  -1 -11  12 526.369 270.272   6
  -1 -11  13 6944.49 647.674  17
  -1 -11  13 7996.95 919.584  15
  -1  11  13 6881.76 536.814  14
  -1 -11  13 6361.63 607.245   6
  -1  11  14 120.443 104.548  11
  -1 -11  14 1016.16 448.295  15
  -1 -12 -11 6425.10 667.378   7
  -1 -12 -10 739.066 293.678   7
  -1 -12  -9 5553.22 796.507   7
  -1 -12  -8 4221.52 711.866   7
  -1 -12  -7 15654.0 1382.16   7
  -1 -12  -6 2748.68 613.666   7
  -1 -12  -5 7726.90 980.430   7
  -1 -12  -4 1571.31 473.345   7
  -1 -12  -3 2865.10 603.410   7
  -1 -12  -2 8519.20 981.349   7
  -1 -12  -1 11682.1 1150.46   7
  -1 -12  -1 14160.4 2343.25   1
  -1 -12   0 5554.41 1470.32   1
  -1 -12   0 6431.87 788.438   7
  -1 -12   0 6336.53 839.741  11
  -1 -12   1 5475.94 1449.98   1
  -1 -12   1 6983.37 874.352  11
  -1 -12   2 1322.60 840.208   1
  -1 -12   2 651.917 274.845  11
  -1 -12   3 25055.1 1668.73  11
  -1 -12   4 655.296 282.258  11
  -1 -12   5 3702.83 711.082   6
  -1 -12   5 4459.45 631.961  11
  -1 -12   6 144.962 230.597   6
  -1 -12   6 744.726 294.022  16
  -1 -12   6 659.379 346.055  17
  -1 -12   6 799.949 284.870  11
  -1 -12   7 2996.69 643.390  17
  -1 -12   7 4041.06 575.853  16
  -1 -12   7 3313.93 658.490   6
  -1 -12   8 2454.02 542.073  17
  -1 -12   8 1464.43 445.247   6
  -1 -12   9 7686.58 949.611  17
  -1 -12   9 6948.21 829.047   6
  -1 -12  10-134.237 269.237  17
  -1 -12  10 262.253 174.580   6
  -1 -12  11 3428.16 545.445  17
  -1 -12  11 4528.67 662.691  15
  -1 -12  11 3543.99 509.826   6
  -1 -12  12-53.1378 186.366   6
  -1 -12  12-305.112 232.165  17
  -1 -12  12-761.489 557.336  15
  -1 -12  13 611.240 177.639   6
  -1 -13 -11 1587.50 294.571   7
  -1 -13 -10 657.447 215.620   7
  -1 -13  -9 2499.33 493.035   7
  -1 -13  -8 18.5432 196.028   7
  -1 -13  -7 18297.1 1465.18   7
  -1 -13  -6-241.587 313.472   7
  -1 -13  -5 18654.2 1519.93   7
  -1 -13  -4 2019.49 397.184  16
  -1 -13  -4 2312.64 546.376   7
  -1 -13  -3 9825.21 1060.05   7
  -1 -13  -3 10087.3 970.078  16
  -1 -13  -2 6663.09 854.725   7
  -1 -13  -1 1543.60 427.601   7
  -1 -13   0 1197.68 368.531   7
  -1 -13   1 27334.5 1810.93  11
  -1 -13   2 5099.08 733.258  11
  -1 -13   3 25789.5 1670.13  11
  -1 -13   4 996.972 321.850  16
  -1 -13   4 1277.91 340.961  11
  -1 -13   5 2434.73 611.479   6
  -1 -13   5 2051.05 618.402  17
  -1 -13   5 2602.33 494.539  16
  -1 -13   5 2230.90 462.332  11
  -1 -13   6 1614.76 452.279  17
  -1 -13   6 2014.45 419.186  16
  -1 -13   6 1917.02 401.597  11
  -1 -13   6 2183.43 528.508   6
  -1 -13   7 3478.76 646.852  17
  -1 -13   7 4487.22 579.569  16
  -1 -13   7 3419.20 622.041   6
  -1 -13   8 707.749 252.530  16
  -1 -13   8 628.082 323.400  17
  -1 -13   8 396.303 251.879   6
  -1 -13   9 3560.97 587.974  17
  -1 -13   9 2682.52 459.974   6
  -1 -13  10 881.653 284.731  17
  -1 -13  10 843.105 253.672   6
  -1 -13  11 4525.75 527.850  17
  -1 -13  11 3759.79 453.914   6
  -1 -13  12-11.8034 123.171   6
  -1 -14 -10 262.082 176.037   7
  -1 -14  -9 6342.95 709.043   7
  -1 -14  -8 688.552 244.660   7
  -1 -14  -7 8566.11 916.358   7
  -1 -14  -6 1569.02 457.047   7
  -1 -14  -5 10674.8 1074.28   7
  -1 -14  -4 2058.64 422.342  16
  -1 -14  -4 1711.01 458.365   7
  -1 -14  -3 3161.89 536.848  16
  -1 -14  -3 3092.40 582.504   7
  -1 -14  -2 1260.74 394.068  16
  -1 -14  -2 1273.76 365.172   7
  -1 -14  -1 7929.85 865.767  16
  -1 -14  -1 7685.43 863.414   7
  -1 -14   0 163.268 204.223  16
  -1 -14   0 488.616 235.749   7
  -1 -14   1 2450.70 514.267  16
  -1 -14   2 2472.47 495.391  16
  -1 -14   3 14939.7 1189.73  16
  -1 -14   4 982.559 377.223   6
  -1 -14   4 1151.54 358.919  16
  -1 -14   5 6402.15 906.646  17
  -1 -14   5 7551.37 785.789  16
  -1 -14   5 6527.72 859.319   6
  -1 -14   6 3540.45 533.479  16
  -1 -14   6 2801.59 584.459  17
  -1 -14   6 2641.22 527.492   6
  -1 -14   7 2976.32 566.707  17
  -1 -14   7 3032.39 459.699  16
  -1 -14   7 2458.49 444.510   6
  -1 -14   8-25.5134 235.367  17
  -1 -14   8-210.696 184.438  16
  -1 -14   8-25.2751 163.157   6
  -1 -14   9 3167.02 509.011  17
  -1 -14   9 3410.19 461.788   6
  -1 -14  10 166.180 154.454  17
  -1 -14  10 286.630 162.623   6
  -1 -14  11 1117.58 201.328   6
  -1 -15  -9 4158.16 476.759   7
  -1 -15  -8 254.180 175.333   7
  -1 -15  -7 2973.37 517.362   7
  -1 -15  -6 409.685 272.635   7
  -1 -15  -5 4882.20 663.779   7
  -1 -15  -4 696.131 229.457  16
  -1 -15  -4 420.048 233.482   7
  -1 -15  -3 7607.30 754.049  16
  -1 -15  -3 7686.57 859.618   7
  -1 -15  -2 1139.44 335.447  16
  -1 -15  -2 1077.36 363.266   7
  -1 -15  -1 7850.70 815.309   7
  -1 -15  -1 8045.06 821.955  16
  -1 -15   0 836.587 317.371  16
  -1 -15   0 988.541 297.230   7
  -1 -15   1 4262.40 601.316  16
  -1 -15   2 243.778 188.840  16
  -1 -15   3 4367.91 722.988   6
  -1 -15   3 5384.77 674.611  16
  -1 -15   4 86.7468 254.382   6
  -1 -15   4 960.770 400.172  17
  -1 -15   4 812.359 262.441  16
  -1 -15   5 10340.7 1062.57  17
  -1 -15   5 11786.0 917.947  16
  -1 -15   5 8573.82 885.142   6
  -1 -15   6 1709.52 356.435  16
  -1 -15   6 1003.71 325.131  17
  -1 -15   6 816.679 258.967   6
  -1 -15   7 4953.79 520.781  16
  -1 -15   7 4136.89 596.370  17
  -1 -15   7 4023.47 521.844   6
  -1 -15   8-60.0825 156.332  17
  -1 -15   8 307.148 190.120   6
  -1 -15   9 1738.29 306.651  17
  -1 -15   9 705.260 182.758   6
  -1 -16  -8-88.5009 116.642   7
  -1 -16  -7 2254.97 359.675   7
  -1 -16  -6 340.445 208.350   7
  -1 -16  -5 4646.86 572.600   7
  -1 -16  -4 638.983 245.922   7
  -1 -16  -3 5257.60 546.512  16
  -1 -16  -3 4589.16 593.505   7
  -1 -16  -2 281.789 185.452  16
  -1 -16  -2 569.466 256.167   7
  -1 -16  -1 4759.57 573.146  16
  -1 -16  -1 5235.49 586.275   7
  -1 -16   0 943.270 299.723  16
  -1 -16   1 5764.77 654.380  16
  -1 -16   2 861.281 340.125   6
  -1 -16   2 785.000 195.843  16
  -1 -16   3 3639.86 556.344   6
  -1 -16   3 4479.69 690.132  17
  -1 -16   3 4671.55 569.296  16
  -1 -16   4-276.267 280.467  17
  -1 -16   4 40.8620 152.574  16
  -1 -16   4-39.3976 158.052   6
  -1 -16   5 2700.35 478.188  17
  -1 -16   5 3215.66 430.657  16
  -1 -16   5 2227.96 381.035   6
  -1 -16   6 1120.12 244.254  16
  -1 -16   6 391.892 150.079  17
  -1 -16   6 939.125 254.238   6
  -1 -16   7 3930.05 475.600  17
  -1 -16   7 3174.65 369.144   6
  -1 -16   8 413.746 171.689  17
  -1 -17  -6 718.299 168.496   7
  -1 -17  -5 4856.88 468.111   7
  -1 -17  -4 2961.07 375.112   7
  -1 -17  -3 3466.15 350.914  16
  -1 -17  -3 4146.10 448.955   7
  -1 -17  -2 866.878 210.421  16
  -1 -17  -1 6405.34 579.174  16
  -1 -17   0 435.926 205.827   6
  -1 -17   0 382.586 179.743  16
  -1 -17   1 4044.45 490.149   6
  -1 -17   1 6162.66 579.376  16
  -1 -17   2-194.512 215.976  17
  -1 -17   2 180.806 178.143  16
  -1 -17   2 74.6299 124.465   6
  -1 -17   3 1947.07 378.264  17
  -1 -17   3 3060.64 390.394  16
  -1 -17   3 2026.02 323.606   6
  -1 -17   4 569.395 214.959  17
  -1 -17   4 573.513 197.275  16
  -1 -17   4 333.222 138.023   6
  -1 -17   5 3656.35 372.834  16
  -1 -17   5 2162.83 336.835  17
  -1 -17   6 27.4233 100.203  17
  -1 -17   6-64.2175 74.5208  16
  -1 -18  -2 1718.54 260.034  17
  -1 -18  -1 3570.20 393.494  17
  -1 -18   0 5379.27 411.633  16
  -1 -18   0 3703.11 398.590  17
  -1 -18   1 5915.74 445.182  16
  -1 -18   1 4440.20 440.651  17
  -1 -18   2 1028.75 215.153  17
  -1 -18   2 1894.31 246.141  16
  -1 -18   3 1804.76 233.162  16
   0   0  -8 98589.5 4237.85  18
   0   0  -7 163.233 237.948  18
   0   0  -6 11541.8 1069.29  18
   0   0  -5-134.213 201.879  18
   0   0  -4 129883. 4082.09  18
   0   0   2 57515.6 1935.18   2
   0   0   3 88.0333 173.236   2
   0   0   4 104214. 3631.65   2
   0   0   5-31.2460 186.834   2
   0   0   5-17.8436 280.049  12
   0   0   6 9402.56 1080.27   2
   0   0   6 9001.34 1357.75  12
   0   0   7-227.279 318.445   2
   0   0   7 48.7799 386.361  12
   0   0   8 86865.1 4356.14   2
   0   0   8 90669.2 5332.82  12
   0   0   9 145.547 308.292  12
   0   0   9-298.693 542.116   2
   0   0  10 24298.3 2428.91   2
   0   0  10 21836.1 2938.69  12
   0   0  11 7.15527 206.593  17
   0   0  11-194.578 352.265  10
   0   0  11 75.7214 206.234  13
   0   0  11-65.4105 515.300  12
   0   0  12 4616.50 880.216  10
   0   0  12 3945.90 693.524  17
   0   0  12 3710.57 627.903  14
   0   0  12 4481.18 1498.45  12
   0   0  13-149.145 444.899  10
   0   0  13-241.170 266.079  14
   0   0  13-14.8612 250.476  17
   0   0  13 207.740 327.669   9
   0   0  14 6652.46 917.554  17
   0   0  14 5237.03 864.612   9
   0   0  14 4867.72 699.909  14
   0   0  15 317.293 261.206   9
   0   0  15-442.761 215.276  14
   0   0  16 1970.64 360.830  14
   0   0  16 2846.79 542.576   9
   0   0  17-74.1029 99.4406  14
   0   0  17-38.6876 236.768   8
   0   0  18 752.510 238.949   8
   0  -1  -9 75.2570 298.367  18
   0  -1  -8 23150.2 2008.19  18
   0   1  -7 1239.47 341.499  18
   0  -1  -7 1039.07 409.478  18
   0   1  -6 32070.5 1682.84  18
   0  -1  -6 30727.6 1995.80  18
   0   1  -5 3409.51 449.858  18
   0  -1  -5 3792.04 604.107  18
   0  -1  -4 53284.6 2346.00  18
   0   1  -4 52539.6 1936.04  18
   0  -1  -3 14441.6 999.901  18
   0   1  -2 66898.6 2173.19  19
   0  -1  -2 67991.7 2346.76  18
   0  -1  -1 22913.6 977.673  18
   0   1  -1 21205.1 870.373  19
   0  -1   1 25916.1 1147.17  12
   0  -1   2 69041.1 2082.86   1
   0   1   2 66129.4 2135.79   2
   0  -1   3 13594.5 734.366   1
   0  -1   3 13482.1 971.285   2
   0   1   3 13294.2 857.522   2
   0  -1   4 47914.3 2258.76   2
   0   1   4 47739.0 2076.61   2
   0  -1   5 2475.41 537.410   2
   0   1   5 2676.82 501.922   2
   0  -1   5 2552.38 673.046  12
   0  -1   6 27311.2 1998.25   2
   0   1   6 28515.1 1847.82   2
   0  -1   6 27902.9 2404.47  12
   0   1   6 28728.9 2474.19  12
   0  -1   7 1108.90 520.868   2
   0   1   7 1237.07 379.728   2
   0  -1   7 903.305 567.642  12
   0   1   7 764.372 507.929  12
   0  -1   8 20200.0 1994.55   2
   0   1   8 21246.1 1888.00   2
   0  -1   8 18211.4 2304.75  12
   0   1   8 21094.0 2484.86  12
   0  -1   9 134.734 497.279  12
   0   1   9 261.274 434.110  12
   0  -1   9 501.121 233.225   2
   0   1   9 551.883 289.052   2
   0  -1  10 12622.4 1804.62   2
   0  -1  10 12597.9 2307.76  12
   0   1  10 13416.7 2263.84  12
   0   1  11 3934.41 640.457  17
   0  -1  11 3343.51 698.194  10
   0   1  11 4429.01 823.903  10
   0   1  11 2680.47 937.124  12
   0   1  11 3556.54 574.843  14
   0  -1  11 4366.55 676.057  17
   0  -1  11 3389.46 530.202  13
   0  -1  11 4137.90 641.125   6
   0  -1  11 1766.56 915.955  12
   0  -1  11 3415.45 1005.33   2
   0   1  12 7323.47 1099.44  10
   0   1  12 8287.25 976.154   9
   0   1  12 7312.93 931.360  17
   0  -1  12 7781.02 956.494  17
   0  -1  12 8441.96 886.659  15
   0  -1  12 7612.75 854.151  14
   0   1  12 8652.09 925.303  14
   0   1  12 5649.41 1799.53  12
   0  -1  12 7061.03 1071.66  10
   0   1  13-547.513 326.207   9
   0   1  13 273.182 334.274  10
   0  -1  13-54.8692 271.866  17
   0  -1  13 480.287 430.068  15
   0   1  13-51.1340 302.885  17
   0  -1  13 55.4617 256.117  14
   0   1  13 264.438 271.651  14
   0  -1  14 4761.53 834.220   9
   0   1  14 5165.30 830.569   9
   0   1  14 5068.32 957.648  10
   0  -1  14 6209.71 857.313  17
   0  -1  14 5593.95 732.006  14
   0   1  14 5482.79 776.922  14
   0  -1  14 4578.11 909.733  15
   0   1  15 1395.80 433.482   9
   0  -1  15 832.542 334.629   9
   0  -1  15 1730.90 519.023  17
   0  -1  15 1052.22 671.296  15
   0  -1  15 1396.53 393.841  14
   0   1  15 1657.92 465.599  14
   0  -1  16 1489.88 320.195  14
   0  -1  16 2201.29 490.091   9
   0   1  16 2261.71 472.954   9
   0   1  16 1608.44 368.575  14
   0  -1  17 962.437 334.545   8
   0   1  17 434.892 176.897  14
   0  -1  17 1094.71 296.504   9
   0   1  18 777.325 205.874   8
   0  -2  -9 4110.18 901.053  18
   0  -2  -8 6810.38 1151.78  18
   0  -2  -7 1413.76 470.158  18
   0   2  -6 6211.75 874.019  19
   0   2  -6 5612.09 547.176  18
   0  -2  -6 6735.44 967.730  18
   0   2  -5 4161.67 391.701  18
   0  -2  -5 3903.79 681.145  18
   0   2  -5 4112.39 616.391  19
   0   2  -4 34800.2 1714.03  19
   0  -2  -4 36601.2 1963.73  18
   0   2  -3 1569.00 288.979  19
   0  -2  -3 1623.22 389.902  18
   0   2  -2 37598.0 1581.45  19
   0  -2  -2 38559.2 1735.15  18
   0   2  -1 33039.4 1476.86  19
   0  -2  -1 36808.6 1508.29  18
   0  -2   0 29996.2 1140.56  18
   0   2   0 25610.3 1257.40  19
   0   2   1 40134.7 1672.85  19
   0  -2   1 37344.4 1214.99  18
   0  -2   1 36134.6 1482.19   2
   0  -2   2 43414.6 1748.71   1
   0  -2   2 44173.1 2146.93  12
   0  -2   3 1967.86 339.608   1
   0   2   3 2159.43 336.877   2
   0  -2   4 31368.4 1521.67   1
   0  -2   4 32066.3 1891.83   2
   0   2   4 31868.9 1572.65   2
   0  -2   4 35981.2 2258.30  12
   0  -2   5 4464.30 534.551   1
   0  -2   5 4088.12 725.182   2
   0   2   5 4279.26 605.701   2
   0  -2   5 4546.86 839.284  12
   0  -2   6 4655.65 891.364   2
   0   2   6 5058.41 718.385   2
   0  -2   6 4837.36 994.136  12
   0  -2   7 1242.29 425.102   2
   0   2   7 1756.56 507.772   2
   0  -2   7 1387.02 634.503  12
   0   2   8 5575.47 874.596   2
   0  -2   8 5365.08 1272.90  12
   0   2   8 6299.27 1368.59  12
   0  -2   8 5283.42 1065.42   2
   0  -2   9 4210.39 1215.08  12
   0   2   9 3461.75 1139.74  12
   0  -2   9 3819.65 995.598   2
   0  -2  10 15016.0 2052.57   2
   0   2  10 15074.5 2443.35  12
   0  -2  10 12909.4 2250.01  12
   0  -2  11 27.6435 205.008  17
   0  -2  11 333.890 374.274  10
   0   2  11 272.199 285.794  10
   0   2  11 134.695 267.953  17
   0  -2  11-926.658 358.551  15
   0   2  11 173.539 178.204   9
   0   2  11-33.9143 192.841  14
   0  -2  11 325.841 258.599  13
   0  -2  11 32.8468 207.143   6
   0  -2  11 272.261 355.314  12
   0   2  11 291.606 344.536  12
   0  -2  11-299.324 543.795   2
   0   2  12 8384.57 1185.06  10
   0   2  12 10212.3 1113.62   9
   0   2  12 10221.9 1113.61  17
   0  -2  12 8558.12 1010.39  17
   0  -2  12 9099.60 922.938  13
   0   2  12 9632.71 1037.65  14
   0  -2  12 8149.86 869.605  14
   0  -2  12 5469.76 1872.07  12
   0   2  12 4633.59 1570.80  12
   0  -2  12 9547.51 971.378  15
   0   2  13 931.654 480.821  10
   0   2  13 200.980 216.107   9
   0  -2  13 339.365 454.189  15
   0  -2  13 652.969 307.812  14
   0   2  13 909.740 332.092  14
   0  -2  13 1058.85 390.435  17
   0   2  14 4402.23 900.087  10
   0   2  14 4277.07 749.493   9
   0  -2  14 4821.46 773.651  17
   0  -2  14 4540.90 909.815  15
   0  -2  14 3991.83 779.883   9
   0  -2  14 3879.10 574.745  14
   0   2  14 3671.34 641.033  14
   0  -2  15 58.6870 237.396   9
   0  -2  15 57.7483 286.529  17
   0  -2  15-77.6696 170.840  14
   0   2  15 94.4537 265.183   9
   0  -2  15-328.325 779.180  15
   0   2  15 98.2627 188.141  14
   0   2  16 2739.75 512.161   9
   0  -2  16 2929.80 528.912   9
   0  -2  16 2826.40 598.257   8
   0   2  16 2621.73 441.201  14
   0  -2  17-313.682 198.127   9
   0  -2  17-233.307 180.295   8
   0   2  17 174.629 144.862  14
   0   2  18 1446.01 279.389   8
   0  -3 -10 5682.67 1198.47  18
   0  -3  -9 768.843 548.222  18
   0  -3  -8 13442.6 1712.80  18
   0  -3  -7 1019.78 485.149  18
   0   3  -6 23206.0 1580.14  19
   0  -3  -6 28663.6 2120.48  18
   0   3  -5 14888.6 1154.99  19
   0  -3  -5 17869.3 1535.00  18
   0   3  -4 29331.9 1612.69  19
   0  -3  -4 31589.5 1960.41  18
   0   3  -3 17971.6 1187.13  19
   0  -3  -3 19512.5 1392.04  18
   0   3  -2 119.806 196.042  19
   0  -3  -2 128.109 193.125  18
   0   3  -1 9202.79 817.591  19
   0  -3  -1 10968.9 837.208  18
   0  -3   0 1869.73 314.368  18
   0   3   0 1697.54 392.496  19
   0  -3   1 9545.81 626.258  18
   0  -3   1 10171.0 789.008   2
   0   3   1 11032.2 934.111  19
   0  -3   2 297.540 84.0928  18
   0  -3   2 419.886 324.463  12
   0  -3   3 17085.7 1548.65  12
   0  -3   3 18683.3 1243.38   1
   0   3   3 16961.7 962.393   2
   0  -3   4 31285.3 1702.33   1
   0  -3   4 29853.9 1923.68   2
   0   3   4 29730.6 1467.03   2
   0  -3   4 30314.0 2225.95  12
   0  -3   5 16715.4 1224.57   1
   0  -3   5 16759.3 1556.98   2
   0   3   5 16759.5 1146.02   2
   0  -3   5 15565.7 1707.36  12
   0  -3   6 24228.1 1499.32   1
   0  -3   6 23497.1 2015.24   2
   0   3   6 26089.7 1603.06   2
   0  -3   6 22481.8 2303.14  12
   0   3   7 1139.57 400.687   2
   0  -3   7 465.110 356.416  12
   0  -3   7 788.833 503.471   2
   0  -3   8 11152.5 1636.08   2
   0   3   8 12072.8 1933.80  12
   0  -3   8 9725.66 1718.51  12
   0  -3   9 1603.52 857.102  12
   0   3   9 1406.77 639.070  12
   0  -3   9 705.617 421.293   2
   0  -3  10 6696.45 1658.48  12
   0   3  10 5515.47 1490.80  12
   0  -3  10 5351.59 1323.92   2
   0   3  11 3020.88 647.209  10
   0   3  11 2236.52 503.662  17
   0  -3  11 2287.69 527.913  17
   0  -3  11 1837.68 501.609  15
   0   3  11 2638.21 480.156  14
   0  -3  11 2433.88 421.582  13
   0   3  11 3476.96 587.753   9
   0  -3  11 2367.50 476.775   6
   0  -3  11 1607.91 729.791  12
   0   3  11 1345.26 731.058  12
   0  -3  11 1652.32 629.548   2
   0   3  12 11990.5 1440.20  10
   0   3  12 11162.0 1128.22   9
   0  -3  12 10898.3 1172.13  17
   0  -3  12 11752.0 1116.24  15
   0   3  12 12192.7 1165.11  14
   0  -3  12 10364.7 991.354  13
   0  -3  12 10341.0 1057.94   6
   0   3  12 7735.81 2170.93  12
   0   3  13 2585.71 706.825  10
   0   3  13 2419.51 526.731   9
   0  -3  13 2140.98 534.869  17
   0  -3  13 1081.03 543.067  15
   0   3  13 3287.60 595.456  14
   0   3  14 5716.78 1027.34  10
   0   3  14 5786.44 828.074   9
   0  -3  14 5481.88 889.865   9
   0  -3  14 6684.94 1088.02  15
   0   3  14 5939.88 790.168  14
   0  -3  14 6601.51 894.311  17
   0  -3  15 462.041 334.580  17
   0   3  15 540.040 281.752   9
   0  -3  15 322.421 808.074  15
   0  -3  15 536.850 354.512   9
   0   3  15 81.8091 226.724  14
   0   3  15 619.372 409.130  10
   0  -3  15 111.868 318.686   8
   0  -3  16 5861.20 706.001   9
   0  -3  16 5135.76 758.532   8
   0  -3  16 6575.64 769.938  17
   0   3  16 5003.63 608.989  14
   0  -3  17 57.1937 130.431   9
   0  -3  17 237.427 202.522   8
   0   3  17 170.579 151.213  14
   0  -4 -10 12854.8 2027.28  18
   0  -4  -9 5858.47 1318.50  18
   0  -4  -8 64485.1 4132.55  18
   0  -4  -7 6743.50 1194.49  18
   0  -4  -6 8012.88 1186.86  18
   0   4  -5 6006.06 706.708  19
   0  -4  -5 6539.14 1016.85  18
   0   4  -4 21908.0 1428.47  19
   0  -4  -4 24077.2 1796.28  18
   0   4  -3 9095.07 900.169  19
   0  -4  -3 9469.53 1005.00  18
   0   4  -2 23934.0 1473.46  19
   0  -4  -2 23031.8 1533.62  18
   0   4  -1 639.612 258.825  19
   0  -4  -1 425.947 228.339  18
   0   4   0 59802.2 2782.43  19
   0  -4   0 63294.3 2419.91  18
   0  -4   1 165.684 116.116  18
   0   4   1-33.6411 255.501  19
   0  -4   2 23770.6 1139.74  18
   0  -4   2 22585.1 1520.13   2
   0  -4   3 9143.62 1023.13   2
   0  -4   3 10032.7 1016.34   1
   0  -4   4 19891.5 1691.05   2
   0   4   4 22174.5 1201.40   2
   0  -4   4 20557.7 1936.22  12
   0  -4   4 21368.1 1583.02   1
   0  -4   5 7147.89 885.703   1
   0   4   5 7258.10 685.724   2
   0  -4   5 6473.59 1170.40  12
   0  -4   5 6773.71 1075.40   2
   0  -4   6 7467.92 926.231   1
   0  -4   6 6816.54 1287.57  12
   0  -4   6 6374.95 1073.10   2
   0  -4   7 5638.26 1266.63  12
   0  -4   7 5558.22 1056.31   2
   0  -4   8 49332.4 3633.08   2
   0  -4   8 48377.9 4099.07  12
   0  -4   9 3060.37 957.447  12
   0   4   9 5361.29 1400.93  12
   0  -4   9 4866.43 1198.97   2
   0  -4  10 9223.30 1985.93  12
   0   4  10 8164.08 1843.18  12
   0  -4  10 9172.35 1719.95   2
   0   4  11 2953.45 699.835  10
   0   4  11 3117.50 576.013   9
   0  -4  11 2700.45 568.833  17
   0   4  11 2652.41 551.128  14
   0  -4  11 2870.26 589.857  15
   0  -4  11 2649.52 477.443  13
   0  -4  11 1867.35 1089.71  12
   0  -4  11 2403.39 499.664   6
   0   4  11 739.266 757.997  12
   0   4  12 5439.86 952.861  10
   0   4  12 5784.65 798.249   9
   0  -4  12 5827.34 884.570  15
   0  -4  12 5746.92 856.849  17
   0   4  12 5760.41 807.452  14
   0  -4  12 5382.95 705.387  13
   0  -4  12 5916.89 775.370   6
   0   4  13 2215.78 666.904  10
   0   4  13 1750.99 474.485  14
   0  -4  13 1739.64 474.552  17
   0  -4  13 2070.39 691.985  15
   0   4  13 1821.33 457.759   9
   0   4  14 3218.62 692.763  10
   0   4  14 3276.79 573.323   9
   0  -4  14 3021.68 578.514  17
   0  -4  14 4151.59 934.021  15
   0   4  14 3624.85 627.919  14
   0  -4  14 2958.56 597.549   9
   0  -4  14 3113.15 751.807   8
   0  -4  15 1044.08 877.498  15
   0  -4  15 87.1893 219.399   9
   0  -4  15 421.911 279.367  17
   0  -4  15 441.965 294.460   8
   0   4  15 258.129 203.368  14
   0   4  15 450.614 398.214  10
   0  -4  16 2994.99 603.474   8
   0  -4  16 3630.11 564.895   9
   0  -4  16 3916.34 566.059  17
   0   4  16 3788.47 514.099  14
   0  -4  17 1378.05 269.440   9
   0  -4  17 1059.48 314.472   8
   0   4  17 1200.77 244.097  14
   0  -5 -11 5620.09 1423.22  18
   0  -5 -10 14997.4 2267.78  18
   0  -5  -9 2333.67 760.241  18
   0  -5  -8 4067.55 1016.52  18
   0  -5  -7 16181.3 1965.75  18
   0  -5  -6 19523.7 1990.68  18
   0   5  -5 10136.5 961.059  19
   0  -5  -5 13387.9 1530.01  18
   0  -5  -4 22957.3 1877.54  18
   0   5  -4 22911.3 1519.68  19
   0   5  -3 18818.5 1416.63  19
   0  -5  -3 19762.1 1617.02  18
   0  -5  -2 21991.3 1618.70  18
   0   5  -2 22763.5 1595.64  19
   0   5  -1 10790.6 1116.58  19
   0  -5  -1 10507.2 1023.79  18
   0   5   0 4432.29 741.498  19
   0  -5   0 4196.24 606.035  18
   0   5   1 11215.7 1220.38  19
   0  -5   1 11368.3 935.311  18
   0  -5   2 23809.6 1311.51  18
   0  -5   2 21294.5 1620.43   2
   0  -5   3 17420.4 1539.58   2
   0  -5   3 18204.0 1562.96   1
   0  -5   4 22085.0 1880.46   2
   0   5   4 21640.4 1212.74   2
   0  -5   4 24977.4 1851.91   1
   0  -5   5 11789.1 1310.38   1
   0  -5   5 10883.5 1376.06   2
   0  -5   6 19504.2 1702.76   1
   0  -5   6 18207.3 1939.70   2
   0  -5   6 17477.0 2174.42  12
   0  -5   7 14167.4 1787.84   2
   0  -5   7 13060.3 2021.92  12
   0  -5   8 4055.75 1195.10  12
   0  -5   8 2882.08 849.130   2
   0  -5   9 1374.52 866.186  12
   0   5   9 2175.91 956.556  12
   0  -5   9 2096.07 807.691   2
   0  -5  10 16113.9 1246.68  15
   0  -5  10 14961.7 1312.90  17
   0  -5  10 11157.2 2006.84   2
   0   5  10 16772.3 1291.98  14
   0  -5  10 14703.6 1074.78  13
   0  -5  10 15734.6 1231.28   6
   0  -5  10 12145.6 2308.15  12
   0   5  10 11578.9 2248.36  12
   0   5  11 5209.84 712.801   9
   0  -5  11 4733.48 773.380  17
   0  -5  11 5643.34 796.936  15
   0   5  11 5449.99 753.921  14
   0  -5  11 5626.73 710.685  13
   0  -5  11 5237.23 743.458   6
   0   5  11 4043.56 1340.04  12
   0   5  12 15073.4 1606.14  10
   0   5  12 13934.7 1201.47   9
   0  -5  12 11985.8 1391.00   8
   0  -5  12 12516.7 1287.58  15
   0  -5  12 12554.2 1294.26  17
   0  -5  12 12088.5 1071.78  13
   0   5  12 13504.9 1253.85  14
   0  -5  12 11690.9 1146.95   6
   0   5  13 40.8704 350.285  10
   0  -5  13 431.547 424.505   8
   0   5  13 62.9793 226.933   9
   0  -5  13 89.6200 518.847  15
   0  -5  13 424.229 376.221  17
   0   5  13-87.9186 285.051  14
   0  -5  13 281.545 243.206   6
   0   5  14 5969.92 976.220  10
   0  -5  14 5934.80 818.233   9
   0  -5  14 6256.26 867.247  17
   0  -5  14 6029.73 1142.55  15
   0   5  14 6121.63 782.175  14
   0  -5  14 5552.19 910.648   8
   0   5  15 391.928 313.930  10
   0  -5  15 577.030 934.694  15
   0  -5  15 309.475 181.615   9
   0  -5  15 27.2160 215.334  17
   0   5  15 331.597 229.352  14
   0  -5  15 856.965 437.045   8
   0  -5  16 1429.08 328.511   9
   0  -5  16 1077.97 360.540   8
   0  -5  16 1662.48 388.027  17
   0   5  16 1321.51 282.827  14
   0  -5  17 1652.72 270.140   9
   0   5  17 1736.81 263.070  14
   0  -6 -10 10693.9 2011.58  18
   0  -6  -9 5578.70 1387.54  18
   0  -6  -8 12829.6 1931.74  18
   0  -6  -7 8611.23 1467.91  18
   0  -6  -6 524.286 388.960  18
   0  -6  -5 4559.79 962.292  18
   0   6  -4 23238.7 1650.61  19
   0  -6  -4 24224.1 2061.79  18
   0   6  -3 8497.72 1018.94  19
   0  -6  -3 9107.77 1166.12  18
   0   6  -2 110137. 4404.66  19
   0  -6  -2 111907. 4533.39  18
   0   6  -1 8414.07 1139.68  19
   0  -6  -1 8854.75 1032.19  18
   0  -6   0 53217.7 2641.00  18
   0   6   0 52960.0 3089.91  19
   0  -6   1 8260.03 919.554  18
   0  -6   2 116628. 4045.01  18
   0  -6   3 9039.54 1193.51   1
   0  -6   4 23544.6 2067.93   2
   0  -6   4 25439.1 2085.34   1
   0  -6   5 4502.79 889.918   1
   0  -6   5 4090.67 906.135   2
   0  -6   6-210.518 356.753   1
   0  -6   6-170.097 220.578   2
   0  -6   7 5674.76 1168.92   2
   0  -6   8 10031.8 1740.34   2
   0   6   9 3198.99 1033.14  12
   0  -6  10 10053.2 1107.97  17
   0  -6  10 11562.2 1071.18  15
   0   6  10 9858.90 990.355  14
   0  -6  10 10179.7 905.602  13
   0  -6  10 10444.9 1026.17   6
   0   6  10 8297.94 1915.14  12
   0  -6  10 9354.48 1212.00   8
   0  -6  11 5190.79 907.361   8
   0  -6  11 6015.08 920.184  17
   0  -6  11 6284.77 909.914  15
   0   6  11 5996.57 820.220  14
   0  -6  11 5536.95 679.110  13
   0  -6  11 5648.91 768.626   6
   0   6  12 17341.8 1740.31  10
   0  -6  12 16527.8 1483.61  17
   0  -6  12 16168.9 1411.67  15
   0  -6  12 15954.7 1184.32  13
   0  -6  12 16808.1 1346.25   6
   0   6  12 16710.0 1389.73  14
   0  -6  12 14633.8 1543.60   8
   0  -6  13 1792.58 489.665  17
   0   6  13 2111.29 633.780  10
   0  -6  13 1341.25 393.587   8
   0  -6  13 1508.12 731.953  15
   0   6  13 2028.17 492.259  14
   0  -6  13 2023.34 464.011   6
   0  -6  14 1480.62 430.625  17
   0   6  14 1211.01 449.464  10
   0  -6  14 1032.01 364.168   9
   0  -6  14 1123.82 901.050  15
   0   6  14 1785.11 463.742  14
   0  -6  14 532.146 362.671   8
   0   6  15-750.355 381.311  10
   0   6  15-164.323 200.915  14
   0  -6  15-24.2721 196.737   9
   0  -6  15 192.460 356.199   8
   0  -6  15-140.300 208.523  17
   0  -6  15 73.9594 900.874  15
   0  -6  16 1354.66 297.495   9
   0   6  16 1247.40 286.017  14
   0  -6  16 628.808 250.486  17
   0   6  17 1920.48 255.903  14
   0  -7 -10 5118.85 1437.43  18
   0  -7  -9 5003.83 1474.19  18
   0  -7  -8 2034.61 889.048  18
   0  -7  -7 3982.80 1052.64  18
   0  -7  -6 6403.14 1302.48  18
   0  -7  -5 15506.6 1841.24  18
   0   7  -4 10455.4 1158.81  19
   0  -7  -4 13326.4 1628.85  18
   0   7  -3 17388.7 1562.19  19
   0  -7  -3 18965.5 1829.45  18
   0   7  -2 35039.4 2429.69  19
   0  -7  -2 33567.7 2392.11  18
   0   7  -1 28416.4 2142.92  19
   0  -7  -1 28114.4 2071.27  18
   0  -7   0 11588.2 1229.56  18
   0  -7   1 28770.5 1963.28  18
   0  -7   2 39259.2 2196.30  18
   0  -7   2 38268.1 2772.98   1
   0  -7   3 17775.3 1863.85   1
   0  -7   4 14170.0 1675.94   1
   0  -7   5 16226.7 1837.10   1
   0  -7   6 4968.82 1013.67   1
   0  -7   9 3999.62 700.114  17
   0  -7   9 4530.54 674.109  15
   0   7   9 4860.17 669.806  14
   0   7   9 2789.51 1143.98  12
   0  -7   9 3601.99 540.328   6
   0  -7  10 4473.84 840.330   8
   0  -7  10 5154.62 796.895  15
   0   7  10 5509.87 752.580  14
   0  -7  10 5487.29 849.515  17
   0  -7  10 3953.26 537.102  13
   0   7  10 3584.49 1226.84  12
   0  -7  10 5138.58 740.032   6
   0  -7  11 886.936 284.758   8
   0  -7  11 2027.18 560.557  17
   0  -7  11 2194.93 590.277  15
   0   7  11 1802.51 461.001  14
   0  -7  11 1574.96 383.882  13
   0  -7  11 1813.35 449.310   6
   0   7  12 3649.63 788.348  10
   0  -7  12 1693.38 599.019  15
   0   7  12 2918.84 547.883  14
   0  -7  12 3552.94 792.768   8
   0  -7  12 2937.50 518.796  13
   0  -7  12 3047.35 638.529  17
   0  -7  12 2470.94 504.751   6
   0   7  13 10018.1 1226.24  10
   0  -7  13 6809.53 960.419   8
   0  -7  13 10308.6 1099.23  17
   0  -7  13 8010.26 1192.74  15
   0   7  13 9812.70 988.970  14
   0  -7  13 8779.11 927.008   6
   0  -7  14 1081.14 348.062  17
   0   7  14 1265.44 493.776  10
   0  -7  14 855.955 301.747   9
   0  -7  14 870.789 432.069   8
   0  -7  14 662.612 1005.06  15
   0   7  14 771.826 268.542  14
   0   7  15 1268.72 404.387  10
   0  -7  15 1052.53 278.275   9
   0  -7  15 997.704 762.008  15
   0   7  15 1071.68 297.818  14
   0  -7  15 951.895 305.239  17
   0  -7  16 102.413 149.759  17
   0   7  16 216.267 129.472  14
   0  -8  -9 13422.8 2372.26  18
   0  -8  -9 10117.7 986.873   7
   0  -8  -8 5643.04 1503.27  18
   0  -8  -7 8223.21 1611.39  18
   0  -8  -6 5669.40 1296.04  18
   0  -8  -5 8909.75 1518.44  18
   0  -8  -4 8703.43 1424.38  18
   0  -8  -3 25682.3 2362.78  18
   0   8  -3 27899.3 2158.10  19
   0  -8  -2 887.039 466.439  18
   0  -8  -1 4072.09 862.660  18
   0  -8   0 9047.94 1215.64  18
   0  -8   1 5840.38 934.810  18
   0  -8   2 938.506 530.035   1
   0  -8   3 29421.1 2648.67   1
   0  -8   4 9441.50 1509.38   1
   0  -8   5 10716.7 1613.97   1
   0  -8   6 5444.21 1146.57   1
   0  -8   8 5696.00 729.309  15
   0  -8   8 5914.22 860.578  17
   0  -8   9 10315.7 1269.62   8
   0  -8   9 10699.9 1194.77  17
   0  -8   9 12136.6 1100.91  15
   0   8   9 11153.5 1030.85  14
   0  -8   9 10985.4 1068.87   6
   0  -8  10 2045.88 591.807   8
   0  -8  10 3544.15 669.566  15
   0   8  10 4206.85 671.555  14
   0  -8  10 3518.84 686.745  17
   0  -8  10 4022.93 660.942   6
   0  -8  11 7243.33 1036.42   8
   0  -8  11 7837.26 1002.41  17
   0  -8  11 7808.42 1038.55  15
   0   8  11 9301.93 975.165  14
   0  -8  11 7281.47 750.222  13
   0  -8  11 8540.69 944.532   6
   0   8  12 2950.39 703.708  10
   0  -8  12 3654.60 764.019   8
   0  -8  12 2707.91 588.560  17
   0  -8  12 3414.85 921.519  15
   0   8  12 3655.26 589.713  14
   0  -8  12 3023.35 515.009   6
   0   8  13 7712.86 1017.56  10
   0  -8  13 4577.05 667.751   9
   0  -8  13 7110.47 899.051  17
   0  -8  13 5850.06 1181.46  15
   0   8  13 6930.92 779.295  14
   0  -8  13 7037.09 765.184   6
   0   8  14 1026.43 304.961  10
   0  -8  14 792.208 287.280  17
   0   8  14 1109.50 317.168  14
   0  -8  14 457.319 922.543  15
   0  -8  14 899.255 262.931   9
   0   8  15 1025.94 322.069  10
   0  -8  15 1458.32 668.521  15
   0   8  15 1100.86 264.087  14
   0  -8  15 982.838 304.768  17
   0  -8  16 206.286 140.943  17
   0   8  16 391.479 133.066  14
   0  -9 -10 2783.42 558.753   7
   0  -9  -9 7859.36 918.470   7
   0  -9  -8 3223.15 1208.61  18
   0  -9  -8 3968.18 644.693   7
   0  -9  -7 4210.68 1235.74  18
   0  -9  -7 5269.81 722.370   7
   0  -9  -6 5562.17 1357.49  18
   0  -9  -5 8612.62 1622.32  18
   0  -9  -4 4258.06 1033.60  18
   0  -9  -3 13272.5 1790.45  18
   0  -9  -2 7953.60 1357.16  18
   0  -9  -1 20915.2 2124.30  18
   0  -9   0 4103.64 905.452  18
   0  -9   1 21229.2 2355.07   1
   0  -9   2 7103.43 1329.90   1
   0  -9   3 15839.2 2078.71   1
   0  -9   4 4469.45 1146.50   1
   0  -9   5 8559.59 1569.18   1
   0  -9   7 4193.66 777.628  17
   0  -9   8 3405.66 669.345  17
   0  -9   8 4098.85 580.157  15
   0  -9   8 3396.54 586.486   6
   0  -9   9 6999.73 806.886  15
   0   9   9 8239.58 869.788  14
   0  -9   9 6960.23 989.235  17
   0  -9   9 7186.92 853.583   6
   0  -9  10 1793.65 520.997  17
   0  -9  10 1703.33 553.003  15
   0   9  10 2264.95 439.332  14
   0  -9  10 2155.21 525.739   6
   0  -9  11 7574.39 976.447  17
   0  -9  11 5920.56 948.501  15
   0   9  11 8253.14 863.528  14
   0  -9  11 6020.68 763.175   6
   0   9  12 3733.45 693.439  10
   0   9  12 3215.51 546.674  14
   0  -9  12 2291.87 896.600  15
   0  -9  12 3247.74 627.554  17
   0  -9  12 3047.71 515.856   6
   0   9  13 1912.10 439.011  10
   0  -9  13 1415.76 415.521  17
   0  -9  13 2259.77 1024.01  15
   0   9  13 1913.53 374.956  14
   0  -9  13 1017.32 278.728   6
   0  -9  14 1758.78 388.359  17
   0   9  14 1891.93 424.307  10
   0  -9  14 1546.72 799.547  15
   0   9  14 2029.86 362.215  14
   0  -9  15 1439.51 303.699  17
   0   9  15 1144.17 219.228  14
   0 -10 -11 1229.94 347.809   7
   0 -10 -10 11328.8 1128.30   7
   0 -10  -9 7218.69 908.657   7
   0 -10  -8 8767.41 989.608   7
   0 -10  -7 10457.0 1075.30   7
   0 -10  -7 7901.31 1763.87  18
   0 -10  -6 6495.06 1545.55  18
   0 -10  -6 7868.77 892.222   7
   0 -10  -5 9561.57 1830.63  18
   0 -10  -5 9840.71 985.272   7
   0 -10  -4 3358.78 946.720  18
   0 -10  -3 2843.43 913.776  18
   0 -10  -2 6115.37 1292.27  18
   0 -10  -1 8191.90 1443.34  18
   0 -10   0 326.284 372.998   1
   0 -10   1 9306.08 1660.61   1
   0 -10   2 6318.40 1405.14   1
   0 -10   3 2457.28 966.450   1
   0 -10   4 4364.55 1178.90   1
   0 -10   5 9362.75 1762.91   1
   0 -10   6 7731.76 1020.71  17
   0 -10   6 6545.91 721.170  16
   0 -10   7 10731.5 1247.85  17
   0 -10   7 9466.79 900.892  15
   0 -10   7 11567.4 1080.10   6
   0 -10   8 7115.21 987.013  17
   0 -10   8 8252.68 891.319  15
   0 -10   8 7380.25 855.064   6
   0 -10   9 5639.99 778.027  15
   0 -10   9 6046.76 919.058  17
   0 -10   9 6267.83 817.319   6
   0 -10  10 8559.02 1043.49  17
   0 -10  10 8338.27 1045.18  15
   0 -10  10 8658.42 916.011   6
   0 -10  11 1017.13 396.448  17
   0 -10  11 926.281 818.180  15
   0  10  11 1857.70 371.142  14
   0 -10  11 1314.24 369.053   6
   0  10  12 2955.68 566.895  10
   0 -10  12 2825.01 560.567  17
   0 -10  12 2678.63 968.523  15
   0  10  12 2323.92 374.013  14
   0 -10  12 2063.50 405.042   6
   0  10  13 3793.24 581.067  10
   0 -10  13 3028.43 530.712  17
   0 -10  13 3420.03 867.486  15
   0  10  13 3698.45 455.762  14
   0  10  14 643.651 253.333  10
   0 -10  14 49.6736 173.310  17
   0  10  14 538.233 165.599  14
   0 -10  15 1826.36 286.027  17
   0 -11 -11 3899.12 597.763   7
   0 -11 -10 2491.82 503.701   7
   0 -11  -9 16967.5 1462.58   7
   0 -11  -8 450.051 348.176   7
   0 -11  -7 14489.2 1348.55   7
   0 -11  -6 10523.5 1104.46   7
   0 -11  -5 15771.0 2486.60  18
   0 -11  -5 14356.0 2210.06   1
   0 -11  -5 15944.7 1345.44   7
   0 -11  -4 543.627 476.483  18
   0 -11  -4 809.413 576.618   1
   0 -11  -4 24.2895 166.525   7
   0 -11  -3 10856.7 1909.22  18
   0 -11  -3 10927.9 1952.56   1
   0 -11  -3 11105.9 1041.35   7
   0 -11  -2 5546.45 1303.40  18
   0 -11  -2 3686.84 1148.46   1
   0 -11  -1 14231.2 2218.86   1
   0 -11   0 1160.05 617.225   1
   0 -11   1 15456.4 2319.21   1
   0 -11   2 5410.07 664.617  16
   0 -11   2 3670.53 1120.44   1
   0 -11   3 9685.50 896.096  16
   0 -11   3 8889.95 1749.83   1
   0 -11   4 419.137 219.641  16
   0 -11   4 472.069 331.160   1
   0 -11   5 17402.0 2589.92   1
   0 -11   5 14534.1 1141.13  16
   0 -11   5 14426.5 1261.70   6
   0 -11   6 7803.77 1056.51  17
   0 -11   6 7960.41 827.676  16
   0 -11   6 7802.04 921.015   6
   0 -11   7 12103.6 1327.09  17
   0 -11   7 11769.8 992.961  16
   0 -11   7 11817.8 1089.13   6
   0 -11   8 89.6029 265.286  17
   0 -11   8 102.759 576.341  15
   0 -11   8 115.946 180.871   6
   0 -11   9 15255.2 1431.03  17
   0 -11   9 15304.4 1297.47  15
   0 -11   9 13352.1 1119.47   6
   0 -11  10 1847.16 501.736  17
   0 -11  10 2062.05 753.608  15
   0 -11  10 2355.61 463.943   6
   0  11  11 3734.49 644.358  10
   0 -11  11 2157.93 808.169  15
   0 -11  11 2253.96 497.016  17
   0 -11  11 2444.18 419.838   6
   0  11  12 1815.49 413.453  10
   0 -11  12 1487.36 408.876  17
   0 -11  12 1422.57 682.406  15
   0 -11  12 1202.73 285.745   6
   0  11  13 1303.80 294.158  10
   0 -11  13 963.890 264.627  17
   0 -11  14 1292.63 283.067  17
   0 -12 -11 5072.68 642.593   7
   0 -12 -10 2938.44 554.198   7
   0 -12  -9 6605.55 869.752   7
   0 -12  -8 1739.93 473.773   7
   0 -12  -7 3877.02 675.817   7
   0 -12  -6 4760.90 773.361   7
   0 -12  -5 13317.1 1269.58   7
   0 -12  -4 381.011 218.021  16
   0 -12  -4-8.35945 219.338   7
   0 -12  -3 2708.38 494.499  16
   0 -12  -3 2831.53 1021.00   1
   0 -12  -3 2610.34 533.276   7
   0 -12  -2 109.970 155.244  16
   0 -12  -2-321.987 594.824   1
   0 -12  -2 330.719 336.713   7
   0 -12  -1 22941.7 1577.06   7
   0 -12  -1 23440.0 1485.40  16
   0 -12  -1 22626.7 2995.63   1
   0 -12   0 3798.98 577.068  16
   0 -12   0 3244.73 1162.32   1
   0 -12   0 4163.54 642.815   7
   0 -12   1 25003.3 1557.78  16
   0 -12   1 27596.7 3252.77   1
   0 -12   2 196.804 155.651  16
   0 -12   2 494.732 377.606   1
   0 -12   3 2022.85 422.617  16
   0 -12   3 2839.89 1190.21   1
   0 -12   4 112.179 193.811   6
   0 -12   4 304.588 218.946  16
   0 -12   5 11049.0 1008.71  16
   0 -12   5 11138.1 1086.76   6
   0 -12   6 3583.79 742.596  17
   0 -12   6 3871.42 582.644  16
   0 -12   6 2894.09 538.775   6
   0 -12   7 2943.10 676.748  17
   0 -12   7 2408.10 454.169  16
   0 -12   7 3092.94 543.640   6
   0 -12   8 1335.26 421.919  17
   0 -12   8 1285.18 334.651   6
   0 -12   9 5110.83 790.627  17
   0 -12   9 4270.62 588.248   6
   0 -12  10 2474.08 544.601  17
   0 -12  10 2562.88 686.473  15
   0  12  11 4933.91 649.986  10
   0 -12  11 4131.50 629.648  17
   0 -12  12 709.481 256.536  17
   0 -12  13 2517.51 377.718  17
   0 -13 -11 3441.85 480.802   7
   0 -13 -10 432.072 197.725   7
   0 -13  -9 6403.40 824.532   7
   0 -13  -8 799.929 327.928   7
   0 -13  -7 12951.3 1238.94   7
   0 -13  -6 3593.07 664.178   7
   0 -13  -5 8412.54 1009.86   7
   0 -13  -4 163.357 216.400  16
   0 -13  -4-5.71339 250.447   7
   0 -13  -3 16531.0 1234.44  16
   0 -13  -3 16017.4 1355.62   7
   0 -13  -2 5440.80 701.310  16
   0 -13  -2 6188.02 827.695   7
   0 -13  -1 13356.2 1197.37   7
   0 -13  -1 12947.2 1125.13  16
   0 -13   0 1268.47 349.917  16
   0 -13   0 1405.21 369.930   7
   0 -13   1 12113.1 1078.77  16
   0 -13   2 5461.83 722.642  16
   0 -13   3 16132.7 1268.36  16
   0 -13   4 535.311 312.221   6
   0 -13   4 166.450 202.345  16
   0 -13   5 5551.83 929.840  17
   0 -13   5 5860.62 729.614  16
   0 -13   5 5296.17 709.986   6
   0 -13   6 2595.06 469.113  16
   0 -13   6 2973.64 677.419  17
   0 -13   6 1917.76 449.301   6
   0 -13   7 9434.96 1117.31  17
   0 -13   7 9122.06 858.517  16
   0 -13   8 569.336 372.642  17
   0 -13   9 4556.19 697.254  17
   0 -13  10 277.801 235.814  17
   0 -13  11 3120.73 503.552  17
   0 -13  12 58.0473 127.786  17
   0 -14 -11 2322.37 321.375   7
   0 -14 -10 300.223 159.552   7
   0 -14  -9 7193.70 804.753   7
   0 -14  -8 584.128 288.505   7
   0 -14  -7 2904.58 590.648   7
   0 -14  -6 808.104 366.576   7
   0 -14  -5 11516.9 1147.75   7
   0 -14  -4 2574.21 496.516  16
   0 -14  -4 1783.58 401.840   7
   0 -14  -3 3060.87 509.651  16
   0 -14  -3 3056.12 594.442   7
   0 -14  -2 5033.54 671.400  16
   0 -14  -2 4981.92 731.444   7
   0 -14  -1 12773.9 1161.41   7
   0 -14  -1 12130.6 1079.91  16
   0 -14   0 20.1619 196.906  16
   0 -14   0 57.5066 167.929   7
   0 -14   1 12140.3 1069.51  16
   0 -14   2 4184.72 621.876  16
   0 -14   3 2012.18 423.306  16
   0 -14   4 1634.41 414.696  16
   0 -14   5 9447.54 1148.47  17
   0 -14   5 9661.24 910.451  16
   0 -14   6 675.612 253.111  16
   0 -14   6 552.209 370.270  17
   0 -14   7 2333.97 554.118  17
   0 -14   7 2050.47 364.630  16
   0 -14   8 460.134 343.444  17
   0 -14   9 5239.43 709.700  17
   0 -14  10 380.397 207.172  17
   0 -14  11 2158.79 346.146  17
   0 -15 -10 125.496 104.797   7
   0 -15  -9 4341.83 562.734   7
   0 -15  -8 259.040 205.799   7
   0 -15  -7 4938.64 677.198   7
   0 -15  -6 671.520 322.059   7
   0 -15  -5 5124.33 723.045   7
   0 -15  -4 369.211 215.456  16
   0 -15  -4-29.1050 221.839   7
   0 -15  -3 5990.07 683.755  16
   0 -15  -3 4356.95 675.805   7
   0 -15  -2 1326.94 270.362  16
   0 -15  -2 1594.65 441.886   7
   0 -15  -1 11337.0 1048.64   7
   0 -15  -1 10417.8 962.765  16
   0 -15   0 328.151 219.511  16
   0 -15   0-252.731 220.532   7
   0 -15   1 10011.0 954.714  16
   0 -15   2 1397.37 375.774  16
   0 -15   3 4228.26 607.887  16
   0 -15   4 83.3773 269.370  17
   0 -15   4 202.493 201.498  16
   0 -15   5 4361.48 763.996  17
   0 -15   5 4080.09 548.760  16
   0 -15   6 784.411 384.340  17
   0 -15   6 779.425 266.929  16
   0 -15   7 4095.25 635.459  17
   0 -15   7 3980.73 478.693  16
   0 -15   8-2.50692 177.832  17
   0 -15   9 2508.29 414.200  17
   0 -15  10 212.682 144.432  17
   0 -16  -9 2462.20 312.345   7
   0 -16  -8 118.349 137.632   7
   0 -16  -7 3069.69 475.888   7
   0 -16  -6 163.779 178.682   7
   0 -16  -5 3948.68 595.966   7
   0 -16  -4 2039.49 335.190  16
   0 -16  -4 2167.13 438.389   7
   0 -16  -3 8328.00 741.128  16
   0 -16  -3 7091.82 778.119   7
   0 -16  -2 1398.19 299.104  16
   0 -16  -2 1269.21 312.654   7
   0 -16  -1 3917.63 548.142  16
   0 -16  -1 3725.46 567.825   7
   0 -16   0 107.616 192.637  16
   0 -16   1 3597.67 515.887  16
   0 -16   2 1700.14 399.955  16
   0 -16   3 6347.80 868.651  17
   0 -16   3 6825.23 715.757  16
   0 -16   4 1613.21 456.291  17
   0 -16   4 1688.71 356.100  16
   0 -16   5 2427.12 498.301  17
   0 -16   5 4014.69 502.215  16
   0 -16   6-14.4924 186.230  17
   0 -16   6 149.907 115.508  16
   0 -16   7 2548.16 447.317  17
   0 -16   8 12.9213 139.862  17
   0 -16   9 1477.50 254.532  17
   0 -17  -7 5818.89 489.316   7
   0 -17  -6 400.973 148.544   7
   0 -17  -5 3590.93 459.096   7
   0 -17  -4 295.236 180.939   7
   0 -17  -3 5669.62 594.763   7
   0 -17  -2 418.679 197.982  16
   0 -17  -2 282.187 132.429   7
   0 -17  -1 4577.28 502.865  16
   0 -17   0 1978.90 323.508  16
   0 -17   1 3979.40 482.325  16
   0 -17   2 3.99626 264.809  17
   0 -17   2 166.219 144.174  16
   0 -17   3 4334.46 596.569  17
   0 -17   3 5279.27 550.980  16
   0 -17   4 255.809 236.344  17
   0 -17   4 546.908 202.140  16
   0 -17   5 2622.47 412.171  17
   0 -17   6 819.816 232.999  17
   0 -17   7 3438.20 376.527  17
   0 -18  -1 3402.26 452.418  17
   0 -18   0 650.376 236.845  17
   0 -18   1 2718.33 392.465  17
   0 -18   2 675.959 202.699  17
   0 -18   3 4186.19 450.536  17
   0 -18   4 1867.23 276.891  17
   1   0  -9-127.898 357.425  18
   1   0   8 7193.21 1536.99  12
   1   0   9-209.609 395.829  12
   1   0  10 8937.58 2000.63  12
   1   0  11-554.777 510.975  10
   1   0  11-264.987 369.865  17
   1   0  11-282.515 255.431  14
   1   0  11 205.259 194.732  13
   1   0  11-242.504 495.865  12
   1   0  12 6893.38 1101.06  10
   1   0  12 6928.56 942.470  17
   1   0  12 7565.83 923.939  14
   1   0  12 6937.16 805.710  13
   1   0  13 358.831 353.468  10
   1   0  13 45.5839 294.294  17
   1   0  13-100.331 318.237  14
   1   0  14 208.052 289.330   9
   1   0  14 655.169 423.021  17
   1   0  14 466.808 260.665  14
   1   0  15-33.5252 231.301   9
   1   0  15-279.912 219.426  14
   1   0  16 227.283 218.230   9
   1   0  16-4.25931 167.936  14
   1   0  17 30.9052 108.313   9
   1  -1 -10 13846.3 1789.84  18
   1  -1  -9-222.210 616.727  18
   1  -1   6 40790.3 3170.04  12
   1  -1   7 10471.9 1727.00  12
   1  -1   8 23585.5 2861.62  12
   1  -1   9 3691.59 1332.51  12
   1   1   9 4693.72 1401.17  12
   1  -1  10 10578.5 2207.43  12
   1   1  10 11275.7 2249.14  12
   1  -1  11 280.853 336.809  10
   1   1  11 377.841 393.742  10
   1   1  11-142.052 312.895  17
   1  -1  11 214.134 293.008  17
   1  -1  11-683.053 778.800  15
   1   1  11 243.291 241.318  14
   1  -1  11 586.076 245.219  14
   1   1  11 405.017 191.891  13
   1  -1  11-187.953 270.215  13
   1   1  11-324.480 445.425  12
   1  -1  12 5997.62 996.734  10
   1   1  12 7215.79 1093.69  10
   1  -1  12 6906.88 835.713  14
   1   1  12 6449.50 909.502  17
   1  -1  12 6034.12 887.437  17
   1  -1  12 6474.24 1036.61  15
   1   1  12 7493.57 920.104  14
   1   1  12 6470.52 751.315  13
   1  -1  12 6554.87 772.752  13
   1   1  13 13.3687 294.177  10
   1   1  13 849.588 510.789  17
   1  -1  13 589.166 378.054  17
   1   1  13 362.483 227.784  14
   1  -1  13 565.584 260.596  14
   1  -1  13 90.9329 211.188  13
   1   1  14 4287.08 843.897  10
   1   1  14 4607.01 686.554  14
   1  -1  14 4499.73 658.590  14
   1   1  14 4560.38 732.841   9
   1  -1  14 4940.80 774.953  17
   1   1  15 1848.97 415.063   9
   1  -1  15 1190.93 317.502  14
   1   1  15 1902.43 427.351  14
   1  -1  15 1383.32 398.597   9
   1  -1  16 1849.16 407.810   8
   1   1  16 1788.29 362.122   9
   1  -1  16 1683.52 355.280   9
   1  -1  16 1573.72 293.228  14
   1   1  16 1942.07 367.744  14
   1  -1  17 156.906 124.034   9
   1   1  17 256.224 175.112   8
   1   1  17 4.74833 95.8127  14
   1  -2 -10 7178.01 1373.70  18
   1  -2  -9 699.405 444.705  18
   1  -2   3 360.463 290.970  12
   1  -2   4 16101.8 715.300   1
   1  -2   4 34987.8 2280.41  12
   1  -2   5 1471.10 572.947  12
   1  -2   6 61986.4 3984.40  12
   1  -2   7 229.364 318.435  12
   1  -2   8 2641.95 897.944  12
   1  -2   9 1647.59 874.360  12
   1   2   9 3036.05 1170.20  12
   1   2  10 9111.43 997.547  17
   1  -2  10 9295.98 1008.98  17
   1   2  10 11053.1 1045.77  14
   1  -2  10 8879.53 855.855  13
   1  -2  10 6186.78 1515.96  12
   1   2  10 7015.54 1878.01  12
   1  -2  11 863.240 457.562  10
   1   2  11 613.073 307.104  10
   1   2  11 766.579 387.867  17
   1  -2  11 933.160 400.543  17
   1  -2  11-20.5661 775.267  15
   1   2  11 466.307 272.233  14
   1  -2  11 675.258 295.275  14
   1   2  11 427.811 290.063  13
   1  -2  11 550.365 290.961  13
   1  -2  11 1636.98 933.745  12
   1   2  11-671.287 684.718  12
   1   2  12 14420.2 1604.26  10
   1   2  12 15037.9 1403.53  17
   1   2  12 15167.1 1356.58  14
   1  -2  12 11114.4 1409.49  15
   1  -2  12 15031.2 1262.12  14
   1  -2  12 15562.3 1442.63  17
   1  -2  12 14387.1 1197.78  13
   1   2  13 1151.56 534.754  10
   1  -2  13 920.385 397.287  17
   1  -2  13-469.068 784.014  15
   1   2  13 1014.79 349.048  14
   1  -2  13 1202.18 365.619  14
   1  -2  13 977.850 352.139  13
   1   2  13 973.697 408.055   9
   1   2  14 8232.13 1153.12  10
   1   2  14 7200.73 867.021   9
   1  -2  14 9147.68 1052.98  17
   1  -2  14 7732.38 810.040  14
   1   2  14 8966.50 954.190  14
   1   2  15 713.299 284.919   9
   1  -2  15 358.424 293.415   9
   1  -2  15 1277.60 496.177  17
   1  -2  15 679.493 214.224  14
   1   2  15 663.393 283.509  14
   1   2  16 5029.25 535.408   9
   1  -2  16 4515.11 589.600   9
   1  -2  16 4727.66 601.270   8
   1   2  16 4829.40 562.348  14
   1  -2  17 99.0748 103.308   9
   1   2  17 257.696 129.968  14
   1  -3 -11 947.516 537.454  18
   1  -3 -10 20695.7 2498.24  18
   1  -3  -9 2994.56 938.969  18
   1  -3  -8 16270.9 2001.77  18
   1  -3   1 25833.2 1290.94  12
   1  -3   2 20430.8 1357.84  12
   1  -3   3 250.481 262.948  12
   1  -3   4 2172.79 586.527  12
   1  -3   5 14003.6 1629.18  12
   1  -3   6 7330.40 1392.88  12
   1  -3   7 4028.20 1101.38  12
   1  -3   8 14426.7 2223.66  12
   1  -3   9 3876.35 1267.63  12
   1   3  10 16239.9 1384.06  17
   1  -3  10 16668.4 1419.45  17
   1  -3  10 17263.5 1608.26  15
   1   3  10 17804.7 1402.16  14
   1  -3  10 17888.7 1236.27  13
   1  -3  10 11638.0 2346.47  12
   1   3  10 12737.1 2547.30  12
   1  -3  11 1040.98 479.370  17
   1  -3  11 1698.72 934.024  15
   1   3  11 1103.63 393.449  14
   1  -3  11 618.551 278.019  14
   1  -3  11 1201.11 376.335  13
   1  -3  11 1377.93 946.572  12
   1   3  11 1836.91 999.293  12
   1   3  12 8921.89 1250.03  10
   1   3  12 8543.89 963.853   9
   1  -3  12 9710.21 1154.38  17
   1  -3  12 7096.98 1314.09  15
   1   3  12 9397.41 1051.99  14
   1  -3  12 8782.33 928.362  14
   1  -3  12 8870.85 915.338  13
   1   3  13 1933.26 628.477  10
   1   3  13 1698.87 411.687   9
   1  -3  13 2335.03 566.069  17
   1  -3  13 3311.67 1170.88  15
   1   3  13 2384.71 548.873  14
   1  -3  13 2394.50 519.675  14
   1  -3  13 2348.37 480.877  13
   1  -3  14 2600.61 481.285  14
   1   3  14 3326.66 707.794  10
   1   3  14 3551.31 595.846   9
   1  -3  14 3739.36 700.123  17
   1   3  14 4364.75 664.627  14
   1   3  15 49.5564 245.099  10
   1   3  15-28.5265 174.513   9
   1  -3  15 170.048 198.455   9
   1  -3  15-516.305 319.268   8
   1  -3  15-71.8690 266.215  17
   1   3  15-230.983 248.564  14
   1  -3  16 4447.54 576.858   9
   1   3  16 5177.98 561.137  14
   1  -3  17 857.200 209.549   9
   1   3  17 690.968 172.363  14
   1  -4 -11 2793.59 993.144  18
   1  -4 -10 7757.81 1526.21  18
   1  -4  -9 1202.42 641.537  18
   1  -4  -8 23557.7 2554.64  18
   1  -4   2 5409.49 731.339  12
   1  -4   3 7024.58 966.950  12
   1  -4   4 75563.0 3845.51  12
   1  -4   5 17898.9 1961.54  12
   1  -4   6 10007.6 1586.13  12
   1  -4   7 2088.69 842.882  12
   1  -4   8 6273.92 1621.37  12
   1  -4   9 1937.01 879.099  12
   1  -4  10 4741.97 899.225  15
   1  -4  10 5050.07 781.785  17
   1   4  10 5802.63 785.104  14
   1  -4  10 5316.92 658.536  13
   1  -4  10 3952.29 1391.62  12
   1   4  10 2165.06 1128.07  12
   1  -4  11 1127.15 382.157  17
   1  -4  11 1220.01 882.825  15
   1   4  11 1190.75 390.865  14
   1  -4  11 812.929 295.984  13
   1   4  12 2226.29 696.256  10
   1   4  12 1797.03 419.835   9
   1  -4  12 1616.84 1079.65  15
   1  -4  12 2075.37 535.596  17
   1   4  12 2328.35 579.385  14
   1  -4  12 2461.28 547.033  13
   1   4  13 6971.06 1103.60  10
   1   4  13 6597.40 772.798   9
   1  -4  13 5143.40 1183.56  15
   1   4  13 6697.04 856.763  14
   1  -4  13 6265.97 771.162  13
   1  -4  13 6125.16 882.913  17
   1   4  14 14078.1 1463.13  10
   1   4  14 13632.3 1057.03   9
   1  -4  14 13704.5 1283.64   8
   1  -4  14 14758.8 1296.19  17
   1   4  14 14978.9 1240.65  14
   1   4  15 3087.29 602.036  10
   1  -4  15 2824.65 516.791   9
   1  -4  15 3181.06 551.662  17
   1   4  15 3110.42 513.934  14
   1  -4  16 1864.19 380.469   9
   1   4  16 2076.83 345.977  14
   1  -4  17-35.1913 84.2156   9
   1   4  17 171.053 99.0420  14
   1  -5 -11 3948.00 1248.76  18
   1  -5 -10 17633.4 2502.08  18
   1  -5  -9 8706.77 1627.26  18
   1  -5  -8 4983.38 1175.39  18
   1  -5  -7 10653.0 1652.63  18
   1  -5   4 1917.31 602.850  12
   1  -5   5 10435.6 1534.24  12
   1  -5   6 20718.4 2334.52  12
   1  -5   7 1321.24 652.330  12
   1  -5   8 15244.8 2322.79  12
   1   5   9 1556.41 371.617   5
   1  -5   9 1768.25 676.867  15
   1  -5   9 2077.81 525.142  17
   1  -5   9 1549.03 339.512  13
   1  -5   9 3362.44 1239.91  12
   1  -5  10 23138.7 1754.35  17
   1  -5  10 20715.3 1615.25  15
   1   5  10 24628.8 1680.74  14
   1  -5  10 24782.4 1515.93  13
   1  -5  11 2977.79 662.577  17
   1  -5  11 1696.36 1058.83  15
   1   5  11 3594.72 663.305  14
   1  -5  11 2992.58 542.680  13
   1  -5  12 2600.07 620.096  17
   1   5  12 2723.45 757.453  10
   1  -5  12 1741.99 1087.36  15
   1   5  12 2487.84 547.205  14
   1  -5  12 2736.16 532.603  13
   1   5  13 1465.67 535.366  10
   1  -5  13 1586.34 482.185  17
   1  -5  13 1458.57 1084.85  15
   1   5  13 1556.24 451.627  14
   1  -5  13 1940.58 473.358  13
   1   5  14 6144.09 976.930  10
   1  -5  14 6864.61 863.468  17
   1   5  14 5812.64 767.004  14
   1   5  15 1134.93 401.725  10
   1  -5  15 549.340 228.363   9
   1   5  15 1011.72 297.239  14
   1  -5  15 1753.39 429.694  17
   1  -5  16 3845.55 489.800  17
   1   5  16 3047.15 392.417  14
   1  -6 -10 10353.0 1985.24  18
   1  -6  -9 100.777 297.700  18
   1  -6  -8 12252.0 1945.13  18
   1  -6  -7 3205.90 960.639  18
   1  -6  -6 50247.3 3657.10  18
   1  -6  -5 14716.3 1799.34  18
   1  -6   1 27902.3 1801.66  18
   1  -6   6 9820.68 1697.18  12
   1  -6   7 3410.52 1066.95  12
   1  -6   8 15051.5 2369.84  12
   1  -6   9 6026.35 860.947  17
   1  -6   9 6079.09 952.499  15
   1   6   9 7147.97 838.630  14
   1  -6   9 6914.35 745.864  13
   1  -6   9 5306.80 1402.85  12
   1  -6  10 6519.72 909.747  17
   1  -6  10 4818.66 1038.79  15
   1   6  10 7771.93 908.408  14
   1  -6  10 7491.37 806.106  13
   1  -6  11 346.080 306.073  17
   1  -6  11 812.238 1053.14  15
   1   6  11 371.458 277.667  14
   1  -6  11 615.695 310.684  13
   1  -6  12 1229.76 427.741  17
   1  -6  12 92.6576 1079.80  15
   1   6  12 1606.22 469.136  14
   1  -6  12 1461.94 385.480  13
   1   6  13 4968.69 886.449  10
   1  -6  13 4805.62 758.159  17
   1  -6  13 4814.61 1136.07  15
   1   6  13 4931.14 697.457  14
   1  -6  13 5365.07 663.561  13
   1   6  14 305.705 310.137  10
   1  -6  14-133.266 303.393  17
   1   6  14 135.199 193.010  14
   1   6  15 2653.36 548.573  10
   1  -6  15 1626.01 372.201   9
   1  -6  15 2364.74 452.906  17
   1   6  15 2125.21 378.804  14
   1  -6  16 94.2578 113.638   9
   1   6  16 139.224 115.104  14
   1  -7 -10 2159.48 995.474  18
   1  -7  -9 5403.70 1451.09  18
   1  -7  -8 4117.75 1158.59  18
   1  -7  -7 8865.34 1618.40  18
   1  -7  -6 10870.5 1716.78  18
   1  -7  -5 54791.8 3762.93  18
   1  -7  -4 7596.99 1293.73  18
   1  -7  -3 24558.9 2219.77  18
   1  -7  -2 38618.5 2657.78  18
   1  -7  -1 15439.3 1536.81  18
   1  -7   0 29452.3 1956.86  18
   1  -7   1 16306.1 1357.94  18
   1  -7   8 11771.6 1230.33  17
   1  -7   8 11506.6 1129.03  15
   1  -7   8 12992.3 1023.59  13
   1  -7   9 22228.2 1746.05  17
   1  -7   9 19463.2 1626.91  15
   1  -7   9 23275.9 1450.85  13
   1   7   9 23556.2 1566.30  14
   1  -7  10 5876.53 911.576  17
   1  -7  10 4996.74 1066.88  15
   1   7  10 6479.08 849.421  14
   1  -7  10 6417.29 770.321  13
   1  -7  11 3477.71 704.484  17
   1  -7  11 3303.12 1188.03  15
   1   7  11 3217.27 593.934  14
   1  -7  11 3588.67 581.048  13
   1  -7  12 81.5745 275.426  17
   1  -7  12 623.720 1023.85  15
   1   7  12 107.059 195.511  14
   1  -7  12-57.7538 258.932  13
   1   7  13 106.854 294.973  10
   1  -7  13 312.550 285.019  17
   1   7  13 289.360 265.436  14
   1  -7  13 351.322 231.782  13
   1  -7  14 1257.14 343.457  17
   1   7  14 1040.89 362.385  10
   1   7  14 1243.36 313.511  14
   1   7  15 439.616 285.418  10
   1  -7  15 265.804 155.918   9
   1  -7  15 47.6427 184.887  17
   1   7  15 405.487 175.167  14
   1  -7  16 653.222 182.513  17
   1  -8  -9 4576.41 1448.62  18
   1  -8  -9 2771.63 516.360   7
   1  -8  -8 3012.16 1138.10  18
   1  -8  -8 1907.56 448.184   7
   1  -8  -7 16788.1 2367.22  18
   1  -8  -6 3250.43 975.695  18
   1  -8  -5 3547.08 953.562  18
   1  -8  -4 9068.58 1452.00  18
   1  -8  -3 8262.15 1320.75  18
   1  -8  -2 1992.70 547.495  18
   1  -8  -1 25401.3 2065.48  18
   1  -8   0 25373.1 1932.30  18
   1  -8   4 12994.8 1761.44   1
   1  -8   7 11373.0 1197.96  17
   1  -8   7 11759.7 1123.23  15
   1   8   7 11343.0 872.744   4
   1  -8   8 11615.1 1248.07  17
   1  -8   8 9633.85 1177.46  15
   1  -8   8 11009.2 947.303  13
   1  -8   9 15647.6 1483.45  17
   1  -8   9 13894.6 1450.43  15
   1   8   9 16612.9 1276.25  14
   1  -8   9 16105.2 1201.77  13
   1  -8  10 2824.33 658.977  17
   1  -8  10 2425.61 1001.16  15
   1   8  10 3056.72 588.043  14
   1  -8  10 2331.13 460.950  13
   1  -8  11 404.461 965.094  15
   1  -8  11 647.260 387.574  17
   1   8  11 627.942 284.655  14
   1  -8  11 240.508 190.987  13
   1  -8  12 585.564 940.417  15
   1  -8  12 262.601 303.276  17
   1   8  12 527.931 251.154  14
   1  -8  12 112.365 236.905  13
   1   8  13 3943.67 713.554  10
   1  -8  13 3915.31 640.524  17
   1   8  13 3890.88 547.366  14
   1  -8  13 3780.79 516.480  13
   1   8  14 6777.85 836.311  10
   1  -8  14 6669.85 733.368  17
   1   8  14 7043.62 647.296  14
   1   8  15 2783.79 432.742  10
   1  -8  15 2621.49 388.815  17
   1   8  15 2029.29 272.337  14
   1  -9 -10 3205.02 570.915   7
   1  -9  -9 9366.65 988.405   7
   1  -9  -8 3279.38 1132.89  18
   1  -9  -8 2784.30 542.898   7
   1  -9  -7 11909.2 2036.42  18
   1  -9  -7 9730.06 974.671   7
   1  -9  -6 4352.63 1221.09  18
   1  -9  -5 5952.21 1258.41  18
   1  -9  -4 6433.52 1300.79  18
   1  -9  -3 26420.2 2517.48  18
   1  -9  -2 10052.8 1436.87  18
   1  -9  -1 22990.1 2117.95  18
   1  -9   4 3357.19 990.016   1
   1  -9   6 3782.28 720.739  17
   1   9   6 2938.31 435.136   4
   1  -9   7 16909.3 1527.47  17
   1  -9   7 14464.9 1329.45  15
   1   9   7 14727.7 1051.92   4
   1  -9   7 17112.6 1170.91  13
   1  -9   8 12035.8 1295.91  17
   1  -9   8 10649.8 1239.75  15
   1  -9   8 11225.6 939.888  13
   1  -9   9 2000.13 565.182  17
   1  -9   9 2577.18 879.525  15
   1  -9   9 2031.90 382.732  13
   1  -9  10 3093.32 985.329  15
   1  -9  10 3567.24 713.490  17
   1   9  10 4038.23 589.051  14
   1  -9  10 3730.18 558.327  13
   1  -9  11 3881.16 1008.75  15
   1  -9  11 4311.09 747.138  17
   1   9  11 5883.20 689.292  14
   1  -9  11 4745.03 603.300  13
   1  -9  12 7345.97 897.263  17
   1   9  12 7433.53 744.091  14
   1  -9  12 7082.22 692.131  13
   1   9  13 2550.13 532.755  10
   1  -9  13 2494.36 462.764  17
   1   9  13 1940.41 342.079  14
   1   9  14-46.2687 217.631  10
   1  -9  14 510.352 239.811  17
   1   9  14 323.316 147.481  14
   1   9  15 1645.45 284.955  10
   1  -9  15 1421.45 259.912  17
   1 -10 -11 3669.72 572.889   7
   1 -10 -10 3383.99 587.427   7
   1 -10  -9 1950.78 456.095   7
   1 -10  -8 3789.08 667.788   7
   1 -10  -7 7129.25 1590.50  18
   1 -10  -7 6171.90 835.233   7
   1 -10  -6 6096.33 1451.07  18
   1 -10  -6 6683.57 834.712   7
   1 -10  -5 7116.47 1524.92  18
   1 -10  -5 6660.91 821.766   7
   1 -10  -4 1678.25 608.950  18
   1 -10  -3 11786.3 1756.28  18
   1 -10  -2 4663.49 1098.65  18
   1 -10   3 16896.4 2327.36   1
   1 -10   4 7507.35 816.216  16
   1  10   4 8079.61 734.818   4
   1 -10   5 9826.60 1171.43  17
   1 -10   5 8592.01 883.279  16
   1  10   5 9355.59 821.250   4
   1 -10   6 7287.34 1026.03  17
   1 -10   6 6781.39 778.541  16
   1  10   6 6985.86 717.138   4
   1 -10   7 3559.56 713.082  17
   1 -10   7 3728.36 738.730  15
   1 -10   8 1121.79 481.439  17
   1 -10   8 965.979 643.443  15
   1 -10   8 1058.88 322.376  13
   1 -10   9 7734.24 1015.67  17
   1 -10   9 6151.80 945.259  15
   1 -10   9 7518.86 762.699  13
   1 -10  10 807.587 344.239  17
   1 -10  10 1068.73 271.228  13
   1 -10  11 4987.15 769.641  17
   1 -10  11 4591.47 529.784  13
   1  10  12 1038.73 420.064  10
   1 -10  12 757.310 373.238  17
   1 -10  12 325.693 140.753  13
   1  10  13 4497.63 661.902  10
   1 -10  13 3823.60 550.148  17
   1  10  14 777.885 238.194  10
   1 -10  14 866.213 259.972  17
   1 -11 -11 7815.22 822.604   7
   1 -11 -10 8361.60 946.392   7
   1 -11  -9 5812.41 807.716   7
   1 -11  -8 680.499 285.259   7
   1 -11  -7 9157.89 1064.62   7
   1 -11  -6 1687.29 422.883   7
   1 -11  -5 11993.4 1982.87  18
   1 -11  -5 9788.24 1060.79   7
   1 -11  -4 2295.02 703.514  18
   1 -11  -4 2290.40 363.913  16
   1 -11  -4 3193.12 587.936   7
   1 -11  -3 10240.1 1765.61  18
   1 -11  -3 9504.27 1015.23   7
   1 -11  -3 9155.19 852.226  16
   1 -11  -2 6366.54 812.696   7
   1 -11  -2 5286.03 647.691  16
   1 -11  -1 5202.73 770.879   7
   1 -11  -1 5768.28 694.677  16
   1 -11   0 1339.02 342.883  16
   1 -11   1 18291.7 1279.40  16
   1  11   1 16082.0 1044.13   4
   1 -11   2 4250.53 628.143  16
   1 -11   2 3551.71 1187.80   1
   1  11   2 4836.94 558.292   4
   1 -11   3 22392.4 1475.98  16
   1  11   3 22550.2 1297.72   4
   1 -11   3 22768.4 2891.59   1
   1 -11   4 552.860 281.334  16
   1  11   4 516.267 193.680   4
   1 -11   5 9522.24 1190.94  17
   1 -11   5 7634.65 861.446  16
   1  11   5 8775.57 802.653   4
   1 -11   6 3614.70 719.342  17
   1 -11   6 3153.33 542.523  16
   1 -11   7 722.594 398.476  17
   1 -11   7 547.835 236.797  16
   1 -11   8 2574.11 617.184  17
   1 -11   9 1462.00 473.332  17
   1 -11  10 809.957 344.710  17
   1 -11  11 2134.30 433.019  17
   1  11  12 1348.64 395.809  10
   1 -11  12 1461.74 402.338  17
   1  11  13 2398.88 401.934  10
   1 -11  13 1491.30 311.890  17
   1 -12 -11 5572.47 666.699   7
   1 -12 -10-35.9764 270.429   7
   1 -12  -9 9370.90 1003.93   7
   1 -12  -8 3570.04 647.645   7
   1 -12  -7 4625.75 731.521   7
   1 -12  -6 516.285 343.092   7
   1 -12  -5 3769.59 701.889   7
   1 -12  -4 741.100 295.462  16
   1 -12  -4 434.691 306.616   7
   1 -12  -3 24560.4 1729.15   7
   1 -12  -3 22355.5 1471.78  16
   1 -12  -2 204.813 161.369  16
   1 -12  -2 497.350 309.998   7
   1 -12  -1 6253.65 845.783   7
   1 -12  -1 6567.73 786.930  16
   1 -12   0 6067.52 831.898   7
   1 -12   0 5264.53 709.443  16
   1  12   0 5019.03 560.984   4
   1 -12   1 9576.40 1057.72   7
   1 -12   1 10058.5 968.354  16
   1 -12   1 11905.8 2238.66   1
   1  12   1 9774.08 822.661   4
   1  12   2 7797.06 728.937   4
   1 -12   2 7336.71 850.667  16
   1 -12   2 8395.40 1892.60   1
   1 -12   3 1265.22 368.696  16
   1  12   3 1851.84 377.323   4
   1 -12   4 1013.89 338.384  16
   1  12   4 1305.55 318.210   4
   1 -12   5 6347.78 967.532  17
   1 -12   5 5194.37 714.930  16
   1 -12   6 3087.94 718.787  17
   1 -12   6 2990.69 523.062  16
   1 -12   7 12289.1 1306.89  17
   1 -12   8 3460.39 674.603  17
   1 -12   9 3824.35 657.530  17
   1 -12  10 1013.51 385.972  17
   1  12  11 7197.66 851.032  10
   1 -12  11 6314.72 727.939  17
   1  12  12 597.388 244.508  10
   1 -12  12 262.254 185.926  17
   1 -12  13 1456.98 242.151  17
   1 -13 -11 6830.83 660.093   7
   1 -13 -10 2002.46 428.182   7
   1 -13  -9 5610.01 751.131   7
   1 -13  -8 740.667 319.683   7
   1 -13  -7 4611.97 730.905   7
   1 -13  -6 2519.24 567.289   7
   1 -13  -5 2289.47 508.187   7
   1 -13  -4 1518.51 397.388  16
   1 -13  -4 1363.22 451.322   7
   1 -13  -3 22447.3 1677.58   7
   1 -13  -3 22982.2 1500.60  16
   1 -13  -2 5101.67 694.289  16
   1 -13  -2 4615.74 752.281   7
   1 -13  -1 24637.0 1733.38   7
   1 -13  -1 23065.1 1538.96  16
   1 -13   0 999.833 320.267  16
   1 -13   0 884.148 343.049   7
   1 -13   1 996.726 326.482  16
   1 -13   1 1282.26 372.127   7
   1 -13   2 4406.59 665.841  16
   1 -13   3 8289.80 916.545  16
   1 -13   4 2348.98 628.147  17
   1 -13   4 1968.96 447.680  16
   1 -13   5 13801.7 1419.04  17
   1 -13   5 13246.2 1127.84  16
   1 -13   6 374.977 335.645  17
   1 -13   6 34.2558 195.857  16
   1 -13   7 13477.6 1304.17  17
   1 -13   8 783.565 376.781  17
   1 -13   9 1604.17 431.181  17
   1 -13  10 811.313 302.935  17
   1  13  11 1510.52 304.607  10
   1 -13  11 1321.19 305.761  17
   1 -13  12-33.2786 103.164  17
   1 -14 -11 1681.11 271.457   7
   1 -14 -10 417.499 236.558   7
   1 -14  -9 4671.06 638.187   7
   1 -14  -8 150.785 203.768   7
   1 -14  -7 5097.70 746.376   7
   1 -14  -6 3450.37 649.850   7
   1 -14  -5 7453.84 926.673   7
   1 -14  -4 1595.70 341.194  16
   1 -14  -4 1720.77 457.434   7
   1 -14  -3 13290.2 1237.79   7
   1 -14  -3 14160.9 1133.69  16
   1 -14  -2 2203.84 486.156  16
   1 -14  -2 2037.17 516.830   7
   1 -14  -1 1386.17 387.947  16
   1 -14  -1 1687.66 413.345   7
   1 -14   0 62.5162 194.577  16
   1 -14   0 177.226 190.876   7
   1 -14   1 6581.59 800.452  16
   1 -14   2 1340.32 414.557  16
   1 -14   3 2686.20 658.291  17
   1 -14   3 2344.06 471.564  16
   1 -14   4 1791.06 520.038  17
   1 -14   4 1687.42 419.396  16
   1 -14   5 8543.30 1038.05  17
   1 -14   5 8637.83 861.445  16
   1 -14   6 1166.42 375.858  17
   1 -14   6 1258.37 384.338   3
   1 -14   7 6833.88 854.191  17
   1 -14   8 543.571 283.597  17
   1 -14   9 4417.04 590.657  17
   1  14  10 247.978 144.522  10
   1 -14  10 224.398 184.984  17
   1 -14  11 4653.00 422.075  17
   1 -15 -10 314.140 179.609   7
   1 -15  -9 2908.98 439.066   7
   1 -15  -8-189.054 238.815   7
   1 -15  -7 5269.01 684.619   7
   1 -15  -6 1323.34 425.207   7
   1 -15  -5 12333.4 1118.57   7
   1 -15  -4 923.834 388.124   7
   1 -15  -3 4275.15 579.073  16
   1 -15  -3 4956.24 742.482   7
   1 -15  -2 484.183 249.559  16
   1 -15  -2 410.098 248.215   7
   1 -15  -1 4059.80 599.827  16
   1 -15  -1 4763.67 715.273   7
   1 -15   0 832.147 301.610  16
   1 -15   0 399.459 210.024   7
   1 -15   1 6153.94 744.539  16
   1 -15   2 699.057 281.478  16
   1 -15   3 5670.97 843.839  17
   1 -15   3 6244.14 739.655  16
   1 -15   4 570.704 304.458  17
   1 -15   4 637.896 284.406  16
   1 -15   5 3421.49 596.343  17
   1 -15   6-395.149 331.282  17
   1 -15   6 48.2654 189.070   3
   1 -15   7 2162.21 433.527  17
   1 -15   8 271.685 232.037  17
   1 -15   9 3264.14 412.584  17
   1 -16  -8 682.321 223.182   7
   1 -16  -7 5537.89 624.643   7
   1 -16  -6 1170.77 320.640   7
   1 -16  -5 2841.89 487.816   7
   1 -16  -4-183.213 191.150   7
   1 -16  -3 4775.69 644.360   7
   1 -16  -2 1143.05 336.489   7
   1 -16  -1 5048.39 647.978   7
   1 -16   0 787.988 346.084  16
   1 -16   1 3910.11 640.828  17
   1 -16   1 4075.00 569.832  16
   1 -16   2 192.164 222.387  17
   1 -16   3 3678.26 583.105  17
   1 -16   4 630.075 315.263  17
   1 -16   5 4484.36 575.826   3
   1 -16   5 2789.77 472.375  17
   1 -16   6 170.107 176.246  17
   1 -16   7 1957.11 350.939  17
   1 -16   8-207.239 129.379  17
   1 -17  -7 2565.56 322.390   7
   1 -17  -6-218.569 160.979   7
   1 -17  -5 3403.88 439.154   7
   1 -17  -4 507.790 215.089   7
   1 -17  -3 3233.51 458.043   7
   1 -17  -2 118.234 141.159   7
   1 -17   0 416.714 238.609  17
   1 -17   1 5083.27 606.897  17
   1 -17   2 718.208 262.268  17
   1 -17   3 4380.56 565.250   3
   1 -17   3 2926.73 440.381  17
   1 -17   4 2041.74 346.129  17
   1 -17   4 2080.82 352.827   3
   1 -17   5 2620.61 350.919  17
   1 -17   6 793.302 178.088  17
   1 -18  -1 3167.54 354.785  17
   1 -18   0 3189.29 361.437  17
   1 -18   1 4008.12 446.886   3
   1 -18   1 2013.36 289.975  17
   1 -18   2 1591.20 268.640   3
   2   0   8 7034.99 1669.50  12
   2   0   9-963.941 306.698   5
   2   0   9 160.448 253.202  17
   2   0   9 262.775 237.380  13
   2   0   9-992.570 728.233  12
   2   0  10 989.563 308.806   5
   2   0  10 978.941 392.908  10
   2   0  10 1361.00 409.564  17
   2   0  10 1738.86 447.149  14
   2   0  10 1315.50 353.980  13
   2   0  10 147.046 496.555  12
   2   0  11-244.004 251.366   5
   2   0  11-75.6361 214.710  10
   2   0  11 129.291 248.233  17
   2   0  11-164.096 257.235  14
   2   0  11 30.8655 244.347  13
   2   0  12 2608.32 624.768  10
   2   0  12 2568.74 598.829  17
   2   0  12 2309.68 532.044  14
   2   0  12 1920.63 437.924  13
   2   0  13 16.8457 196.651  14
   2   0  14 4639.85 642.355   9
   2   0  14 6223.39 705.430  14
   2   0  15 341.808 196.428   9
   2   0  15-176.491 161.534  14
   2   0  16 61.7692 98.7308  14
   2  -1   7 1378.80 800.620  12
   2  -1   8 9829.28 1953.32  12
   2   1   9 3717.46 521.737   5
   2   1   9 3622.59 618.662  17
   2  -1   9 4684.99 740.385  17
   2   1   9 3330.97 566.086  14
   2  -1   9 4684.26 631.801  13
   2   1   9 3347.49 497.216  13
   2  -1   9 5038.56 1578.00  12
   2   1   9 1555.83 875.639  12
   2   1  10 12693.3 1021.18   5
   2   1  10 12260.3 1356.22  10
   2   1  10 13887.1 1275.88  17
   2  -1  10 13637.5 1292.36  17
   2   1  10 14963.3 1320.34  14
   2  -1  10 14953.9 1300.51  14
   2   1  10 13074.9 1030.33  13
   2  -1  10 14251.1 1112.23  13
   2   1  11 6448.80 735.666   5
   2   1  11 5448.43 921.916  10
   2   1  11 6464.56 917.394  17
   2  -1  11 5231.37 816.466  17
   2  -1  11 5860.34 818.067  14
   2   1  11 5886.53 837.495  14
   2   1  11 5205.89 676.906  13
   2  -1  11 5914.38 746.504  13
   2   1  12 5098.59 874.803  10
   2  -1  12 5335.37 796.110  17
   2   1  12 5264.18 755.809  14
   2  -1  12 5065.43 742.134  14
   2   1  12 4844.55 637.142  13
   2  -1  12 4631.87 670.737  13
   2   1  13 1559.76 484.368  10
   2  -1  13 1941.10 499.023  17
   2   1  13 2121.80 493.147  14
   2  -1  13 2620.44 495.928  14
   2  -1  13 1682.25 398.481  13
   2   1  14 7721.77 775.894   9
   2   1  14 8620.45 846.698  14
   2  -1  14 7694.90 764.241  14
   2   1  15 338.387 165.023   9
   2  -1  15 50.0764 132.762   9
   2  -1  15 37.5569 139.673  14
   2   1  15 283.039 192.843  14
   2   1  16 1242.38 230.162  14
   2  -2 -11 681.642 534.564  18
   2  -2   5 781.450 452.433  12
   2  -2   6 9671.91 1717.19  12
   2  -2   7 5800.80 1419.79  12
   2  -2   8 22268.8 2975.92  12
   2  -2   9 4401.69 716.005  17
   2   2   9 4198.13 633.620   5
   2   2   9 4420.53 749.899  17
   2   2   9 4569.75 692.035  14
   2  -2   9 5322.62 679.774  13
   2  -2   9 4322.48 1352.29  12
   2   2  10 16493.5 1231.51   5
   2  -2  10 16431.1 1445.51  17
   2   2  10 17936.1 1435.97  14
   2  -2  10 17041.0 1362.52  14
   2  -2  10 16693.3 1244.80  13
   2   2  11 2687.27 516.553   5
   2   2  11 2808.00 725.355  10
   2  -2  11 3099.64 638.303  17
   2   2  11 3449.03 624.994  14
   2  -2  11 3230.16 596.753  14
   2   2  11 2686.06 450.736  13
   2  -2  11 3452.12 584.150  13
   2   2  12 3532.93 728.489  10
   2  -2  12 3568.43 676.903  17
   2   2  12 3492.14 625.516  14
   2  -2  12 3001.65 540.401  14
   2  -2  12 3505.28 572.761  13
   2   2  13 301.396 218.783  10
   2   2  13 258.134 181.877   9
   2  -2  13 418.266 316.509  17
   2   2  13 229.317 220.821  14
   2  -2  13 596.349 262.767  14
   2  -2  13-42.9869 195.869  13
   2   2  14 2619.62 504.759  10
   2   2  14 2589.12 414.547   9
   2   2  14 3233.15 516.233  14
   2  -2  14 2363.32 425.775  14
   2  -2  15-65.9702 105.413  14
   2   2  15 120.096 166.591  14
   2  -2  15 36.2243 149.500   9
   2  -2  16 790.702 175.917   9
   2   2  16 1235.34 224.665  14
   2  -3 -11 2379.23 868.512  18
   2  -3   3 13226.9 1438.82  12
   2  -3   4 12239.9 1511.24  12
   2  -3   5 1889.63 655.159  12
   2  -3   6 9196.49 1623.75  12
   2  -3   7 380.785 295.102  12
   2   3   8 12473.3 1060.90   5
   2  -3   8 13019.8 1024.73  13
   2  -3   8 10309.6 1965.29  12
   2   3   9 8549.20 872.379   5
   2  -3   9 7382.19 903.334  17
   2   3   9 8236.67 949.267  14
   2  -3   9 8586.50 866.876  13
   2   3  10 4928.22 704.002   5
   2  -3  10 5234.50 833.537  17
   2   3  10 4361.01 695.988  14
   2  -3  10 4094.47 627.783  14
   2  -3  10 5028.38 683.686  13
   2   3  11 180.433 301.176  10
   2  -3  11 567.694 349.682  17
   2   3  11 71.6422 230.072  14
   2  -3  11 329.072 297.178  14
   2  -3  11 291.084 251.277  13
   2   3  12 13473.7 1388.51  10
   2  -3  12 14305.0 1299.63  17
   2   3  12 14850.1 1283.29  14
   2  -3  12 13962.1 1160.07  14
   2  -3  12 13886.9 1128.22  13
   2   3  13 1002.13 408.703  10
   2  -3  13 1737.17 487.521  17
   2   3  13 953.478 366.390  14
   2  -3  13 996.270 294.306  14
   2  -3  13 990.331 311.559  13
   2   3  14 3157.48 574.761  10
   2   3  14 3898.96 568.784  14
   2  -3  14 2450.36 397.959  14
   2  -3  15 400.280 176.266   9
   2   3  15 1003.24 275.343  14
   2   3  16 1183.57 207.146  14
   2  -4 -10 20742.5 2956.49  18
   2   4   8 1119.36 331.663   5
   2   4   8 1380.40 387.267  14
   2  -4   8 1360.17 374.447  13
   2   4   9 9533.61 918.511   5
   2  -4   9 7587.48 970.919  17
   2   4   9 9089.29 995.927  14
   2  -4   9 8243.57 865.348  13
   2   4  10 15334.9 1190.83   5
   2  -4  10 14303.2 1357.36  17
   2   4  10 14767.3 1297.72  14
   2  -4  10 13799.6 1187.72  14
   2  -4  10 14722.0 1188.03  13
   2  -4  11 8407.84 1018.46  17
   2   4  11 9467.38 1017.92  14
   2  -4  11 7668.29 835.632  14
   2  -4  11 8471.22 896.093  13
   2   4  12 3529.53 777.910  10
   2  -4  12 3586.33 659.635  17
   2   4  12 3600.78 617.022  14
   2  -4  12 3008.74 496.853  14
   2  -4  12 3883.40 587.618  13
   2   4  13 1222.71 424.580  10
   2  -4  13 1292.55 390.475  17
   2   4  13 1319.96 373.854  14
   2  -4  13 645.248 218.685  14
   2  -4  13 1097.73 358.348  13
   2   4  14 4206.65 677.763  10
   2  -4  14 5470.47 687.996  17
   2   4  14 4288.54 565.290  14
   2  -4  14 4066.64 526.046  13
   2  -4  15 395.255 178.822   9
   2   4  15 497.921 200.829  14
   2  -5 -10 5422.37 1317.83  18
   2  -5   7 5974.14 691.298  13
   2   5   8 7767.26 825.846   5
   2  -5   8 8276.69 994.333  17
   2   5   8 8211.29 919.154  14
   2  -5   8 8341.18 848.518  13
   2   5   9-354.915 310.440   5
   2  -5   9-48.0100 292.311  17
   2   5   9 4.90732 194.915  14
   2  -5   9 93.4623 228.642  13
   2   5  10 3222.08 584.111   5
   2  -5  10 3205.34 661.105  17
   2   5  10 3086.52 569.199  14
   2  -5  10 3219.43 546.768  14
   2  -5  10 3017.23 539.408  13
   2  -5  11 6044.02 874.284  17
   2   5  11 5915.88 790.955  14
   2  -5  11 5219.93 658.818  14
   2  -5  11 5966.06 737.758  13
   2   5  12 9227.01 1207.17  10
   2  -5  12 11513.8 1143.32  17
   2   5  12 10545.9 1033.18  14
   2  -5  12 10434.7 963.968  13
   2   5  13 973.839 352.485  10
   2  -5  13 1192.85 367.796  17
   2   5  13 789.811 323.475  14
   2  -5  13 468.684 222.872  13
   2   5  14 3851.96 629.086  10
   2  -5  14 5117.81 615.296  17
   2   5  14 3807.23 510.650  14
   2  -5  14 4415.18 521.734  13
   2  -5  15 98.8016 138.691   9
   2   5  15 392.731 159.381  14
   2  -6  -9 7137.74 1768.11  18
   2   6   7 6265.14 741.436   5
   2  -6   7 5141.02 773.235  17
   2  -6   7 4541.59 619.614  13
   2   6   8 5849.53 746.577   5
   2  -6   8 5098.47 768.015  17
   2   6   8 4837.70 706.091  14
   2  -6   8 6275.02 736.482  13
   2   6   9 3837.81 586.834   5
   2  -6   9 2926.67 637.732  17
   2   6   9 3604.89 629.895  14
   2  -6   9 3749.38 624.722  13
   2  -6  10 1511.22 523.892  17
   2   6  10 1430.06 403.365  14
   2  -6  10 1018.45 370.888  13
   2  -6  11 6730.78 909.849  17
   2   6  11 6516.36 802.968  14
   2  -6  11 7325.19 838.790  13
   2   6  12 2833.67 670.460  10
   2  -6  12 2983.35 562.192  17
   2   6  12 1992.63 435.128  14
   2  -6  12 2542.62 463.219  13
   2   6  13 1489.06 472.855  10
   2  -6  13 1600.54 384.592  17
   2   6  13 1215.83 343.971  14
   2  -6  13 1590.73 359.269  13
   2   6  14 2204.04 451.401  10
   2  -6  14 2566.67 429.089  17
   2   6  14 2020.69 358.678  14
   2  -6  15 175.698 138.179   9
   2   6  15 729.241 167.961  14
   2  -7  -9 20396.2 2956.16  18
   2  -7  -8 6446.99 1655.00  18
   2  -7  -8 3188.03 463.997   7
   2  -7  -7 6399.44 1653.01  18
   2  -7   6 12427.9 1309.25   3
   2   7   6 13530.2 964.220   4
   2  -7   7 10189.0 1147.28  17
   2   7   7 8770.20 776.392   4
   2  -7   7 10840.5 995.615  13
   2  -7   7 8457.60 1058.96   3
   2   7   8 2739.38 518.464   5
   2  -7   8 2338.19 571.663  17
   2   7   8 2273.82 397.673   4
   2   7   8 2621.32 512.291  14
   2  -7   8 2769.18 513.367  13
   2   7   9 515.026 298.823   5
   2  -7   9-85.2829 273.740  17
   2   7   9 128.538 185.993  14
   2  -7   9 184.379 253.504  13
   2  -7  10 1757.68 506.793  17
   2   7  10 1505.04 403.623  14
   2  -7  10 2114.48 447.849  13
   2  -7  11 371.105 260.032  17
   2   7  11 360.093 227.533  14
   2  -7  11 264.668 216.468  13
   2  -7  12 2887.01 553.975  17
   2   7  12 2619.42 610.547  10
   2   7  12 1909.09 390.327  14
   2  -7  12 2965.09 485.160  13
   2   7  13 68.2019 257.956  10
   2  -7  13 668.888 233.805  17
   2   7  13 526.093 213.380  14
   2  -7  13 478.564 215.547  13
   2   7  14 1116.43 319.115  10
   2  -7  14 1149.30 282.430  17
   2   7  14 767.968 197.389  14
   2  -8  -9 2810.38 567.530   7
   2  -8  -8 2475.78 1017.53  18
   2  -8  -8 1439.24 404.428   7
   2  -8  -7 6122.94 1604.74  18
   2  -8  -7 4918.18 743.287   7
   2  -8  -6 1326.40 753.461  18
   2  -8  -5 8990.60 1771.55  18
   2   8   5 11329.7 937.581   5
   2   8   5 9912.77 810.903   4
   2  -8   6 17998.8 1661.46   3
   2   8   6 22306.2 1353.33   5
   2  -8   6 20357.5 1619.83  17
   2   8   6 17647.5 1173.49   4
   2   8   7 7738.25 825.199   5
   2  -8   7 6352.56 914.228  17
   2   8   7 6338.24 667.594   4
   2  -8   7 6370.50 764.620  13
   2  -8   7 5873.84 911.198   3
   2   8   8 881.540 247.014   5
   2  -8   8 1330.56 479.445  17
   2   8   8 736.366 252.868   4
   2  -8   8 868.500 305.673  13
   2  -8   9 5841.65 868.208  17
   2  -8   9 5927.76 711.897  13
   2  -8  10 10641.9 1157.43  17
   2   8  10 10748.2 971.947  14
   2  -8  10 11430.3 996.525  13
   2  -8  11 6921.96 883.146  17
   2   8  11 6847.07 736.455  14
   2  -8  11 7215.29 764.878  13
   2   8  12 2313.17 539.751  10
   2  -8  12 3292.93 543.707  17
   2   8  12 2411.63 409.221  14
   2  -8  12 2833.02 429.235  13
   2   8  13 1573.85 392.981  10
   2  -8  13 1536.53 334.789  17
   2   8  13 978.569 224.495  14
   2  -8  13 1758.20 314.797  13
   2   8  14 1867.84 336.593  10
   2  -8  14 1700.75 265.903  17
   2  -9 -10 4431.91 683.691   7
   2  -9  -9 7579.42 900.746   7
   2  -9  -8 5606.88 800.637   7
   2  -9  -7 16376.9 2572.43  18
   2  -9  -7 13565.0 1275.37   7
   2  -9  -6 6040.15 1471.07  18
   2  -9  -6 4471.11 738.800   7
   2  -9  -5 15252.1 2297.34  18
   2  -9  -5 12305.9 1264.96   7
   2  -9  -4 3562.54 1089.99  18
   2  -9  -4 2896.81 613.379   7
   2  -9  -3 15943.2 2157.55  18
   2  -9  -2 64.4059 319.911  18
   2   9   3 22862.0 1304.97   4
   2   9   4 14564.5 1020.53   4
   2   9   5 2362.03 415.649   5
   2  -9   5 2221.77 576.997  17
   2  -9   5 2280.48 610.131   3
   2   9   5 2877.38 464.816   4
   2   9   6 1620.39 381.427   5
   2  -9   6 1421.16 597.304   3
   2  -9   6 728.065 261.691  17
   2   9   6 1621.07 373.206   4
   2  -9   7 10718.5 1166.95  17
   2   9   7 9549.87 834.406   4
   2  -9   7 10168.5 947.461  13
   2  -9   7 8870.74 1124.42   3
   2  -9   8 6720.59 913.981  17
   2   9   8 5416.86 620.878   4
   2  -9   8 7121.03 805.849  13
   2  -9   9 448.415 231.339  17
   2  -9   9 594.510 328.686  13
   2  -9  10 875.888 364.505  17
   2  -9  10 1071.43 319.378  13
   2  -9  11 3336.26 542.539  17
   2  -9  11 4268.76 554.929  13
   2  -9  12 1903.53 388.423  17
   2   9  12 1465.43 426.347  10
   2  -9  12 1511.59 303.823  13
   2   9  13 1555.01 357.563  10
   2  -9  13 1813.18 304.512  17
   2  -9  13 1673.06 272.371  13
   2 -10 -10 3150.34 566.695   7
   2 -10  -9 2269.35 504.450   7
   2 -10  -8 3661.18 694.406   7
   2 -10  -7 7463.94 956.797   7
   2 -10  -6 3250.89 646.750   7
   2 -10  -5 9532.57 1850.23  18
   2 -10  -5 7246.36 962.684   7
   2 -10  -4 2522.82 892.336  18
   2 -10  -4 1807.99 483.861   7
   2 -10  -3 4633.25 776.261   7
   2 -10  -2 7999.22 1013.04   7
   2 -10  -2 6705.37 742.123  16
   2  10  -2 7312.69 673.718   4
   2 -10  -1 9142.11 1093.48   7
   2 -10  -1 9400.08 939.751  16
   2  10  -1 10795.7 832.013   4
   2 -10   0 10956.7 1202.42   7
   2 -10   0 11438.6 1082.62  16
   2  10   0 12212.0 921.873   4
   2 -10   1 4416.80 663.873  16
   2 -10   1 4839.32 819.762   7
   2  10   1 5847.51 654.172   4
   2 -10   2 4397.09 685.526  16
   2 -10   2 3128.05 609.671   7
   2  10   2 4508.11 570.032   4
   2 -10   3 12907.4 1311.11  17
   2  10   3 12168.5 955.848   4
   2 -10   4 1957.23 537.722  17
   2  10   4 1957.81 413.831   4
   2 -10   5 14375.0 1573.08   3
   2 -10   5 15530.5 1421.23  17
   2  10   5 15935.6 1107.85   4
   2 -10   6 1374.84 499.677  17
   2 -10   6 1278.80 437.101   3
   2  10   6 1271.60 317.357   4
   2 -10   6 1199.10 324.134  13
   2 -10   7 6174.14 942.511   3
   2 -10   7 5572.88 851.504  17
   2  10   7 5513.65 639.530   4
   2 -10   7 6445.81 742.970  13
   2 -10   8 502.005 217.909  17
   2 -10   8 983.781 306.622  13
   2 -10   9 3782.67 645.539  17
   2 -10   9 3389.75 504.692  13
   2 -10  10 1600.06 435.862  17
   2 -10  10 1559.19 328.962  13
   2 -10  11 3313.86 513.692  17
   2 -10  11 2460.07 373.932  13
   2  10  12 725.053 275.737  10
   2 -10  12 521.813 201.779  17
   2 -10  12 588.895 188.881  13
   2  10  13 3519.18 436.171  10
   2 -11 -11 2494.55 420.416   7
   2 -11 -10 349.982 253.363   7
   2 -11  -9 3471.27 603.437   7
   2 -11  -8 945.032 395.276   7
   2 -11  -7 5016.74 754.134   7
   2 -11  -6 5661.70 873.444   7
   2 -11  -5 12320.8 1281.18   7
   2 -11  -4 2978.22 649.093   7
   2 -11  -3 3868.83 715.742   7
   2 -11  -2 2524.35 590.254   7
   2  11  -2 2095.72 359.841   4
   2 -11  -1 10968.6 1252.98   7
   2 -11  -1 9971.46 985.133  16
   2  11  -1 11143.3 882.752   4
   2 -11   0 1083.76 352.878  16
   2 -11   0 1265.18 458.564   7
   2  11   0 1356.38 336.652   4
   2 -11   1 3151.13 578.812  16
   2 -11   1 3099.03 658.431   7
   2  11   1 3471.87 481.421   4
   2 -11   2 2122.05 543.683  17
   2 -11   2 1103.66 371.883   7
   2  11   2 1906.99 382.850   4
   2 -11   3 2224.37 564.956  17
   2  11   3 1944.66 400.095   4
   2 -11   4 2896.48 646.256  17
   2  11   4 3300.14 504.025   4
   2 -11   5 2809.91 606.410  17
   2 -11   5 2518.05 684.179   3
   2  11   5 2765.11 432.243   4
   2 -11   5 2913.26 500.314  13
   2 -11   6 297.110 295.267  17
   2 -11   6 654.213 371.297   3
   2  11   6 271.088 191.554   4
   2 -11   6 579.710 252.570  13
   2 -11   7 2098.67 558.058   3
   2 -11   7 2581.30 567.679  17
   2 -11   7 2380.75 438.169  13
   2 -11   8 1368.62 418.275  17
   2 -11   8 1937.48 398.812  13
   2 -11   9 6708.75 802.052  17
   2 -11   9 5978.71 614.926  13
   2 -11  10 302.774 211.712  17
   2 -11  10 181.495 158.192  13
   2 -11  11 1872.73 353.172  17
   2  11  12 303.898 200.401  10
   2 -11  12 57.4245 96.8010  17
   2 -12 -11 4206.89 523.872   7
   2 -12 -10 589.425 259.989   7
   2 -12  -9 1105.45 367.578   7
   2 -12  -8 458.412 297.684   7
   2 -12  -7 9990.74 1101.69   7
   2 -12  -6 378.443 345.435   7
   2 -12  -5 4909.66 798.688   7
   2 -12  -4 5208.21 843.831   7
   2 -12  -3 2358.44 580.292   7
   2 -12  -2 9598.05 1154.45   7
   2  12  -2 9595.53 799.418   4
   2  12  -1 6110.21 639.124   4
   2 -12  -1 6357.24 938.728   7
   2 -12   0 1450.12 496.579   7
   2  12   0 1117.84 275.459   4
   2 -12   1 7749.34 1003.52   7
   2  12   1 8684.69 800.716   4
   2 -12   2 2857.61 611.332  17
   2  12   2 2247.61 424.787   4
   2 -12   3 14069.7 1342.24  17
   2  12   3 15486.5 1092.54   4
   2 -12   4 6147.25 872.692  17
   2  12   4 6044.74 683.317   4
   2 -12   5 4559.30 743.446  17
   2 -12   5 4523.05 850.583   3
   2  12   5 5027.52 604.635   4
   2 -12   5 3869.22 510.497  13
   2 -12   6 949.313 380.437  17
   2 -12   6 1262.61 431.995   3
   2 -12   6 1315.77 296.781  13
   2 -12   7 6274.68 808.183  17
   2 -12   7 6064.35 604.365  13
   2 -12   7 6389.72 817.216   3
   2 -12   8 661.780 259.051  17
   2 -12   8 456.815 192.613  13
   2 -12   9 4883.42 614.106  17
   2 -12  10 2017.28 351.532  17
   2  12  11 1515.10 336.014  10
   2 -12  11 1097.26 210.023  17
   2 -13 -11 3328.93 394.847   7
   2 -13 -10 528.712 234.503   7
   2 -13  -9 2668.26 500.077   7
   2 -13  -8 1141.43 401.438   7
   2 -13  -7 5981.72 819.839   7
   2 -13  -6 1962.16 488.969   7
   2 -13  -5 18925.2 1543.22   7
   2 -13  -4 131.802 248.680   7
   2 -13  -3 4891.37 816.102   7
   2 -13  -2 1113.46 389.300   7
   2  13  -2 687.026 171.300   4
   2 -13  -1 13147.2 1324.85   7
   2  13  -1 13091.3 932.787   4
   2 -13   0 1459.53 485.884   7
   2  13   0 1837.86 376.119   4
   2 -13   1 7125.06 937.363  17
   2 -13   1 6271.63 886.668   7
   2  13   1 6943.47 692.682   4
   2 -13   2 499.610 288.389  17
   2  13   2 498.431 244.620   4
   2 -13   3 10243.0 1071.29  17
   2  13   3 10308.8 858.557   4
   2 -13   4 735.820 330.700  17
   2 -13   4 1042.37 435.824   3
   2  13   4 270.199 245.436   4
   2 -13   5 4241.11 669.645  17
   2 -13   5 3825.80 732.064   3
   2 -13   6 1344.53 427.757   3
   2 -13   6 1005.36 362.246  17
   2 -13   7 3399.10 537.641   3
   2 -13   7 3681.28 554.591  17
   2 -13   8-137.270 210.699  17
   2 -13   9 3746.02 456.585  17
   2 -14 -10 317.435 162.012   7
   2 -14  -9 2866.77 446.864   7
   2 -14  -8 1260.45 377.477   7
   2 -14  -7 4858.06 691.755   7
   2 -14  -6-31.8801 308.040   7
   2 -14  -5 2341.41 542.084   7
   2 -14  -4-87.2867 305.718   7
   2 -14  -3 5791.73 838.917   7
   2 -14  -2 490.408 282.477   7
   2 -14  -1 3463.43 656.729   7
   2  14  -1 3334.70 441.163   4
   2 -14   0 415.622 307.738   7
   2  14   0 315.282 191.139   4
   2 -14   1 5350.31 753.173   7
   2 -14   1 5380.88 741.988  17
   2  14   1 6232.46 634.921   4
   2 -14   2 876.648 291.051  17
   2 -14   3 7987.52 1046.27   3
   2 -14   3 7195.48 836.777  17
   2 -14   4 337.683 255.285  17
   2 -14   4 63.5690 223.206   3
   2 -14   5 4463.75 606.580  17
   2 -14   5 4832.25 722.104   3
   2 -14   6 190.227 149.737   3
   2 -14   6 454.323 207.460  17
   2 -14   7 6923.93 648.113  17
   2 -14   8 666.037 209.735  17
   2 -15  -9 7090.55 596.784   7
   2 -15  -8 235.582 148.142   7
   2 -15  -7 3655.19 516.419   7
   2 -15  -6 12.3310 197.139   7
   2 -15  -5 4919.83 679.121   7
   2 -15  -4 463.415 278.997   7
   2 -15  -3 2659.07 537.635   7
   2 -15  -2 609.674 289.694   7
   2 -15  -1 5226.56 655.715  17
   2 -15  -1 4988.38 694.530   7
   2 -15   0 1253.94 324.898  17
   2 -15   0 297.627 175.824   7
   2 -15   1 6625.78 711.286  17
   2 -15   2-373.529 196.944  17
   2 -15   2 200.554 223.854   3
   2 -15   3 3819.91 513.117  17
   2 -15   3 4343.51 705.650   3
   2 -15   4-121.222 189.000  17
   2 -15   4 147.807 207.704   3
   2 -15   5 2172.98 420.108   3
   2 -15   5 1542.43 310.959  17
   2 -15   6-99.6672 110.111  17
   2 -16  -7 4856.73 507.545   7
   2 -16  -6 464.721 229.021   7
   2 -16  -5 3112.62 414.524   3
   2 -16  -5 4160.77 548.250   7
   2 -16  -4-1.67913 161.125   3
   2 -16  -4 456.750 250.766   7
   2 -16  -3 4788.53 610.634   7
   2 -16  -2 417.980 228.910   7
   2 -16  -1 3144.21 476.505   7
   2 -16   0 191.214 206.818   3
   2 -16   1 2362.91 485.551   3
   2 -16   2 403.406 135.489  17
   2 -16   2 1220.87 365.081   3
   2 -16   3 4896.44 634.194   3
   2 -16   3 3361.36 385.331  17
   2 -16   4 137.883 139.994   3
   2 -17  -4-22.9930 107.900   7
   2 -17  -3 5850.36 540.971   3
   2 -17  -3 5197.78 487.320   7
   2 -17  -2 765.166 234.070   3
   2 -17  -1 2233.73 386.728   3
   2 -17   0 1708.00 343.265   3
   2 -17   1 523.207 178.750   3
   2 -17   2 533.975 183.485   3
   2 -17   3 2730.50 331.355   3
   3   0   6 7470.02 769.561   5
   3   0   6 8151.16 1022.27   3
   3   0   7 131.379 197.875   5
   3   0   8 10134.5 1033.94   5
   3   0   8 8164.45 809.563  13
   3   0   9-88.2234 262.680   5
   3   0   9 512.236 222.454  13
   3   0  10 10687.9 910.919   5
   3   0  10 11734.5 1127.14  14
   3   0  10 10946.7 928.738  13
   3   0  11 115.672 185.735   5
   3   0  11 30.8349 267.865  14
   3   0  11 16.6795 155.212  13
   3   0  12 5197.98 677.725  14
   3   0  12 5020.58 542.710  13
   3   0  13-326.711 200.611  14
   3   0  14 2122.37 321.504  14
   3   1   6 32650.5 1745.98   5
   3  -1   6 29726.8 1631.19   5
   3  -1   6 31754.1 1668.10  13
   3  -1   6 31956.7 2133.18   3
   3   1   7 12046.1 1028.67   5
   3  -1   7 10584.7 948.209   5
   3  -1   7 9979.79 907.953  13
   3  -1   7 9947.48 1149.92   3
   3   1   8 14588.3 1272.05   5
   3  -1   8 15121.3 1217.11   5
   3  -1   8 14142.4 1097.39  13
   3  -1   9 616.502 278.969   5
   3   1   9 1504.66 406.038   5
   3   1   9 818.974 321.479  14
   3  -1   9 1362.73 362.324  13
   3  -1  10 8478.45 752.055   5
   3   1  10 10742.8 940.063   5
   3   1  10 10546.8 1076.44  14
   3  -1  10 10275.5 1049.79  14
   3  -1  10 10018.0 895.863  13
   3   1  11 763.761 274.508   5
   3   1  11 758.424 320.840  14
   3  -1  11 748.397 287.388  14
   3  -1  11 895.746 309.107  13
   3   1  12 6174.46 738.990  14
   3  -1  12 7075.02 767.899  14
   3  -1  12 6490.15 630.043  13
   3   1  13 851.663 254.474  14
   3  -1  13 937.074 245.850  14
   3   1  14 289.139 126.150  14
   3  -1  14 240.832 114.881  14
   3   2   6 18988.9 1303.61   5
   3  -2   6 17023.8 1137.23   5
   3  -2   6 19464.9 1637.47   3
   3  -2   7 2529.74 598.800   3
   3   2   7 2768.17 509.837   5
   3  -2   7 2585.94 443.038   5
   3  -2   7 3000.64 519.013  13
   3  -2   8 2886.80 624.185   3
   3   2   8 2559.05 574.096   5
   3  -2   8 3033.58 503.918   5
   3  -2   8 3735.10 604.155  13
   3   2   9 3843.95 612.893   5
   3   2   9 3762.12 661.722  14
   3  -2   9 3452.86 562.804  13
   3   2  10 2005.63 444.158   5
   3   2  10 1871.08 450.292  14
   3  -2  10 1699.28 461.279  14
   3  -2  10 1709.50 392.012  13
   3   2  11-95.7376 217.146   5
   3   2  11 75.2875 211.543  14
   3  -2  11 129.955 183.148  14
   3  -2  11 405.144 266.981  13
   3   2  12 5360.08 679.039  14
   3  -2  12 5088.94 623.797  14
   3  -2  12 5988.77 626.485  13
   3   2  13-58.2463 160.728  14
   3  -2  13-180.548 175.201  14
   3   2  14 3089.77 381.309  14
   3  -2  14 358.019 138.666  14
   3   3   5 5535.09 679.315   5
   3  -3   5 6047.33 901.425   3
   3  -3   6 210.279 231.147   3
   3   3   6 401.146 276.937   5
   3  -3   7 317.255 263.897   3
   3   3   7-442.300 391.636   5
   3  -3   7 267.176 215.514  13
   3   3   8 17101.5 1438.89   5
   3   3   8 13904.2 1258.66  14
   3  -3   8 15597.9 1205.52  13
   3  -3   8 14562.4 1388.79   3
   3   3   9 186.797 296.513   5
   3   3   9-165.649 204.421  14
   3  -3   9 33.8400 197.262  13
   3   3  10 8964.65 894.717   5
   3   3  10 7557.53 897.216  14
   3  -3  10 6759.04 821.930  14
   3  -3  10 7642.48 791.446  13
   3   3  11 1098.16 311.782   5
   3   3  11 1054.60 366.308  14
   3  -3  11 613.375 262.878  14
   3  -3  11 488.159 249.819  13
   3   3  12 6988.69 760.117  14
   3  -3  12 6864.46 706.120  14
   3  -3  12 7660.02 705.276  13
   3   3  13 436.171 213.053  14
   3  -3  13 271.435 142.952  14
   3   3  14 487.009 166.920  14
   3  -4   5 229.724 332.766   3
   3   4   5 945.085 295.083   5
   3  -4   6 3893.51 781.570   3
   3   4   6 4883.81 720.037   5
   3   4   7 19004.5 1476.22   5
   3  -4   7 16114.3 1248.07  13
   3  -4   7 15032.9 1498.85   3
   3  -4   8 1455.14 450.242   3
   3   4   8 2094.42 538.592   5
   3   4   8 2085.89 485.974  14
   3  -4   8 2013.02 465.437  13
   3  -4   9 2232.95 544.943   3
   3   4   9 2732.10 507.110   5
   3   4   9 2314.49 509.097  14
   3  -4   9 2325.55 482.431  13
   3   4  10 9856.40 900.079   5
   3   4  10 8143.36 898.895  14
   3  -4  10 7331.49 836.256  14
   3  -4  10 8424.24 830.929  13
   3   4  11 421.695 225.828  10
   3   4  11 696.365 290.804  14
   3  -4  11 550.355 268.482  14
   3  -4  11 605.603 252.979  13
   3   4  12 3796.91 564.716  14
   3  -4  12 3159.84 456.542  14
   3  -4  12 4494.87 534.594  13
   3   4  13 8.73509 126.733  14
   3  -4  13-198.754 172.112  13
   3   4  14 1535.93 239.497  14
   3   5   4 20364.6 1298.29   5
   3   5   4 17617.6 1145.61   4
   3  -5   4 18379.0 1638.46   3
   3   5   5 3244.12 533.878   5
   3  -5   5 1824.42 541.886   3
   3   5   5 2349.93 389.495   4
   3   5   6 2828.54 524.591   5
   3  -5   6 1544.64 421.393   3
   3  -5   7 4602.72 839.215   3
   3   5   7 6725.88 895.557   5
   3   5   7 4114.90 641.222  14
   3  -5   7 4763.52 676.819  13
   3   5   8 19147.9 1409.67   5
   3   5   8 17968.2 1344.13  14
   3  -5   8 16444.2 1269.74  13
   3  -5   8 15571.4 1435.90   3
   3   5   9 1053.25 325.697   5
   3   5   9 1446.83 399.406  14
   3  -5   9 1056.43 352.755  13
   3   5  10 5912.50 718.487   5
   3   5  10 4719.87 648.804  14
   3  -5  10 3797.76 552.951  14
   3  -5  10 4848.97 633.748  13
   3   5  11 2200.21 518.841  10
   3   5  11 1718.58 388.949  14
   3  -5  11 1574.05 344.601  14
   3  -5  11 2137.24 406.814  13
   3   5  12 2997.30 448.782  14
   3  -5  12 3228.94 442.946  13
   3   5  13 1901.32 310.441  14
   3  -5  13 2148.26 318.034  13
   3  -6  -8 4365.68 700.582   7
   3  -6  -7 5485.18 818.639   7
   3  -6  -6 12229.8 1233.46   7
   3  -6  -5 2977.28 574.340   7
   3  -6   2 8765.12 1109.98   3
   3   6   2 9205.39 781.810   4
   3   6   3 8297.33 812.581   5
   3  -6   3 6753.95 932.858   7
   3   6   3 8649.50 779.047   4
   3  -6   3 8295.15 1108.90   3
   3   6   4 9825.08 909.715   5
   3  -6   4 6691.92 908.457   7
   3   6   4 8962.52 810.843   4
   3  -6   4 8199.55 1149.46   3
   3   6   5 2320.25 502.194   5
   3  -6   5 1559.48 524.498   3
   3   6   5 1637.67 383.413   4
   3   6   6 5131.06 782.564   5
   3  -6   6 3237.48 727.583   3
   3   6   6 3260.30 478.063   4
   3   6   7 9089.02 960.127   5
   3  -6   7 6388.65 959.259   3
   3   6   7 6750.19 789.793  14
   3   6   7 5608.56 586.550   4
   3  -6   7 6983.13 815.739  13
   3   6   8 9237.76 918.254   5
   3   6   8 6912.03 817.892  14
   3  -6   8 7854.91 864.580  13
   3  -6   8 6720.31 943.320   3
   3   6   9 5656.81 679.678   5
   3   6   9 3992.72 602.968  14
   3  -6   9 3470.40 520.836  14
   3  -6   9 4674.30 649.445  13
   3   6  10 2179.94 418.581  14
   3  -6  10 1947.77 362.277  14
   3  -6  10 2439.67 443.240  13
   3   6  11 1810.68 466.706  10
   3   6  11 1347.34 330.753  14
   3  -6  11 1870.79 394.638  13
   3   6  12 3568.19 511.867  10
   3   6  12 2602.46 396.287  14
   3  -6  12 3500.46 442.839  13
   3   6  13 409.616 126.239  14
   3  -6  13 771.438 203.130  13
   3  -7  -8 470.070 311.011   7
   3  -7  -7 2177.57 554.425   7
   3  -7  -6 4261.71 720.373   7
   3  -7  -5 5568.85 882.039   7
   3  -7  -4 6312.75 896.692   7
   3  -7  -3 3173.96 667.795   7
   3  -7  -2 7452.75 1002.05   7
   3  -7  -1 3604.64 690.747   3
   3  -7  -1 3769.09 725.863   7
   3  -7   0 13421.5 1382.48   3
   3  -7   0 13803.1 1427.69   7
   3   7   0 16928.8 1070.82   4
   3  -7   1 2007.65 540.568   3
   3  -7   1 2257.74 635.215   7
   3   7   1 2288.52 408.941   4
   3  -7   2 8326.27 1129.49   3
   3  -7   2 7043.03 986.581   7
   3   7   2 8132.36 784.949   4
   3   7   3 6485.32 746.823   5
   3  -7   3 5677.48 974.746   3
   3  -7   3 4887.80 868.346   7
   3   7   3 5644.72 667.861   4
   3   7   4 11838.9 1037.64   5
   3   7   4 10239.0 878.864   4
   3  -7   4 10341.0 1317.17   3
   3   7   5 3842.23 656.791   5
   3  -7   5 2421.74 647.342   3
   3   7   5 3047.33 483.679   4
   3  -7   6 2230.38 627.798   3
   3   7   6 2565.06 420.246   4
   3   7   7 1768.15 447.130   5
   3  -7   7 1033.87 456.939   3
   3   7   7 1223.48 301.637   4
   3  -7   7 1136.14 387.758  13
   3  -7   8 4710.55 775.859   3
   3   7   8 5648.13 692.789   5
   3  -7   8 5176.29 677.971  13
   3   7   9 3123.62 505.133   5
   3   7   9 2214.75 416.467  14
   3  -7   9 2815.33 502.415  13
   3   7  10 2782.96 452.651  14
   3  -7  10 3282.11 513.501  13
   3   7  11 2073.09 451.891  10
   3   7  11 1705.00 325.872  14
   3  -7  11 2447.77 411.215  13
   3   7  12 1165.81 224.404  14
   3  -7  12 1588.58 275.634  13
   3  -8  -9 3866.75 662.678   7
   3  -8  -8 5647.05 835.902   7
   3  -8  -7 4591.96 815.473   7
   3  -8  -6 3101.24 722.390   7
   3  -8  -5 5696.52 945.525   7
   3  -8  -4 5313.97 891.120   7
   3  -8  -3 2635.76 602.496   3
   3  -8  -3 2178.68 581.326   7
   3   8  -3 3666.17 513.074   4
   3  -8  -2 4261.27 824.615   3
   3  -8  -2 4597.64 791.321   7
   3   8  -2 4149.90 522.476   4
   3  -8  -1 5663.55 918.582   3
   3  -8  -1 5313.48 878.844   7
   3   8  -1 6410.19 679.113   4
   3  -8   0 4706.66 839.443   3
   3  -8   0 4404.66 823.398   7
   3   8   0 5738.56 645.299   4
   3  -8   1 6037.57 954.507   3
   3  -8   1 5965.67 959.735   7
   3   8   1 6752.16 711.472   4
   3  -8   2 21511.1 1893.46   3
   3  -8   2 20212.5 1787.98   7
   3   8   2 23324.2 1357.62   4
   3  -8   3 8263.99 1175.91   3
   3   8   3 9931.38 968.278   5
   3  -8   3 6504.68 977.224   7
   3   8   3 8251.02 823.374   4
   3   8   4 8017.69 968.287   5
   3  -8   4 7778.75 1152.76   3
   3   8   4 6920.03 743.018   4
   3   8   5 8368.25 881.037   5
   3  -8   5 6353.26 1030.83   3
   3   8   5 6983.92 717.584   4
   3   8   6 6310.80 727.023   5
   3  -8   6 5327.94 922.412   3
   3   8   6 4677.35 592.115   4
   3   8   7 5448.83 697.171   5
   3  -8   7 4340.90 782.739   3
   3   8   7 4192.18 515.248   4
   3  -8   7 4713.75 667.244  13
   3   8   8 3975.11 546.050   5
   3  -8   8 3680.73 684.922   3
   3   8   8 3197.81 435.567   4
   3  -8   8 4407.29 630.180  13
   3  -8   9 2810.21 473.774  13
   3  -8  10 3935.83 531.564  13
   3   8  11 3409.73 539.146  10
   3  -8  11 2223.34 365.797  13
   3   8  12 1052.99 256.488  10
   3  -8  12 797.721 192.352  13
   3  -9 -10 1869.28 369.186   7
   3  -9  -9 5427.48 749.172   7
   3  -9  -8 4409.85 730.897   7
   3  -9  -7 7474.69 1016.32   7
   3  -9  -6-37.2766 284.581   7
   3  -9  -5 10651.9 1417.76   7
   3   9  -5 11874.9 874.967   4
   3  -9  -4 37.7250 260.776   3
   3  -9  -4 405.109 361.958   7
   3   9  -4 283.001 165.975   4
   3  -9  -3 8911.62 1210.87   3
   3  -9  -3 11299.5 1339.50   7
   3   9  -3 13107.4 993.290   4
   3  -9  -2 2574.54 707.414   3
   3  -9  -2 2212.82 533.071   7
   3   9  -2 3161.17 488.159   4
   3  -9  -1 12654.7 1464.67   3
   3  -9  -1 11527.5 1365.77   7
   3   9  -1 15261.8 1075.59   4
   3  -9   0 18241.5 1747.63   3
   3  -9   0 16438.1 1635.73   7
   3   9   0 19122.0 1227.26   4
   3  -9   1 4482.68 853.890   3
   3  -9   1 4578.11 822.796   7
   3   9   1 5121.83 642.996   4
   3  -9   2 3389.03 791.435   3
   3  -9   2 2958.97 633.807   7
   3   9   2 3594.71 498.976   4
   3  -9   3 13464.7 1522.69   3
   3  -9   3 11639.1 1274.23   7
   3   9   3 14868.0 1084.54   4
   3   9   4 4150.13 581.126   5
   3  -9   4 2277.23 667.937   3
   3   9   4 2986.92 463.431   4
   3   9   5 521.944 225.176   5
   3  -9   5 441.173 286.328   3
   3   9   5 501.365 260.681   4
   3   9   6-239.168 250.143   5
   3  -9   6-267.121 377.736   3
   3   9   6-55.1209 172.738   4
   3  -9   6-64.3271 228.786  13
   3   9   7 1199.19 298.628   5
   3  -9   7 777.102 300.760   3
   3   9   7 504.595 202.137   4
   3  -9   7 1111.09 361.224  13
   3  -9   8 2027.87 469.101   3
   3  -9   8 2734.53 469.447  13
   3  -9   9 1362.53 311.874  13
   3  -9  10 1377.78 286.276  13
   3   9  11 3999.89 534.716  10
   3  -9  11 3561.30 402.182  13
   3 -10 -10 501.108 209.619   7
   3 -10  -9 4166.04 672.528   7
   3 -10  -8 3966.62 696.356   7
   3 -10  -7 983.074 418.952   7
   3 -10  -6 5970.42 937.425   7
   3 -10  -5 5566.59 900.574   7
   3 -10  -4 4864.28 788.909   3
   3 -10  -4 4782.95 840.063   7
   3  10  -4 5111.09 611.962   4
   3 -10  -3 5248.33 918.389   3
   3 -10  -3 4997.67 886.499   7
   3  10  -3 4746.18 612.731   4
   3 -10  -2-257.510 419.691   3
   3 -10  -2 136.176 293.581   7
   3  10  -2-14.4349 155.159   4
   3 -10  -1 9145.95 1295.94   3
   3 -10  -1 9133.33 1163.22   7
   3  10  -1 10320.1 886.123   4
   3 -10   0 907.570 499.118   3
   3 -10   0 1047.11 430.472   7
   3  10   0 486.779 241.780   4
   3 -10   1 9557.95 1302.65   3
   3 -10   1 10723.2 1248.07   7
   3  10   1 11552.1 930.938   4
   3 -10   2 4610.88 913.268   3
   3 -10   2 4644.28 824.197   7
   3  10   2 4597.14 608.260   4
   3 -10   3 4440.18 893.113   3
   3 -10   3 3478.29 659.716   7
   3  10   3 4610.47 602.479   4
   3 -10   4 469.385 431.870   3
   3  10   4 475.132 265.439   4
   3 -10   5 5347.52 921.666   3
   3  10   5 5596.95 623.815   4
   3 -10   6 2217.61 591.083   3
   3  10   6 2300.65 393.334   4
   3 -10   6 2116.61 459.548  13
   3 -10   7 4541.71 702.706   3
   3  10   7 5009.24 549.817   4
   3 -10   7 5308.20 625.746  13
   3 -10   8 1798.17 415.080   3
   3 -10   8 2008.86 379.780  13
   3 -10   9 3966.40 475.405  13
   3 -10  10 392.935 154.233  13
   3  10  11 2814.98 385.376  10
   3 -10  11 1217.66 206.089  13
   3 -11 -10 1730.85 309.214   7
   3 -11  -9 8989.88 904.435   7
   3 -11  -8 784.440 330.111   7
   3 -11  -7 2925.06 594.914   7
   3 -11  -6 559.636 342.440   7
   3 -11  -5 1901.67 575.825   7
   3 -11  -4 4177.70 701.911   3
   3 -11  -4 3662.94 762.650   7
   3  11  -4 3968.66 493.694   4
   3 -11  -3 1163.24 489.261   3
   3 -11  -3 1142.40 421.859   7
   3  11  -3 1196.76 305.578   4
   3 -11  -2 3205.31 715.794   3
   3 -11  -2 4106.18 792.866   7
   3  11  -2 3344.98 505.925   4
   3 -11  -1 2417.84 665.234   3
   3 -11  -1 2321.42 619.258   7
   3  11  -1 2707.62 447.942   4
   3 -11   0 1773.12 628.041   3
   3 -11   0 979.423 368.530   7
   3  11   0 2089.10 436.681   4
   3 -11   1 8954.66 1231.88   3
   3 -11   1 9036.44 1145.06   7
   3  11   1 10573.5 881.134   4
   3 -11   2 1.27224 293.707   3
   3 -11   2-292.190 287.172   7
   3  11   2-185.276 237.850   4
   3 -11   3 1073.05 426.309   3
   3  11   3 1684.55 368.956   4
   3 -11   4 169.986 288.178   3
   3  11   4 356.879 226.652   4
   3  11   5 7685.32 731.564   4
   3 -11   5 7890.27 800.609  13
   3 -11   5 6373.42 1002.69   3
   3 -11   6 367.309 253.615   3
   3  11   6 543.949 234.560   4
   3 -11   6 424.096 233.943  13
   3 -11   7 5162.38 693.137   3
   3 -11   7 4496.82 528.870  13
   3 -11   8 137.701 136.480  13
   3 -11   9 1518.05 260.854  13
   3  11  10 352.604 188.574  10
   3 -11  10 62.9837 89.5108  13
   3 -12 -10 261.587 146.784   7
   3 -12  -9 2427.31 452.445   7
   3 -12  -8 1674.49 407.199   7
   3 -12  -7 2116.15 522.997   7
   3 -12  -6 5397.72 796.193   7
   3 -12  -5 4086.44 736.990   7
   3 -12  -4 1994.35 492.674   3
   3 -12  -4 2712.39 571.690   7
   3 -12  -3 6089.03 883.254   3
   3 -12  -3 6637.32 946.583   7
   3  12  -3 5856.28 581.869   4
   3 -12  -2 746.005 355.914   3
   3 -12  -2 256.682 305.202   7
   3  12  -2 803.014 248.539   4
   3 -12  -1 6338.06 965.398   3
   3 -12  -1 5785.12 889.406   7
   3  12  -1 6939.52 675.899   4
   3 -12   0 1213.17 475.866   3
   3 -12   0 1566.16 463.486   7
   3  12   0 1198.16 289.409   4
   3 -12   1 4258.58 825.299   3
   3 -12   1 4104.56 705.106   7
   3  12   1 5131.92 589.825   4
   3 -12   2 1211.67 422.113   3
   3 -12   2 1195.87 375.825   7
   3  12   2 1722.12 365.226   4
   3 -12   3 6703.42 979.318   3
   3  12   3 6971.97 671.770   4
   3 -12   4 3324.70 676.976   3
   3  12   4 2863.28 431.857   4
   3 -12   4 2242.86 393.762  13
   3 -12   5 4334.23 728.986   3
   3  12   5 4252.70 508.016   4
   3 -12   5 4008.86 489.163  13
   3 -12   6 1380.76 417.248   3
   3 -12   6 1512.94 322.811  13
   3 -12   7 2552.70 424.293   3
   3 -12   7 1917.04 301.400  13
   3 -12   8 826.437 190.967  13
   3 -13  -9 7195.32 686.428   7
   3 -13  -8-124.451 201.460   7
   3 -13  -7 3668.09 585.381   7
   3 -13  -6 179.290 191.998   7
   3 -13  -5 8740.70 962.385   7
   3 -13  -4 574.374 288.114   3
   3 -13  -4 561.999 303.996   7
   3 -13  -3 3041.87 578.207   3
   3 -13  -3 2731.44 579.957   7
   3  13  -3 2537.22 349.116   4
   3 -13  -2 711.045 402.043   3
   3 -13  -2 180.571 271.125   7
   3  13  -2 728.889 201.694   4
   3 -13  -1 3487.57 687.126   3
   3 -13  -1 3796.91 676.475   7
   3  13  -1 4002.21 487.865   4
   3 -13   0 1165.64 471.634   3
   3 -13   0 478.347 234.215   7
   3  13   0 955.924 266.400   4
   3 -13   1 3874.76 711.908   3
   3 -13   1 3166.13 555.107   7
   3  13   1 3894.65 479.656   4
   3 -13   2 894.614 444.631   3
   3  13   2 668.323 219.666   4
   3 -13   3 2210.26 541.798   3
   3  13   3 2607.87 398.591   4
   3 -13   3 1942.43 336.561  13
   3 -13   4-175.769 291.083   3
   3  13   4-41.2367 184.494   4
   3 -13   4-371.523 192.146  13
   3 -13   5 3555.85 575.043   3
   3 -13   5 3177.34 373.738  13
   3 -13   6 412.650 220.656   3
   3 -14  -8-124.647 178.308   7
   3 -14  -7 3064.57 476.599   7
   3 -14  -6 275.433 212.819   7
   3 -14  -5 1948.08 419.391   7
   3 -14  -4 889.691 263.896   3
   3 -14  -4 649.476 244.838   7
   3 -14  -3 3151.63 530.778   3
   3 -14  -3 2732.31 535.590   7
   3 -14  -2 639.641 268.782   3
   3 -14  -2 943.125 317.071   7
   3  14  -2 997.598 234.174   4
   3 -14  -1 5731.43 783.779   3
   3 -14  -1 5305.54 704.455   7
   3  14  -1 5781.02 532.159   4
   3 -14   0 193.751 270.491   3
   3 -14   0-35.5947 215.713   7
   3  14   0 254.328 128.596   4
   3 -14   1 4760.01 707.156   3
   3  14   1 5231.52 503.373   4
   3 -14   2 622.831 350.927   3
   3  14   2 182.939 142.915   4
   3 -14   3 4666.89 679.019   3
   3 -14   4-359.424 257.906   3
   3 -14   5 4125.09 504.218   3
   3 -15  -7 2040.68 310.031   7
   3 -15  -6 966.036 254.554   7
   3 -15  -5 2761.98 423.019   7
   3 -15  -4 178.028 103.370   3
   3 -15  -4-0.52625 174.280   7
   3 -15  -3 3025.57 430.035   3
   3 -15  -3 2993.95 463.954   7
   3 -15  -2 357.102 233.165   3
   3 -15  -2 199.596 154.930   7
   3 -15  -1 4221.91 528.251   7
   3 -15  -1 4929.86 624.838   3
   3 -15   0 437.391 242.509   3
   3 -15   1 4113.65 568.596   3
   3 -15   2-205.695 195.597   3
   3 -15   3 1375.97 305.530   3
   3 -15   4 414.372 170.390   3
   3 -16  -1 5385.52 493.366   3
   3 -16   0-16.7379 120.130   3
   3 -16   1 3825.53 426.805   3
   4   0 -13 8.53031 150.182   5
   4   0  -5 40.4497 265.328   7
   4   0  -5-173.838 241.857   5
   4   0  -4 4731.89 787.254   7
   4   0  -4 4752.96 734.811   5
   4   0  -3-142.406 271.722   7
   4   0  -3-225.127 228.923   5
   4   0  -2 5976.32 863.967   3
   4   0  -2 4920.77 861.951   7
   4   0  -2 5340.46 722.854   5
   4   0  -1 268.705 329.725   3
   4   0  -1-179.674 265.058   7
   4   0  -1-71.1219 197.792   5
   4   0   0 6479.94 791.399   5
   4   0   0 6492.66 994.773   7
   4   0   0 7790.29 1032.25   3
   4   0   1 18.1098 257.084   3
   4   0   1 82.9335 205.163   5
   4   0   2 10021.1 985.677   5
   4   0   2 11764.7 1340.96   3
   4   0   3-46.4284 262.998   3
   4   0   3-608.436 295.643   5
   4   0   4 17881.8 1319.17   5
   4   0   5 93.9286 216.564   5
   4   0   6 7661.56 853.499   5
   4   0   7-140.505 299.032   5
   4   0   8 9074.50 885.528   5
   4   0   9-134.297 177.292   5
   4   0   9-21.2530 223.905  14
   4   0  10 10191.5 734.474   5
   4   0  10 11623.8 939.391  14
   4   0  11 13.6862 150.432  14
   4   0  12 2857.30 333.115  14
   4  -1 -14 238.766 158.355   5
   4   1 -11 110.373 189.316   5
   4   1  -7 333.834 245.855   5
   4   1  -6 1431.65 355.120   5
   4  -1  -5 2223.84 523.222   7
   4   1  -5 1941.10 435.595   5
   4   1  -4 11451.7 1089.67   5
   4  -1  -4 10948.0 1072.86   5
   4  -1  -4 11136.9 1237.16   7
   4  -1  -3 77.9486 224.839   7
   4   1  -3 203.525 204.666   5
   4  -1  -3 253.521 242.292   5
   4   1  -2 11189.3 1051.40   5
   4  -1  -2 10897.0 1070.04   5
   4  -1  -2 12249.6 1333.25   7
   4  -1  -2 12505.2 1235.13   3
   4  -1  -1 64.6393 291.253   3
   4   1  -1 58.4631 212.045   5
   4  -1  -1-129.737 337.242   5
   4  -1  -1 342.366 336.271   7
   4   1   0 12880.7 1109.97   5
   4  -1   0 14201.0 1178.00   5
   4  -1   0 13935.2 1457.30   7
   4  -1   0 16420.6 1490.14   3
   4  -1   1 1307.97 510.373   3
   4   1   1 523.992 234.668   5
   4  -1   1 1205.11 348.599   5
   4  -1   1 1568.37 546.877   7
   4   1   2 18608.3 1372.46   5
   4  -1   2 19603.0 1411.50   5
   4  -1   2 22360.5 1823.32   3
   4   1   3 11442.9 1059.10   5
   4  -1   3 11686.4 1031.31   5
   4  -1   3 11877.5 1347.84   3
   4   1   4 12817.5 1133.53   5
   4  -1   4 14012.0 1141.89   5
   4  -1   4 15051.1 1512.69   3
   4   1   5 1488.42 409.696   5
   4  -1   5 670.511 342.709   5
   4   1   6 8577.07 907.292   5
   4  -1   6 7521.54 784.414   5
   4   1   7 748.938 396.301   5
   4  -1   7 1032.40 385.535   5
   4   1   8 9753.35 983.878   5
   4  -1   8 9004.94 856.331   5
   4  -1   9 541.399 201.549   5
   4   1   9 129.774 234.366   5
   4   1   9 852.348 323.317  14
   4  -1   9 376.275 231.303  14
   4   1  10 2197.87 326.943   5
   4   1  10 1443.92 339.356  14
   4  -1  10 1731.63 381.035  14
   4   1  11 147.277 144.541  14
   4  -1  11 203.289 134.165  14
   4   1  12 1267.21 215.016  14
   4  -1  12 639.232 154.464  14
   4  -2 -14 2637.99 359.271   5
   4   2  -9 622.035 217.733   5
   4   2  -8 1905.89 441.571   5
   4   2  -7 640.912 287.667   5
   4   2  -6 9277.37 931.157   5
   4  -2  -6 6507.25 909.540   7
   4  -2  -5 118.535 215.090   7
   4   2  -5 415.003 221.025   5
   4   2  -4 8044.26 880.833   5
   4  -2  -4 8017.74 933.390   5
   4  -2  -4 8132.56 1052.08   7
   4   2  -3 1583.91 420.397   5
   4  -2  -3 1121.17 418.624   7
   4  -2  -3 1698.20 400.763   5
   4   2  -2 12129.1 1058.23   5
   4  -2  -2 12301.4 1139.01   5
   4  -2  -2 11993.4 1317.32   7
   4  -2  -2 12827.1 1244.43   3
   4  -2  -1 2757.35 613.680   3
   4   2  -1 3031.96 551.459   5
   4  -2  -1 1707.57 441.434   5
   4  -2  -1 2261.62 577.975   7
   4  -2   0 4417.52 764.585   3
   4   2   0 3813.89 594.605   5
   4  -2   0 3845.95 632.587   5
   4  -2   0 3879.76 768.322   7
   4  -2   1 1897.53 532.520   3
   4   2   1 1719.63 360.132   5
   4  -2   1 1182.12 332.737   5
   4  -2   1 1607.17 527.375   7
   4   2   2 7763.01 873.419   5
   4  -2   2 8116.53 870.635   5
   4  -2   2 6187.16 983.394   7
   4  -2   2 8479.78 1141.68   3
   4   2   3 9842.86 965.322   5
   4  -2   3 8437.20 906.600   5
   4  -2   3 10731.3 1306.51   3
   4  -2   4 1311.55 488.311   3
   4   2   4 1399.31 386.462   5
   4  -2   4 1318.36 352.724   5
   4  -2   5 2231.64 634.146   3
   4   2   5 1827.08 421.451   5
   4  -2   5 1992.59 435.623   5
   4  -2   5 1541.61 396.211  13
   4   2   6 4721.07 692.375   5
   4  -2   6 4940.72 624.075   5
   4  -2   6 3854.83 536.416  13
   4   2   7 660.199 389.632   5
   4  -2   7 876.854 335.312   5
   4  -2   7 665.928 267.963  13
   4  -2   8 8656.65 795.546   5
   4   2   8 11299.6 1016.52   5
   4   2   8 8778.30 909.484  14
   4  -2   8 9108.48 788.832  13
   4   2   9 530.611 233.058   5
   4   2   9 323.824 206.519  14
   4  -2   9 347.197 177.204  14
   4  -2   9 482.192 206.526  13
   4   2  10 4265.92 491.339   5
   4   2  10 3683.87 518.600  14
   4  -2  10 2896.34 461.381  14
   4  -2  10 4336.63 441.656  13
   4   2  11-151.639 154.141  14
   4  -2  11-388.774 170.003  14
   4   2  12 1002.33 189.595  14
   4   3  -7 1996.42 452.934   5
   4  -3  -6 4231.27 714.549   7
   4   3  -6 3821.93 582.225   5
   4   3  -5 7364.79 830.594   5
   4  -3  -5 6283.72 929.450   7
   4   3  -4 13838.5 1137.18   5
   4  -3  -4 14392.6 1429.73   7
   4   3  -3 2142.57 486.549   5
   4  -3  -3 1183.20 378.278   7
   4  -3  -3 1457.14 398.005   5
   4  -3  -2 5586.22 816.206   3
   4   3  -2 5920.23 735.112   5
   4  -3  -2 4792.48 848.528   7
   4  -3  -2 5320.75 728.847   5
   4  -3  -1 1268.46 463.232   3
   4   3  -1 462.070 247.942   5
   4  -3  -1 1242.96 398.701   5
   4  -3  -1 524.768 382.353   7
   4   3   0 9831.02 958.001   5
   4  -3   0 9015.13 898.621   5
   4  -3   0 8511.16 1177.66   7
   4  -3   0 9282.19 1143.61   3
   4  -3   1 869.093 429.591   3
   4   3   1 936.564 358.509   5
   4  -3   1 901.642 327.770   5
   4  -3   1 1038.89 504.504   7
   4  -3   2 3257.57 734.483   3
   4   3   2 2825.87 526.186   5
   4  -3   2 3196.51 569.282   5
   4  -3   2 2620.43 724.240   7
   4  -3   3 503.014 369.219   3
   4   3   3 868.663 328.218   5
   4  -3   3 516.670 251.584   5
   4  -3   3 488.054 318.260   7
   4   3   3 1097.92 319.159   4
   4   3   4 15055.9 1207.88   5
   4  -3   4 12993.1 1074.49   5
   4  -3   4 13443.1 1474.47   3
   4  -3   5 496.822 396.385   3
   4   3   5 477.040 314.084   5
   4  -3   5 801.599 318.394   5
   4  -3   6 4707.64 865.229   3
   4   3   6 4975.23 714.937   5
   4  -3   6 3378.02 485.982   5
   4  -3   6 4524.40 620.296  13
   4   3   7 819.464 426.144   5
   4  -3   7 1124.43 351.778   5
   4   3   7 301.589 261.752  14
   4  -3   7 715.055 269.825  13
   4   3   8 6551.60 751.648   5
   4   3   8 4889.77 673.007  14
   4  -3   8 5567.57 634.481  13
   4   3   9 424.556 277.231   5
   4   3   9 206.515 220.632  14
   4  -3   9 344.813 241.006  14
   4  -3   9 439.937 207.878  13
   4   3  10 2510.85 423.222  14
   4  -3  10 2495.44 416.352  14
   4  -3  10 2980.65 387.187  13
   4   3  11 80.9348 120.488  14
   4  -3  11-8.35329 110.538  14
   4  -3  11 109.554 101.336  13
   4  -4  -7 230.049 217.929   7
   4  -4  -6 1998.42 480.689   7
   4   4  -5 1062.89 314.292   5
   4  -4  -5 609.516 252.203   7
   4   4  -4 8499.45 845.930   5
   4  -4  -4 7399.10 1014.50   7
   4   4  -3 2184.56 472.167   5
   4  -4  -3 1323.86 509.186   7
   4  -4  -3 1413.44 395.445   5
   4  -4  -2 4465.81 761.633   3
   4   4  -2 5043.16 680.460   5
   4  -4  -2 3664.44 825.647   7
   4  -4  -2 4603.51 714.379   5
   4   4  -1 7767.36 830.211   5
   4  -4  -1 7055.86 863.778   5
   4  -4  -1 6109.47 924.976   3
   4  -4  -1 6693.31 1029.64   7
   4   4   0 9741.03 960.238   5
   4  -4   0 8383.06 900.101   5
   4  -4   0 8534.00 1199.78   7
   4  -4   0 9488.44 1165.99   3
   4  -4   1 165.849 290.255   3
   4   4   1 124.401 209.028   5
   4  -4   1 474.782 298.124   5
   4  -4   1 107.395 296.930   7
   4   4   2 6660.91 812.546   5
   4  -4   2 5942.11 980.782   3
   4  -4   2 5620.01 685.648   5
   4  -4   2 5044.60 935.146   7
   4  -4   3 2898.84 702.105   3
   4   4   3 2471.53 514.395   5
   4  -4   3 2418.28 437.266   5
   4  -4   3 2571.71 627.492   7
   4   4   3 2292.97 417.333   4
   4  -4   4 220.810 311.405   3
   4   4   4 498.611 310.717   5
   4  -4   4 402.433 168.513   5
   4   4   4 326.041 155.441   4
   4  -4   5 3842.89 788.503   3
   4   4   5 3809.42 626.490   5
   4  -4   6 5557.38 922.643   3
   4   4   6 6114.18 790.211   5
   4  -4   6 5892.01 721.420  13
   4  -4   7 990.341 370.136   3
   4   4   7 1167.71 422.153   5
   4   4   7 685.872 281.609  14
   4  -4   7 521.928 261.069  13
   4   4   8 4784.34 635.922   5
   4   4   8 3659.92 549.586  14
   4  -4   8 4177.60 550.982  13
   4   4   9 1707.74 380.641   5
   4   4   9 1325.09 338.026  14
   4  -4   9 865.215 258.895  14
   4  -4   9 1623.99 328.670  13
   4   4  10 6512.46 624.527  14
   4  -4  10 7622.48 600.441  13
   4   4  11 156.588 124.358  14
   4  -4  11 100.153 99.8321  14
   4  -4  11 128.718 93.2312  13
   4  -5  -8 5662.68 791.847   7
   4  -5  -7 2081.85 499.342   7
   4  -5  -6 3066.14 598.355   7
   4  -5  -5 1307.49 475.634   7
   4  -5  -4 4922.09 890.322   7
   4  -5  -3 629.918 254.977   3
   4   5  -3 1376.28 361.158   5
   4  -5  -3 1221.39 513.969   7
   4  -5  -3 1594.28 448.833   5
   4   5  -2 6549.75 725.411   5
   4  -5  -2 5354.80 835.465   3
   4  -5  -2 4822.94 861.316   7
   4  -5  -2 5943.74 808.922   5
   4  -5  -1 2338.83 602.321   3
   4   5  -1 2684.58 455.640   5
   4  -5  -1 1468.61 383.523   5
   4  -5  -1 2231.69 654.196   7
   4   5   0 12395.1 1049.71   5
   4  -5   0 10995.6 1034.96   5
   4  -5   0 10479.5 1319.08   7
   4  -5   0 11567.6 1318.76   3
   4  -5   1 3978.56 775.782   3
   4   5   1 4866.85 658.373   5
   4  -5   1 3940.17 607.698   5
   4  -5   1 3255.60 779.820   7
   4  -5   2 2921.29 721.899   3
   4   5   2 3588.32 568.915   5
   4  -5   2 2393.97 403.643   5
   4  -5   2 2749.27 716.783   7
   4   5   2 2892.66 493.086   4
   4  -5   3-290.641 368.313   3
   4   5   3 351.381 241.725   5
   4  -5   3 227.464 253.720   7
   4   5   3 548.439 244.631   4
   4   5   4 9610.57 928.264   5
   4  -5   4 7664.35 1044.59   7
   4   5   4 8080.38 771.178   4
   4  -5   4 9313.08 1218.43   3
   4  -5   5 88.7339 396.422   3
   4   5   5-138.858 272.551   5
   4   5   5-98.7448 151.833  14
   4   5   5 235.277 203.563   4
   4   5   6 7491.35 938.692   5
   4  -5   6 5898.22 919.831   3
   4   5   6 5564.33 682.055  14
   4  -5   6 6158.46 742.330  13
   4  -5   7 2350.63 548.317   3
   4   5   7 3292.10 541.485   5
   4   5   7 2300.16 435.567  14
   4  -5   7 2903.36 486.370  13
   4   5   8 3916.50 551.554   5
   4   5   8 3518.58 504.346  14
   4  -5   8 4474.54 570.539  13
   4   5   9 4996.93 569.671  14
   4  -5   9 3984.50 503.245  14
   4  -5   9 5454.95 566.988  13
   4   5  10 1108.61 236.260  14
   4  -5  10 856.488 215.459  14
   4  -5  11 816.044 171.712  13
   4  -6  -8 2492.31 522.668   7
   4  -6  -7 2169.19 538.317   7
   4  -6  -6 1148.54 337.371   7
   4  -6  -5 2217.52 594.295   7
   4  -6  -4 1083.10 469.974   7
   4  -6  -4 1101.60 374.604   5
   4  -6  -3 2858.96 578.871   3
   4  -6  -3 2508.80 672.374   7
   4  -6  -3 2252.39 513.157   5
   4  -6  -2 4243.50 794.489   3
   4  -6  -2 4211.96 651.938   5
   4  -6  -2 3704.96 824.112   7
   4  -6  -1 2294.15 576.605   3
   4   6  -1 2690.94 476.022   5
   4  -6  -1 2828.99 536.824   5
   4  -6  -1 1960.37 544.540   7
   4   6   0 5860.85 695.371   5
   4  -6   0 4940.35 884.662   3
   4  -6   0 4597.96 650.624   5
   4  -6   0 4835.66 908.280   7
   4  -6   1 3039.01 737.536   3
   4   6   1 3233.12 538.357   5
   4  -6   1 2709.01 727.877   7
   4   6   1 2951.43 482.510   4
   4   6   2 6014.20 723.561   5
   4  -6   2 5372.62 971.595   3
   4  -6   2 5360.66 961.183   7
   4   6   2 4969.79 624.781   4
   4  -6   3 3654.01 814.150   3
   4   6   3 3783.78 598.186   5
   4  -6   3 2127.75 633.691   7
   4   6   3 3519.01 507.882   4
   4   6   4 6838.43 816.855   5
   4  -6   4 5979.72 984.918   3
   4  -6   4 4727.66 797.857   7
   4   6   4 4911.54 602.442   4
   4  -6   5 4788.85 892.999   3
   4   6   5 6150.97 816.653   5
   4   6   5 4699.45 539.596   4
   4  -6   6 4137.20 789.900   3
   4   6   6 4573.86 668.418   5
   4   6   6 2327.03 363.813   4
   4  -6   6 4213.34 594.180  13
   4  -6   7 420.414 293.726   3
   4   6   7 581.458 315.232   5
   4  -6   7 656.799 275.355  13
   4   6   8 5618.29 592.193   5
   4  -6   8 4787.42 568.765  13
   4  -6   9 998.911 252.309  14
   4  -6   9 1942.97 338.649  13
   4  -6  10 2353.09 319.405  13
   4  -7  -8 1399.32 392.734   7
   4  -7  -7 1284.46 426.311   7
   4  -7  -6 1994.71 525.265   7
   4  -7  -5 1727.06 554.147   7
   4  -7  -4 3910.77 800.013   7
   4  -7  -4 3894.45 647.252   5
   4  -7  -3 794.238 340.640   5
   4  -7  -3 1052.22 398.484   7
   4  -7  -2 2335.88 585.886   3
   4  -7  -2 2372.52 458.275   5
   4  -7  -2 2168.09 619.257   7
   4  -7  -1 2035.63 599.962   3
   4  -7  -1 1965.08 420.083   5
   4  -7  -1 1781.69 579.536   7
   4   7  -1 2479.43 447.240   4
   4   7   0 8706.26 826.822   5
   4  -7   0 7870.29 1085.56   3
   4  -7   0 7377.90 1108.94   7
   4   7   0 10020.3 877.464   4
   4   7   1 4639.03 606.838   5
   4  -7   1 3624.94 760.376   3
   4  -7   1 3700.62 788.797   7
   4   7   1 3720.96 566.522   4
   4   7   2 3954.40 563.490   5
   4  -7   2 4129.97 833.848   3
   4  -7   2 3246.12 703.926   7
   4   7   2 3641.24 545.997   4
   4  -7   3 1208.66 487.940   3
   4   7   3 1530.59 410.851   5
   4  -7   3 402.787 247.853   7
   4   7   3 1231.77 327.758   4
   4  -7   4 3787.34 781.479   3
   4   7   4 4178.83 682.898   5
   4  -7   4 2223.61 526.645   7
   4   7   4 3548.55 504.033   4
   4   7   5 9342.15 921.365   5
   4   7   5 7289.27 674.757   4
   4  -7   5 8157.25 1108.71   3
   4   7   6 5862.72 670.002   5
   4  -7   6 5041.67 833.522   3
   4   7   6 4364.89 478.957   4
   4  -7   6 5438.98 671.704  13
   4  -7   7 2216.08 509.662   3
   4   7   7 2579.69 422.591   5
   4  -7   7 1954.67 380.033  13
   4   7   8 3929.12 479.934   5
   4  -7   8 3597.48 467.255  13
   4  -7   9 2231.08 343.591  13
   4  -7  10 1766.04 244.567  13
   4  -8 -13 709.283 164.072   5
   4  -8  -9 1592.61 382.164   7
   4  -8  -8 1498.36 405.533   7
   4  -8  -7 2105.90 511.572   7
   4   8  -7 2841.44 414.966   4
   4  -8  -6 986.312 479.038   7
   4   8  -6 837.157 257.695   4
   4  -8  -5 2670.02 661.849   7
   4  -8  -5 2110.89 476.096   5
   4   8  -5 2669.91 443.351   4
   4  -8  -4-32.6854 222.206   5
   4  -8  -4 170.307 285.128   7
   4   8  -4 92.8703 182.812   4
   4  -8  -3 2843.24 551.219   3
   4  -8  -3 1733.05 362.673   5
   4  -8  -3 2222.49 628.344   7
   4   8  -3 3001.96 496.067   4
   4  -8  -2 9808.77 1271.03   7
   4   8  -2 11219.2 927.367   4
   4  -8  -2 9345.72 1173.04   3
   4  -8  -1 3266.56 753.699   3
   4  -8  -1 2609.83 640.928   7
   4   8  -1 3360.67 532.676   4
   4  -8   0 5911.33 959.988   3
   4  -8   0 5612.13 947.584   7
   4   8   0 6451.64 681.848   4
   4  -8   1 10548.5 1293.88   7
   4   8   1 13315.2 1020.71   4
   4  -8   1 12169.7 1373.89   3
   4   8   2 305.638 216.750   5
   4  -8   2 408.649 319.028   3
   4  -8   2 146.007 308.575   7
   4   8   2 1055.55 322.797   4
   4   8   3 5134.15 690.206   5
   4  -8   3 4727.98 863.374   3
   4  -8   3 3525.33 669.760   7
   4   8   3 4307.83 545.722   4
   4   8   4 1282.93 354.758   5
   4  -8   4 1397.25 502.642   3
   4  -8   4 284.118 203.913   7
   4   8   4 920.870 289.410   4
   4  -8   5 2904.37 629.386   3
   4   8   5 3501.09 472.950   5
   4   8   5 2696.65 392.531   4
   4  -8   6 2791.09 555.537   3
   4   8   6 3289.74 467.259   5
   4   8   6 2845.58 351.369   4
   4  -8   6 2894.12 474.154  13
   4  -8   7 746.464 321.202   3
   4   8   7 1118.55 249.046   5
   4  -8   7 1467.81 310.171  13
   4  -8   8 2425.11 366.947  13
   4  -8   9 274.023 115.417  13
   4  -9 -12 735.090 164.465   5
   4  -9  -9 2160.94 429.931   7
   4  -9  -8 1429.23 359.534   7
   4  -9  -7 7702.98 913.947   7
   4  -9  -6 2392.70 620.398   7
   4  -9  -6 1767.90 405.809   5
   4   9  -6 2677.12 381.976   4
   4  -9  -5 4113.73 593.115   5
   4  -9  -5 5486.29 929.098   7
   4   9  -5 6630.68 652.864   4
   4  -9  -4 6974.85 1096.24   7
   4   9  -4 8289.64 756.543   4
   4  -9  -3 1948.52 536.778   3
   4  -9  -3 1877.48 554.107   7
   4   9  -3 1816.91 401.029   4
   4  -9  -2 1005.57 485.380   3
   4  -9  -2 957.866 386.111   7
   4   9  -2 856.987 283.131   4
   4  -9  -1 7041.88 1125.69   3
   4  -9  -1 5963.03 969.840   7
   4   9  -1 6847.43 729.096   4
   4  -9   0 541.383 381.207   3
   4  -9   0 543.744 291.071   7
   4   9   0 619.905 274.583   4
   4  -9   1 2857.80 741.492   3
   4  -9   1 2067.41 572.024   7
   4   9   1 2877.95 474.512   4
   4  -9   2 359.421 276.791   3
   4  -9   2 879.788 438.465   7
   4   9   2 454.224 211.813   4
   4  -9   3 1362.13 476.072   3
   4  -9   3 965.834 355.799   7
   4   9   3 1558.00 332.021   4
   4   9   4 2875.18 437.175   5
   4  -9   4 3090.54 669.331   3
   4   9   4 2926.59 424.035   4
   4   9   5-167.678 180.456   5
   4  -9   5 123.986 207.958   3
   4   9   5 115.421 157.141   4
   4  -9   5 73.6420 190.589  13
   4  -9   6 767.997 264.924   3
   4   9   6 869.071 251.882   5
   4   9   6 1095.16 241.726   4
   4  -9   6 931.475 295.766  13
   4  -9   7 2051.78 412.446   3
   4  -9   7 1134.88 263.745  13
   4  -9   8 1636.85 275.998  13
   4  -9   9 3638.23 358.363  13
   4 -10 -10 2658.05 324.052   5
   4 -10  -9 1436.61 286.413   7
   4 -10  -9 1245.12 262.543   5
   4 -10  -8 873.040 285.312   7
   4 -10  -8 501.771 190.330   5
   4 -10  -7 641.592 274.594   7
   4 -10  -7 517.577 193.907   5
   4 -10  -6 1182.09 419.248   7
   4  10  -6 1277.64 272.090   4
   4 -10  -5 4757.10 771.564   7
   4  10  -5 4635.96 521.282   4
   4 -10  -4 914.599 397.431   7
   4  10  -4 708.491 285.837   4
   4 -10  -3 10882.0 1215.30   7
   4  10  -3 12127.9 892.178   4
   4 -10  -3 10620.4 1051.92   3
   4 -10  -2 6093.57 916.162   7
   4  10  -2 6353.62 669.635   4
   4 -10  -2 6543.28 913.025   3
   4 -10  -1 5213.64 881.302   3
   4 -10  -1 4815.20 820.429   7
   4  10  -1 5182.10 590.725   4
   4 -10   0 2853.02 697.965   3
   4 -10   0 2284.62 553.425   7
   4  10   0 2919.52 461.074   4
   4 -10   1 3362.96 688.581   3
   4 -10   1 1610.53 500.168   7
   4  10   1 3033.17 467.323   4
   4 -10   2 1986.52 551.201   3
   4 -10   2 1570.63 454.882   7
   4  10   2 1604.26 340.447   4
   4 -10   3 2506.86 584.130   3
   4 -10   3 1905.94 471.880   7
   4  10   3 2282.71 376.872   4
   4 -10   4 1879.03 471.871   3
   4  10   4 1836.82 337.091   4
   4 -10   5 3622.17 620.123   3
   4  10   5 3428.01 414.611   4
   4 -10   5 3053.34 443.447  13
   4 -10   6 3.04013 145.459   3
   4  10   6 8.84451 113.954   4
   4 -10   6-35.3329 146.676  13
   4 -10   7 4194.68 410.266  13
   4 -10   7 4142.62 469.311   3
   4 -10   8 142.894 105.350  13
   4 -11  -9 109.535 148.806   7
   4 -11  -8 1612.44 347.706   7
   4 -11  -7 171.700 159.739   7
   4 -11  -6 1320.13 385.659   7
   4 -11  -5 1297.65 383.662   7
   4  11  -5 1667.20 290.562   4
   4 -11  -4 311.163 282.668   7
   4  11  -4 621.870 185.289   4
   4 -11  -3 9206.58 1038.59   7
   4  11  -3 9687.58 734.031   4
   4 -11  -3 9120.46 898.772   3
   4 -11  -2 156.341 217.168   3
   4 -11  -2 340.773 266.996   7
   4  11  -2 257.377 206.038   4
   4 -11  -1 2189.07 495.984   3
   4 -11  -1 2727.27 588.237   7
   4  11  -1 2742.93 428.258   4
   4 -11   0 692.688 369.426   3
   4 -11   0 505.273 283.205   7
   4  11   0 726.575 249.497   4
   4 -11   1 3260.79 635.506   3
   4 -11   1 2874.58 555.995   7
   4  11   1 3170.43 430.982   4
   4 -11   2 261.253 204.731   3
   4 -11   2 296.239 211.566   7
   4  11   2 103.781 189.341   4
   4 -11   3 2781.71 546.557   3
   4  11   3 3376.68 416.068   4
   4 -11   4 678.477 307.937   3
   4  11   4 374.453 151.976   4
   4 -11   4 99.4510 171.946  13
   4 -11   5 3871.06 541.619   3
   4  11   5 3660.30 371.011   4
   4 -11   5 3205.35 404.128  13
   4 -11   6 785.566 225.545   3
   4 -11   6 440.475 153.220  13
   4 -11   7 1654.27 213.598  13
   4 -12  -8 753.851 199.257   7
   4 -12  -7 4077.23 504.071   7
   4 -12  -6 293.554 182.032   7
   4 -12  -5 1610.44 370.584   7
   4 -12  -4 29.3713 177.372   7
   4  12  -4 108.306 101.373   4
   4 -12  -3 2120.16 388.980   3
   4 -12  -3 1602.27 400.252   7
   4  12  -3 1492.72 272.247   4
   4 -12  -2 405.124 215.466   3
   4 -12  -2 743.900 335.233   7
   4  12  -2 1038.63 262.303   4
   4 -12  -1 3456.96 552.031   3
   4 -12  -1 2826.94 505.143   7
   4  12  -1 2595.69 364.715   4
   4 -12   0 2467.49 499.588   3
   4 -12   0 1580.86 399.539   7
   4  12   0 2245.27 335.779   4
   4 -12   1 2203.81 461.726   3
   4 -12   1 1870.49 393.392   7
   4  12   1 2120.90 329.273   4
   4 -12   2 377.271 233.662   3
   4  12   2 569.519 201.451   4
   4 -12   3 2669.84 479.757   3
   4  12   3 2921.33 349.762   4
   4 -12   3 1726.43 302.628  13
   4 -12   4-0.52048 146.710   3
   4  12   4-88.7635 112.385   4
   4 -12   4 50.0191 109.778  13
   4 -12   5 1160.06 244.476   3
   4 -12   5 1278.27 202.785  13
   4 -13  -7 944.044 190.054   7
   4 -13  -6-103.130 159.655   7
   4 -13  -5 759.825 216.764   7
   4 -13  -4 256.143 201.917   7
   4 -13  -3 1966.64 310.868   3
   4 -13  -3 1375.90 316.682   7
   4  13  -3 1063.59 187.669   4
   4 -13  -2 178.667 159.859   3
   4 -13  -2 433.072 208.339   7
   4  13  -2 190.063 131.709   4
   4 -13  -1 606.390 219.233   3
   4 -13  -1 983.015 296.967   7
   4  13  -1 687.309 178.576   4
   4 -13   0 76.6022 171.645   3
   4 -13   0 140.611 167.816   7
   4  13   0 77.9002 123.982   4
   4 -13   1 2293.33 410.983   3
   4  13   1 1849.58 265.281   4
   4  13   2 197.522 122.466   4
   4 -13   2 276.198 104.758  13
   4 -13   3 2765.91 387.124   3
   4 -13   4 121.405 87.2712   3
   4 -14  -4-62.7385 115.495   7
   4 -14  -3 2253.93 320.952   7
   4 -14  -2 325.354 130.420   7
   4 -14   0-142.599 112.175   3
   4 -14   1 2270.35 293.325   3
   5   0 -11 455.017 179.946   5
   5   0 -10 2315.54 331.714   5
   5   0  -9 308.801 199.432   5
   5   0  -8 4450.93 560.227   5
   5   0  -7 122.194 200.456   5
   5   0  -6 3073.04 547.970   5
   5   0  -5-527.522 341.622   5
   5   0  -4 428.852 264.578   5
   5   0  -3 258.483 288.439   5
   5   0  -2 2958.55 529.019   5
   5   0  -1-101.293 233.638   5
   5   0   0 17943.3 1334.12   5
   5   0   1-59.9832 233.674   5
   5   0   2 6560.09 759.408   5
   5   0   3 43.3487 236.947   5
   5   0   4 4094.07 546.623   5
   5   0   5-216.597 251.513   5
   5   0   6 8149.60 782.306   5
   5   0   7 354.605 176.005   5
   5   0   7-43.3581 136.621  14
   5   0   8 3191.66 387.270  14
   5  -1 -12 596.879 149.478   5
   5  -1 -11 430.489 165.423   5
   5   1 -10 790.184 181.330   5
   5  -1 -10 1314.81 293.966   5
   5   1  -9 439.969 180.550   5
   5  -1  -9 392.201 205.729   5
   5   1  -8 2455.07 416.370   5
   5  -1  -8 2279.32 445.743   5
   5   1  -7 423.149 259.463   5
   5  -1  -7-1.92493 221.393   5
   5   1  -6 4329.92 620.539   5
   5  -1  -6 4537.16 647.845   5
   5   1  -5 606.977 333.307   5
   5  -1  -5 773.117 338.777   5
   5   1  -4 7077.89 799.047   5
   5  -1  -4 7069.39 848.971   5
   5   1  -3 1065.35 336.374   5
   5  -1  -3 1236.04 360.890   5
   5   1  -2 9289.90 941.886   5
   5  -1  -2 9260.57 947.970   5
   5   1  -1 5733.10 721.197   5
   5  -1  -1 6441.53 766.807   5
   5   1   0 6633.28 790.527   5
   5  -1   0 6502.64 772.695   5
   5   1   1 2112.46 529.988   5
   5  -1   1 1781.26 441.595   5
   5   1   2 4541.30 626.307   5
   5  -1   2 4290.48 595.075   5
   5   1   3 216.028 237.821   5
   5  -1   3 103.130 224.132   5
   5   1   4 2624.93 479.302   5
   5  -1   4 2694.81 447.685   5
   5   1   5 707.065 277.194   5
   5  -1   5 119.678 209.214   5
   5  -1   6 5682.21 626.270   5
   5   1   6 6130.73 695.792   5
   5  -1   7 644.014 177.094   5
   5   1   7 1091.62 253.587   5
   5   1   7 882.977 237.122  14
   5  -1   7 972.177 256.093  14
   5   1   8 3305.44 337.454   5
   5   1   8 2433.11 328.538  14
   5  -1   8 2313.49 326.966  14
   5  -2 -12 791.347 162.121   5
   5  -2 -11 64.8048 159.719   5
   5  -2 -10 2606.29 408.343   5
   5   2  -9-17.4583 191.097   5
   5  -2  -9 23.4668 201.396   5
   5   2  -8 647.010 243.919   5
   5  -2  -8 898.052 296.224   5
   5   2  -7 467.704 245.140   5
   5  -2  -7 457.890 281.420   5
   5   2  -6 6021.75 667.031   5
   5  -2  -6 5695.96 727.522   5
   5   2  -5 2721.48 462.914   5
   5  -2  -5 2711.65 513.166   5
   5   2  -4 2300.65 455.951   5
   5  -2  -4 2710.88 533.571   5
   5   2  -3 1232.46 374.910   5
   5  -2  -3 840.655 396.354   5
   5   2  -2 2380.38 488.838   5
   5  -2  -2 2258.79 502.294   5
   5   2  -1 4830.88 668.896   5
   5  -2  -1 5259.96 671.962   5
   5   2   0 1589.48 442.005   5
   5  -2   0 1691.69 406.878   5
   5   2   1 3063.69 531.963   5
   5  -2   1 2412.35 478.634   5
   5   2   2 4772.46 643.648   5
   5  -2   2 4601.98 594.594   5
   5   2   2 2846.20 404.972   4
   5   2   3 243.664 263.667   5
   5  -2   3-15.1445 222.343   5
   5   2   4 8445.97 810.724   5
   5  -2   4 7533.97 719.526   5
   5   2   5 490.834 307.244   5
   5  -2   5-155.972 157.591   5
   5   2   6 3970.00 543.680   5
   5  -2   6 4048.73 484.675   5
   5   2   6 2648.54 415.250  14
   5   2   7 202.092 164.799  14
   5  -2   7 74.3163 127.892  14
   5   2   8 1673.19 238.072   5
   5   2   8 1066.11 217.657  14
   5  -2   8 1295.87 256.463  14
   5  -3 -12 3415.97 325.260   5
   5  -3 -11 92.8649 163.903   5
   5  -3 -10 1070.23 284.031   5
   5  -3  -9 567.618 272.437   5
   5   3  -8 2280.33 343.197   5
   5  -3  -8 2709.68 477.672   5
   5   3  -7 103.785 192.292   5
   5  -3  -7 548.348 295.267   5
   5   3  -6 5004.11 593.582   5
   5  -3  -6 5654.22 695.379   5
   5   3  -5 1719.66 374.752   5
   5  -3  -5 1632.89 453.277   7
   5  -3  -5 1094.43 366.663   5
   5   3  -4 7350.66 751.965   5
   5  -3  -4 5000.19 801.001   7
   5  -3  -4 7316.94 822.835   5
   5   3  -3 124.656 206.339   5
   5  -3  -3 459.460 292.724   5
   5  -3  -3 469.985 290.858   7
   5   3  -2 4783.18 653.046   5
   5  -3  -2 4215.13 635.881   5
   5  -3  -2 3876.64 765.257   7
   5   3  -1 1687.56 447.753   5
   5  -3  -1 1456.94 409.147   5
   5   3   0 5204.37 654.861   5
   5  -3   0 4763.75 633.479   5
   5   3   1 1022.11 351.619   5
   5  -3   1 706.519 240.854   5
   5   3   1 590.506 254.636   4
   5   3   2 2519.54 496.955   5
   5  -3   2 1672.74 381.287   5
   5   3   2 1782.16 321.007   4
   5   3   3 312.082 231.405   5
   5  -3   3 403.722 204.469   5
   5  -3   3 592.386 214.226  13
   5   3   3 43.0838 130.138   4
   5   3   4 6409.20 738.650   5
   5  -3   4 5004.31 560.193   5
   5   3   5 668.307 355.654   5
   5  -3   5 62.5852 182.614   5
   5   3   5 359.742 188.426  14
   5   3   6 4735.88 546.625   5
   5   3   6 2484.49 371.347  14
   5   3   7 548.384 192.903   5
   5   3   7 418.967 145.967  14
   5  -3   7 453.857 160.465  14
   5   3   8 1925.10 266.046   5
   5  -3   8 464.109 133.048  14
   5  -4 -12 836.988 170.672   5
   5  -4 -11-91.8273 148.893   5
   5  -4 -10 2066.27 347.380   5
   5  -4  -9 531.944 315.642   5
   5  -4  -8 4222.51 623.281   5
   5  -4  -7 636.311 371.490   5
   5   4  -6 2566.55 383.687   5
   5  -4  -6 2391.70 492.475   7
   5  -4  -6 3213.00 535.298   5
   5   4  -5 1460.87 288.526   5
   5  -4  -5 1330.74 433.943   7
   5  -4  -5 1520.28 369.279   5
   5   4  -4 2639.29 439.172   5
   5  -4  -4 2976.54 478.239   5
   5  -4  -4 2184.67 533.906   7
   5   4  -3 1531.25 360.828   5
   5  -4  -3 1113.85 359.483   5
   5  -4  -3 837.474 373.484   7
   5   4  -2 6478.54 705.754   5
   5  -4  -2 5925.64 737.874   5
   5  -4  -2 6216.03 890.815   7
   5  -4  -1 959.260 361.251   3
   5   4  -1 661.152 283.083   5
   5  -4  -1 585.192 281.389   5
   5  -4  -1 878.930 395.022   7
   5  -4   0 1098.90 377.364   3
   5   4   0 1489.54 383.556   5
   5  -4   0 1321.72 388.904   5
   5   4   0 1268.44 331.967   4
   5  -4   1 2953.09 606.031   3
   5   4   1 2249.60 444.002   5
   5  -4   1 1814.21 368.275   5
   5   4   1 1608.22 331.275   4
   5  -4   2 3027.31 614.244   3
   5   4   2 2977.99 520.101   5
   5  -4   2 1761.53 360.978   5
   5   4   2 1256.59 234.986   4
   5   4   3 160.201 265.059   5
   5  -4   3 19.9556 173.308   5
   5  -4   3-92.9154 177.160  13
   5   4   3 121.361 149.512   4
   5   4   4 2645.16 471.474   5
   5  -4   4 2598.50 368.957   5
   5  -4   4 2095.70 368.475  13
   5   4   5 465.537 254.018   5
   5  -4   5 182.634 137.789  13
   5   4   6 8300.34 674.354   5
   5  -4   6 6196.20 480.016  13
   5   4   7 638.763 195.914   5
   5  -4   7 409.499 175.752  14
   5  -5 -11 1327.98 225.310   5
   5  -5 -10 1226.38 261.620   5
   5  -5  -9 1035.05 316.863   5
   5  -5  -8 1508.25 371.841   5
   5  -5  -7 879.075 262.485   7
   5  -5  -7 895.240 277.891   5
   5  -5  -6 1399.67 351.694   7
   5  -5  -6 1013.83 313.320   5
   5  -5  -5 115.577 284.801   7
   5  -5  -5 98.0167 248.768   5
   5   5  -4 4490.30 480.754   5
   5  -5  -4 3271.42 560.184   5
   5  -5  -4 3571.06 663.254   7
   5   5  -3 1512.38 341.057   5
   5  -5  -3 793.966 306.457   5
   5  -5  -3 841.916 441.067   7
   5   5  -2 4943.20 562.112   5
   5  -5  -2 4417.49 639.172   5
   5  -5  -2 4349.76 755.515   7
   5  -5  -2 4966.13 704.628   3
   5  -5  -1 1181.70 381.812   3
   5   5  -1 1072.37 307.480   5
   5  -5  -1 737.084 302.740   5
   5  -5  -1 643.773 365.405   7
   5   5  -1 594.443 240.935   4
   5  -5   0 4354.85 706.363   3
   5   5   0 3899.67 531.893   5
   5  -5   0 3227.95 467.497   5
   5  -5   0 2725.47 618.708   7
   5   5   0 4381.41 536.706   4
   5  -5   1 542.753 285.812   3
   5   5   1 934.841 292.891   5
   5  -5   1-40.4790 179.235   5
   5   5   1 655.735 231.307   4
   5  -5   2 3058.14 562.987   3
   5   5   2 2962.16 478.053   5
   5  -5   2 2039.45 364.826   5
   5   5   2 1976.06 346.060   4
   5  -5   3 2262.02 525.754   3
   5   5   3 1816.67 367.695   5
   5   5   3 1065.38 222.524   4
   5   5   4 1670.77 400.654   5
   5  -5   4 1108.90 254.108  13
   5   5   5 2528.72 412.255   5
   5  -5   5 1951.18 317.258  13
   5   5   6 2920.11 400.123   5
   5  -5   6 1621.64 247.150  13
   5   5   7 2877.68 318.857   5
   5  -5   7 797.114 168.644  14
   5  -6 -11 1307.78 199.884   5
   5  -6 -10 804.396 206.263   5
   5  -6  -9 701.765 228.336   5
   5   6  -9 540.319 138.435   4
   5  -6  -8 466.092 211.394   5
   5   6  -8 909.369 210.888   4
   5  -6  -7 1651.25 360.895   7
   5  -6  -7 1558.36 312.509   5
   5   6  -7 1660.51 293.000   4
   5  -6  -6 1219.30 361.713   7
   5  -6  -6 952.712 306.740   5
   5  -6  -5 813.678 314.722   5
   5  -6  -5 886.419 380.356   7
   5  -6  -4 1135.72 269.937   5
   5  -6  -4 1371.01 402.799   7
   5   6  -4 1577.11 338.047   4
   5  -6  -3 1384.61 334.066   5
   5  -6  -3 1769.93 469.423   7
   5   6  -3 1809.13 396.739   4
   5  -6  -2 3860.60 598.843   3
   5   6  -2 2900.40 399.909   5
   5  -6  -2 2752.50 469.132   5
   5  -6  -2 2498.42 574.613   7
   5   6  -2 3431.26 489.665   4
   5  -6  -1 1568.03 382.183   3
   5   6  -1 1360.35 335.909   5
   5  -6  -1 1067.06 278.854   5
   5  -6  -1 709.313 370.796   7
   5   6  -1 1357.45 322.778   4
   5  -6   0 2347.54 521.462   3
   5   6   0 1742.30 348.008   5
   5  -6   0 1206.93 290.830   5
   5  -6   0 2214.79 536.490   7
   5   6   0 1419.33 341.896   4
   5  -6   1 2103.84 483.008   3
   5   6   1 1954.48 350.054   5
   5   6   1 1637.83 337.659   4
   5  -6   2 3797.72 652.634   3
   5   6   2 4028.62 561.075   5
   5   6   2 2731.25 378.181   4
   5  -6   3 812.713 304.169   3
   5   6   3 626.164 316.697   5
   5   6   3 319.130 158.852   4
   5  -6   3 1170.89 294.055  13
   5   6   4 4743.00 547.311   5
   5  -6   4 3995.90 469.877  13
   5   6   5 1136.29 247.555   5
   5  -6   5 736.620 195.045  13
   5   6   6 954.510 232.679   5
   5  -6   6 610.849 148.796  13
   5  -7 -10 984.672 192.421   5
   5  -7  -9 278.164 146.440   5
   5  -7  -8 1244.55 265.529   5
   5   7  -8 1151.44 204.720   4
   5  -7  -7 1125.68 305.990   7
   5  -7  -7 810.129 220.402   5
   5   7  -7 644.984 202.129   4
   5  -7  -6 535.148 218.139   5
   5  -7  -6 297.456 235.210   7
   5   7  -6 555.010 198.224   4
   5  -7  -5 469.717 217.555   5
   5  -7  -5 502.754 268.302   7
   5   7  -5 498.431 237.211   4
   5  -7  -4 2262.10 396.068   5
   5  -7  -4 3164.23 645.247   7
   5   7  -4 2895.82 418.094   4
   5  -7  -3 2349.47 342.152   5
   5  -7  -3 2920.93 620.388   7
   5   7  -3 2669.40 404.025   4
   5  -7  -2 2899.65 484.932   3
   5  -7  -2 1335.22 307.206   5
   5  -7  -2 2383.40 533.661   7
   5   7  -2 1780.03 326.451   4
   5  -7  -1 1486.56 397.058   3
   5  -7  -1 1464.58 462.212   7
   5   7  -1 747.982 216.274   4
   5  -7   0 917.163 370.497   3
   5   7   0 1140.59 274.584   5
   5  -7   0 1271.90 400.266   7
   5   7   0 1010.59 285.896   4
   5  -7   1 3092.85 605.735   3
   5   7   1 3225.17 484.461   5
   5   7   1 2348.64 362.874   4
   5   7   2 2196.04 386.105   5
   5   7   2 2457.96 347.384   4
   5   7   3 1398.41 272.127   5
   5   7   3 922.090 185.612   4
   5  -7   3 1011.61 266.361  13
   5   7   4 1919.35 306.513   5
   5  -7   4 1997.87 321.644  13
   5   7   5 1824.34 255.984   5
   5  -7   5 1862.98 270.404  13
   5  -7   6 3843.51 328.368  13
   5  -8  -9 341.930 139.787   5
   5  -8  -8 159.356 103.418   5
   5  -8  -7 1667.45 270.859   5
   5  -8  -7 2428.94 380.076   7
   5   8  -7 1717.96 253.964   4
   5  -8  -6 1495.00 258.298   5
   5   8  -6 2056.41 288.194   4
   5  -8  -5 1008.13 222.725   5
   5  -8  -5 1476.25 381.349   7
   5   8  -5 1143.41 255.373   4
   5  -8  -4 2107.16 526.989   7
   5   8  -4 1525.09 275.860   4
   5  -8  -3 5705.57 803.640   7
   5   8  -3 6021.01 565.941   4
   5  -8  -2 162.646 158.243   3
   5  -8  -2 316.726 293.471   7
   5   8  -2 609.547 214.779   4
   5  -8  -1 1788.72 404.090   3
   5  -8  -1 1467.39 415.287   7
   5   8  -1 1651.06 339.875   4
   5  -8   0 881.741 378.051   3
   5  -8   0 525.055 299.769   7
   5   8   0 341.046 183.136   4
   5  -8   1 2282.35 487.497   3
   5   8   1 1475.07 262.216   4
   5  -8   2 1648.64 416.565   3
   5   8   2 1318.80 253.454   4
   5  -8   3 2154.59 415.045   3
   5   8   3 1379.87 241.164   5
   5   8   3 1637.24 246.611   4
   5  -8   3 1937.96 314.461  13
   5  -8   4 706.183 197.830  13
   5  -8   5 670.922 147.720  13
   5  -9  -7 207.108 108.177   7
   5  -9  -6-86.6827 160.904   7
   5   9  -6-213.447 111.102   4
   5  -9  -5 1196.81 328.064   7
   5   9  -5 1050.81 217.490   4
   5  -9  -4 616.879 265.416   7
   5   9  -4 863.943 204.526   4
   5  -9  -3 1487.19 369.628   7
   5   9  -3 1024.06 215.854   4
   5  -9  -2 1226.19 255.937   3
   5  -9  -2 907.816 307.098   7
   5   9  -2 437.878 163.192   4
   5  -9  -1 1158.01 287.168   3
   5  -9  -1 818.087 295.033   7
   5   9  -1 1141.17 246.109   4
   5  -9   0 451.331 217.118   3
   5  -9   0 768.433 288.119   7
   5   9   0 597.424 195.932   4
   5  -9   1 551.688 237.384   3
   5   9   1 895.378 210.303   4
   5  -9   2 354.964 221.716   3
   5   9   2 722.008 186.303   4
   5  -9   2-22.9326 124.114  13
   5  -9   3 910.527 235.327   3
   5   9   3 703.230 161.594   4
   5  -9   3 500.701 168.511  13
   5  -9   4 1280.88 199.332  13
   5 -10  -6 2532.89 326.686   7
   5 -10  -5 1275.53 271.247   7
   5  10  -5 771.625 147.197   4
   5 -10  -4 3026.28 423.143   7
   5  10  -4 1927.16 259.471   4
   5 -10  -3 1869.55 370.872   7
   5  10  -3 1669.33 251.453   4
   5 -10  -2 180.789 149.040   7
   5  10  -2 90.7323 99.2639   4
   5 -10  -1 2616.07 340.767   3
   5 -10  -1 2078.59 392.625   7
   5  10  -1 2420.08 301.609   4
   5 -10   0 451.181 178.846   3
   5  10   0 500.233 138.344   4
   5  10   1 2012.09 248.298   4
   5 -10   1 1561.79 247.117  13
   5 -10   2 280.698 150.474   3
   5  10   2 59.0856 89.8326   4
   5 -10   2 496.875 143.765  13
   5 -11  -4-61.0824 94.3953   7
   5 -11  -3 1651.04 277.607   7
   5  11  -2 86.6972 69.7421   4
   5  11  -1 653.865 142.108   4
   5  11   0 167.631 85.8904   4
   6   0  -7 58.3836 75.3328   5
   6   0  -6 1130.49 188.792   5
   6   0  -5-4.16449 111.347   5
   6   0  -4 6584.27 512.067   5
   6   0  -3-187.271 140.866   5
   6   0  -2 661.348 198.468   5
   6   0  -1-122.648 122.636   5
   6   0   0 1456.11 251.542   5
   6   0   1 266.511 142.463   5
   6   0   2 2585.55 313.450   5
   6  -1  -7 279.305 116.720   5
   6   1  -6 1828.66 224.027   5
   6  -1  -6 2503.86 287.551   5
   6   1  -5 690.036 166.829   5
   6  -1  -5 727.411 181.622   5
   6   1  -4 934.184 207.364   5
   6  -1  -4 1168.93 243.410   5
   6   1  -3 1040.78 218.525   5
   6  -1  -3 1097.84 236.081   5
   6   1  -3 832.848 168.236   4
   6   1  -2 1572.65 259.892   5
   6  -1  -2 1929.31 280.299   5
   6   1  -1 722.920 199.328   5
   6  -1  -1 867.900 209.783   5
   6   1   0 1016.02 227.403   5
   6  -1   0 1110.76 232.407   5
   6   1   1-53.0023 117.605   5
   6  -1   1 289.853 129.707   5
   6   1   2 4018.45 401.592   5
   6  -1   2 3332.33 343.290   5
   6  -2  -7 141.507 117.031   5
   6   2  -7 235.037 88.0202   4
   6  -2  -6 520.156 150.578   5
   6   2  -6 392.607 128.994   4
   6   2  -5 457.779 136.202   5
   6  -2  -5 610.589 175.621   5
   6   2  -5 683.955 159.592   4
   6   2  -4 3071.42 323.872   5
   6  -2  -4 3745.99 386.488   5
   6   2  -4 2785.85 297.031   4
   6   2  -3 531.981 156.249   5
   6  -2  -3 977.800 214.646   5
   6   2  -3 677.850 165.030   4
   6   2  -2 3338.98 351.727   5
   6  -2  -2 3450.15 373.443   5
   6   2  -1 256.255 152.064   5
   6  -2  -1 212.009 114.324   5
   6   2   0 3296.21 346.312   5
   6  -2   0 2729.42 310.317   5
   6   2   1-112.275 132.699   5
   6  -2   1-82.6525 123.482   5
   6   2   2 1098.18 216.447   5
   6  -3  -6 3486.53 345.228   5
   6   3  -6 1966.47 229.877   4
   6  -3  -5 1007.12 209.356   5
   6   3  -5 951.171 175.901   4
   6  -3  -4 3675.04 367.861   5
   6   3  -4 2930.29 299.696   4
   6   3  -3 130.067 92.8047   5
   6   3  -3-70.5625 98.9629   4
   6   3  -2 631.252 163.741   5
   6  -3  -2 277.227 132.431   5
   6   3  -2 456.683 129.426   4
   6   3  -1 592.184 169.064   5
   6  -3  -1 353.443 122.726   5
   6   3  -1 251.532 98.7577   4
   6   3   0 1495.86 249.252   5
   6  -3   0 1031.75 190.445   5
   6   3   1 535.361 187.647   5
   6   4  -6 401.257 119.270   4
   6  -4  -5 256.456 109.334   5
   6   4  -5 159.665 93.6677   4
   6  -4  -4 1690.16 222.239   5
   6   4  -4 1715.01 223.607   4
   6  -4  -3 266.945 112.358   5
   6   4  -3 385.537 126.379   4
   6  -4  -2 1055.89 179.785   5
   6   4  -2 588.280 143.417   4
   6   4  -1 39.7647 76.0258   4
   6   5  -4 437.226 114.539   4
   6   5  -3-14.6792 70.8722   4
   6   5  -2-0.84730 75.6816   4
   0   0   0    0.00    0.00   0

TITL jmwtf50_smartabs in Pc
REM Pc (#7 in standard setting)
CELL 1.54184   4.969504  14.703185  14.480312  90.0000  98.1317  90.0000
ZERR    2.00   0.000387   0.000809   0.000833   0.0000   0.0069   0.0000
LATT -1
SYMM  x,-y, z+1/2
SFAC C H N O Se
UNIT 48.00 34.00 10.00 8.00 2.00
TREF
HKLF 4
END
;
_shelx_hkl_checksum    4217

