data_jmwrx3a
_audit_creation_date               2021-03-18
_audit_creation_method
;
Olex2 1.3
(compiled 2020.11.12 svn.r5f609507 for OlexSys, GUI svn.r6272)
;
_shelx_SHELXL_version_number       '2018/3'
_audit_contact_author_address      ?
_audit_contact_author_email        ?
_audit_contact_author_name         ''
_audit_contact_author_phone        ?
_publ_contact_author_id_orcid      ?
_publ_section_references
;
Dolomanov, O.V., Bourhis, L.J., Gildea, R.J, Howard, J.A.K. & Puschmann, H.
 (2009), J. Appl. Cryst. 42, 339-341.

Sheldrick, G.M. (2015). Acta Cryst. A71, 3-8.

Sheldrick, G.M. (2015). Acta Cryst. C71, 3-8.
;
_chemical_name_common              ?
_chemical_name_systematic          ?
_chemical_formula_moiety           'C25 H25 N3 O3 Se'
_chemical_formula_sum              'C25 H25 N3 O3 Se'
_chemical_formula_weight           494.44
_chemical_melting_point            ?
_chemical_oxdiff_formula           'C25 H25 N3 O3 Se'
_chemical_oxdiff_usercomment       'Ruyi EBS-CO2Et pyrr-Pyr'
loop_
  _atom_type_symbol
  _atom_type_description
  _atom_type_scat_dispersion_real
  _atom_type_scat_dispersion_imag
  _atom_type_scat_source
 'C' 'C' 0.0181 0.0091 'International Tables Vol C Tables 4.2.6.8 and 6.1.1.4'
 'H' 'H' 0.0000 0.0000 'International Tables Vol C Tables 4.2.6.8 and 6.1.1.4'
 'N' 'N' 0.0311 0.0180 'International Tables Vol C Tables 4.2.6.8 and 6.1.1.4'
 'O' 'O' 0.0492 0.0322 'International Tables Vol C Tables 4.2.6.8 and 6.1.1.4'
 'Se' 'Se' -0.7943 1.1372
 'International Tables Vol C Tables 4.2.6.8 and 6.1.1.4'

_shelx_space_group_comment
;
The symmetry employed for this shelxl refinement is uniquely defined
by the following loop, which should always be used as a source of
symmetry information in preference to the above space-group names.
They are only intended as comments.
;
_space_group_crystal_system        'triclinic'
_space_group_IT_number             2
_space_group_name_H-M_alt          'P -1'
_space_group_name_Hall             '-P 1'
loop_
  _space_group_symop_operation_xyz
 'x, y, z'
 '-x, -y, -z'

_cell_length_a                     9.8257(6)
_cell_length_b                     9.8381(3)
_cell_length_c                     11.6093(7)
_cell_angle_alpha                  97.830(4)
_cell_angle_beta                   100.220(5)
_cell_angle_gamma                  92.729(4)
_cell_volume                       1091.15(10)
_cell_formula_units_Z              2
_cell_measurement_reflns_used      5860
_cell_measurement_temperature      100.00(10)
_cell_measurement_theta_max        76.0950
_cell_measurement_theta_min        4.5550
_shelx_estimated_absorpt_T_max     0.796
_shelx_estimated_absorpt_T_min     0.463
_exptl_absorpt_coefficient_mu      2.602
_exptl_absorpt_correction_T_max    1.000
_exptl_absorpt_correction_T_min    0.348
_exptl_absorpt_correction_type     gaussian
_exptl_absorpt_process_details
;
CrysAlisPro 1.171.40.67a (Rigaku Oxford Diffraction, 2019)
Numerical absorption correction based on gaussian integration over
			a multifaceted crystal model
Empirical absorption correction using spherical harmonics,
 implemented in SCALE3 ABSPACK scaling algorithm.
;
_exptl_absorpt_special_details     ?
_exptl_crystal_colour              colourless
_exptl_crystal_colour_primary      colourless
_exptl_crystal_density_diffrn      1.505
_exptl_crystal_density_meas        ?
_exptl_crystal_density_method      ?
_exptl_crystal_description         block
_exptl_crystal_F_000               508
loop_
  _exptl_crystal_face_index_h
  _exptl_crystal_face_index_k
  _exptl_crystal_face_index_l
  _exptl_crystal_face_perp_dist
 -2 0 1 0.1087
 2 -1 -1 0.0779
 -2 4 -5 0.0137
 2 -5 5 0.0719
 3 -5 -2 0.1025
 -3 5 2 0.0472
 3 0 6 0.0851
 -3 0 -6 0.0576
 0 0 7 0.0774
 0 0 -7 0.0552

_exptl_crystal_size_max            0.35
_exptl_crystal_size_mid            0.171
_exptl_crystal_size_min            0.092
loop_
  _exptl_oxdiff_crystal_face_indexfrac_h
  _exptl_oxdiff_crystal_face_indexfrac_k
  _exptl_oxdiff_crystal_face_indexfrac_l
  _exptl_oxdiff_crystal_face_x
  _exptl_oxdiff_crystal_face_y
  _exptl_oxdiff_crystal_face_z
 -2.0000 -0.0000 1.0000 -0.2983 -0.1163 -0.0442
 2.0000 -1.0000 -1.0000 0.2681 0.1304 0.1991
 -2.1440 4.1258 -5.3692 0.2602 -0.8778 -0.4022
 2.0907 -4.7861 4.7205 -0.2404 0.8112 0.5331
 2.6486 -5.4464 -2.3092 0.2999 0.1245 0.9458
 -2.5806 5.4786 2.2833 -0.2893 -0.1202 -0.9497
 2.9886 -0.1090 5.8480 -0.0763 0.9674 -0.2413
 -2.9624 -0.0023 -5.8485 0.0760 -0.9630 0.2586
 -0.1256 -0.0960 7.3768 -0.5385 0.7832 -0.3109
 0.1423 -0.0635 -7.3534 0.5339 -0.7765 0.3345

_exptl_transmission_factor_max     ?
_exptl_transmission_factor_min     ?
_diffrn_reflns_av_R_equivalents    0.0471
_diffrn_reflns_av_unetI/netI       0.0443
_diffrn_reflns_Laue_measured_fraction_full  0.988
_diffrn_reflns_Laue_measured_fraction_max  0.965
_diffrn_reflns_limit_h_max         12
_diffrn_reflns_limit_h_min         -12
_diffrn_reflns_limit_k_max         9
_diffrn_reflns_limit_k_min         -12
_diffrn_reflns_limit_l_max         14
_diffrn_reflns_limit_l_min         -14
_diffrn_reflns_number              12186
_diffrn_reflns_point_group_measured_fraction_full  0.988
_diffrn_reflns_point_group_measured_fraction_max  0.965
_diffrn_reflns_theta_full          67.684
_diffrn_reflns_theta_max           77.041
_diffrn_reflns_theta_min           4.549
_diffrn_ambient_environment        N~2~
_diffrn_ambient_temperature        100.00(10)
_diffrn_detector                   'Hybrid Pixel Array Detector'
_diffrn_detector_area_resol_mean   10.0000
_diffrn_detector_type              HyPix
_diffrn_measured_fraction_theta_full  0.988
_diffrn_measured_fraction_theta_max  0.965
_diffrn_measurement_details
;
List of Runs (angles in degrees, time in seconds):

  # Type    Start    End  Width  t~exp~   \w     \q     \k     \f   Frames
--------------------------------------------------------------------------
  1  \w    147.00 173.00   0.50    0.90    --  107.75  45.00  60.00   52
  2  \w    125.00 151.00   0.50    0.90    --  107.75  98.00 176.00   52
  3  \w     95.00 131.00   0.50    0.90    --  107.75  45.00  60.00   72
  4  \w     96.00 170.00   0.50    0.90    --  107.75  15.00   0.00  148
  5  \w    151.00 177.00   0.50    0.90    --  107.75  30.00 -60.00   52
  6  \w    101.00 178.00   0.50    0.90    --  107.75  77.00-150.00  154
  7  \w     96.00 176.00   0.50    0.90    --  107.75  15.00-150.00  160
  8  \w    103.00 166.00   0.50    0.90    --  107.75  77.00-120.00  126
  9  \w     97.00 148.00   0.50    0.90    --  107.75  30.00 -60.00  102
 10  \w     87.00 120.00   0.50    0.23    --   48.20  57.00-150.00   66
 11  \w     35.00  69.00   0.50    0.90    --  107.75 -61.00-150.00   68
 12  \w     40.00 100.00   0.50    0.90    --  107.75 -94.00 -90.00  120
 13  \w     75.00 108.00   0.50    0.90    --  107.75-109.00-114.97   66
 14  \w     80.00 106.00   0.50    0.90    --  107.75 -94.00 -60.00   52
 15  \w     67.00  93.00   0.50    0.90    --  107.75 -98.00  69.00   52
 16  \w     78.00 106.00   0.50    0.90    --  107.75 -94.00  90.00   56
 17  \w     86.00 121.00   0.50    0.90    --  107.75 -77.00 120.00   70
 18  \w     39.00  70.00   0.50    0.90    --  107.75 -77.00 120.00   62
 19  \w     39.00  69.00   0.50    0.90    --  107.75 -61.00 120.00   60
 20  \w     38.00  69.00   0.50    0.90    --  107.75 -94.00  90.00   62
 21  \w     36.00 106.00   0.50    0.90    --  107.75 -94.00 120.00  140
 22  \w     36.00 106.00   0.50    0.90    --  107.75 -94.00  30.00  140
 23  \w     38.00  96.00   0.50    0.90    --  107.75 -94.00   0.00  116
 24  \w     41.00 102.00   0.50    0.90    --  107.75 -94.00 -30.00  122
 25  \w     37.00 112.00   0.50    0.90    --  107.75-125.00-150.00  150
 26  \w     45.00  75.00   0.50    0.90    --  107.75 -94.00 -60.00   60
 27  \w     35.00  67.00   0.50    0.90    --  107.75 -61.00-180.00   64
 28  \w    -26.00  11.00   0.50    0.23    --   48.20 -19.00-180.00   74
 29  \w      2.00  69.00   0.50    0.23    --   48.20 -98.00  69.00  134
 30  \w    -20.00  60.00   0.50    0.23    --   48.20 -57.00  90.00  160
 31  \w    -19.00  25.00   0.50    0.23    --  -48.20  98.00 176.00   88
 32  \w    -67.00 -42.00   0.50    0.90    --  -86.25  98.00 176.00   50
 33  \w    -79.00 -23.00   0.50    0.23    --  -48.20  98.00 176.00  112
 34  \w   -111.00 -86.00   0.50    0.90    --  -86.25 -98.00  69.00   50
 35  \w   -119.00 -87.00   0.50    0.23    --  -48.20-125.00 150.00   64
 36  \w   -119.00 -88.00   0.50    0.23    --  -48.20 -57.00  60.00   62
 37  \w   -158.00 -97.00   0.50    0.90    --  -86.25 -61.00 150.00  122
;
_diffrn_measurement_device         'four-circle diffractometer'
_diffrn_measurement_device_type    'XtaLAB Synergy, Dualflex, HyPix'
_diffrn_measurement_method         '\w scans'
_diffrn_orient_matrix_type        
 'CrysAlisPro convention (1999,Acta A55,543-557)'
_diffrn_orient_matrix_UB_11        0.1138387000
_diffrn_orient_matrix_UB_12        0.0302677000
_diffrn_orient_matrix_UB_13        -0.0706668000
_diffrn_orient_matrix_UB_21        0.1120748000
_diffrn_orient_matrix_UB_22        -0.0141099000
_diffrn_orient_matrix_UB_23        0.1078933000
_diffrn_orient_matrix_UB_31        0.0000015000
_diffrn_orient_matrix_UB_32        -0.1549373000
_diffrn_orient_matrix_UB_33        -0.0441553000
_diffrn_radiation_monochromator    mirror
_diffrn_radiation_probe            x-ray
_diffrn_radiation_type             'Cu K\a'
_diffrn_radiation_wavelength       1.54184
_diffrn_source                     'micro-focus sealed X-ray tube'
_diffrn_source_type                'PhotonJet (Cu) X-ray Source'
_reflns_Friedel_coverage           0.000
_reflns_Friedel_fraction_full      .
_reflns_Friedel_fraction_max       .
_reflns_number_gt                  4151
_reflns_number_total               4458
_reflns_odcompleteness_completeness  97.70
_reflns_odcompleteness_iscentric   1
_reflns_odcompleteness_theta       75.12
_reflns_special_details
;
 Reflections were merged by SHELXL according to the crystal
 class for the calculation of statistics and refinement.
 
 _reflns_Friedel_fraction is defined as the number of unique
 Friedel pairs measured divided by the number that would be
 possible theoretically, ignoring centric projections and
 systematic absences.
;
_reflns_threshold_expression       'I > 2\s(I)'
_computing_cell_refinement         'CrysAlisPro 1.171.40.67a (Rigaku OD, 2019)'
_computing_data_collection         'CrysAlisPro 1.171.40.67a (Rigaku OD, 2019)'
_computing_data_reduction          'CrysAlisPro 1.171.40.67a (Rigaku OD, 2019)'
_computing_molecular_graphics      'Olex2 1.3 (Dolomanov et al., 2009)'
_computing_publication_material    'Olex2 1.3 (Dolomanov et al., 2009)'
_computing_structure_refinement    'SHELXL 2018/3 (Sheldrick, 2015)'
_computing_structure_solution      'SHELXT  (Sheldrick, 2015)'
_refine_diff_density_max           1.781
_refine_diff_density_min           -1.153
_refine_diff_density_rms           0.121
_refine_ls_extinction_coef         .
_refine_ls_extinction_method       none
_refine_ls_goodness_of_fit_ref     1.051
_refine_ls_hydrogen_treatment      constr
_refine_ls_matrix_type             full
_refine_ls_number_parameters       290
_refine_ls_number_reflns           4458
_refine_ls_number_restraints       0
_refine_ls_R_factor_all            0.0578
_refine_ls_R_factor_gt             0.0554
_refine_ls_restrained_S_all        1.051
_refine_ls_shift/su_max            0.001
_refine_ls_shift/su_mean           0.000
_refine_ls_structure_factor_coef   Fsqd
_refine_ls_weighting_details      
 'w=1/[\s^2^(Fo^2^)+(0.1089P)^2^+0.9924P] where P=(Fo^2^+2Fc^2^)/3'
_refine_ls_weighting_scheme        calc
_refine_ls_wR_factor_gt            0.1515
_refine_ls_wR_factor_ref           0.1539
_refine_special_details            ?
_olex2_refinement_description
;
1.a Secondary CH2 refined with riding coordinates:
 C22(H22A,H22B), C25(H25A,H25B), C23(H23A,H23B), C15(H15A,H15B), C24(H24A,H24B)
1.b Aromatic/amide H refined with riding coordinates:
 C13(H13), C18(H18), C10(H10), C6(H6), C12(H12), C9(H9), C17(H17), C20(H20),
 C3(H3), C21(H21), C5(H5), C4(H4)
1.c Idealised Me refined as rotating group:
 C16(H16A,H16B,H16C)
;
_atom_sites_solution_hydrogens     geom
_atom_sites_solution_primary       dual
_atom_sites_solution_secondary     ?
loop_
  _atom_site_label
  _atom_site_type_symbol
  _atom_site_fract_x
  _atom_site_fract_y
  _atom_site_fract_z
  _atom_site_U_iso_or_equiv
  _atom_site_adp_type
  _atom_site_occupancy
  _atom_site_site_symmetry_order
  _atom_site_calc_flag
  _atom_site_refinement_flags_posn
  _atom_site_refinement_flags_adp
  _atom_site_refinement_flags_occupancy
  _atom_site_disorder_assembly
  _atom_site_disorder_group
 Se1 Se 0.23890(3) 0.48705(3) 0.43213(3) 0.02436(15) Uani 1 1 d . . . . .
 O1 O 0.4789(3) 0.8047(2) 0.3698(2) 0.0318(5) Uani 1 1 d . . . . .
 O2 O 0.5825(3) 0.8326(3) 1.0252(2) 0.0361(6) Uani 1 1 d . . . . .
 N1 N 0.3580(3) 0.6613(3) 0.4644(2) 0.0256(5) Uani 1 1 d . . . . .
 O3 O 0.6929(3) 0.9866(2) 0.9408(2) 0.0320(5) Uani 1 1 d . . . . .
 N2 N 0.1101(3) 0.2751(3) 0.3752(3) 0.0278(6) Uani 1 1 d . . . . .
 N3 N -0.0737(3) -0.1252(3) 0.3159(3) 0.0279(6) Uani 1 1 d . . . . .
 C8 C 0.4114(3) 0.7206(3) 0.5816(3) 0.0239(6) Uani 1 1 d . . . . .
 C13 C 0.4470(3) 0.8624(3) 0.6126(3) 0.0233(6) Uani 1 1 d . . . . .
 H13 H 0.431387 0.920594 0.555593 0.028 Uiso 1 1 calc R U . . .
 C19 C -0.0132(3) 0.0035(3) 0.3379(3) 0.0254(6) Uani 1 1 d . . . . .
 C22 C -0.2200(3) -0.1587(3) 0.3171(3) 0.0284(7) Uani 1 1 d . . . . .
 H22A H -0.278746 -0.098952 0.273857 0.034 Uiso 1 1 calc R U . . .
 H22B H -0.237053 -0.150674 0.397461 0.034 Uiso 1 1 calc R U . . .
 C18 C -0.0872(3) 0.1189(3) 0.3675(3) 0.0275(6) Uani 1 1 d . . . . .
 H18 H -0.179156 0.106608 0.376083 0.033 Uiso 1 1 calc R U . . .
 C10 C 0.4833(4) 0.6913(3) 0.7872(3) 0.0288(7) Uani 1 1 d . . . . .
 H10 H 0.492000 0.634867 0.845820 0.035 Uiso 1 1 calc R U . . .
 C6 C 0.1732(4) 0.4162(3) 0.1716(3) 0.0310(7) Uani 1 1 d . . . . .
 H6 H 0.112989 0.343610 0.179478 0.037 Uiso 1 1 calc R U . . .
 C12 C 0.5056(3) 0.9154(3) 0.7286(3) 0.0246(6) Uani 1 1 d . . . . .
 H12 H 0.531594 1.008954 0.748378 0.030 Uiso 1 1 calc R U . . .
 C9 C 0.4272(3) 0.6364(3) 0.6701(3) 0.0273(6) Uani 1 1 d . . . . .
 H9 H 0.399988 0.543053 0.650872 0.033 Uiso 1 1 calc R U . . .
 C17 C -0.0234(3) 0.2492(3) 0.3837(3) 0.0278(6) Uani 1 1 d . . . . .
 H17 H -0.074986 0.323453 0.401442 0.033 Uiso 1 1 calc R U . . .
 C25 C 0.0014(3) -0.2484(3) 0.2902(3) 0.0291(7) Uani 1 1 d . . . . .
 H25A H 0.083149 -0.250017 0.350569 0.035 Uiso 1 1 calc R U . . .
 H25B H 0.029039 -0.252570 0.213682 0.035 Uiso 1 1 calc R U . . .
 C1 C 0.2441(3) 0.5033(3) 0.2712(3) 0.0262(6) Uani 1 1 d . . . . .
 C11 C 0.5263(3) 0.8304(3) 0.8161(3) 0.0263(6) Uani 1 1 d . . . . .
 C20 C 0.1277(3) 0.0312(3) 0.3308(3) 0.0286(6) Uani 1 1 d . . . . .
 H20 H 0.182574 -0.040464 0.313547 0.034 Uiso 1 1 calc R U . . .
 C3 C 0.3525(4) 0.6364(3) 0.1465(3) 0.0305(7) Uani 1 1 d . . . . .
 H3 H 0.412096 0.709314 0.138288 0.037 Uiso 1 1 calc R U . . .
 C2 C 0.3303(3) 0.6147(3) 0.2581(3) 0.0260(6) Uani 1 1 d . . . . .
 C7 C 0.3982(3) 0.7057(3) 0.3675(3) 0.0254(6) Uani 1 1 d . . . . .
 C23 C -0.2452(3) -0.3070(3) 0.2563(3) 0.0297(7) Uani 1 1 d . . . . .
 H23A H -0.270730 -0.311462 0.171117 0.036 Uiso 1 1 calc R U . . .
 H23B H -0.317718 -0.355680 0.284767 0.036 Uiso 1 1 calc R U . . .
 C21 C 0.1822(3) 0.1655(3) 0.3499(3) 0.0295(7) Uani 1 1 d . . . . .
 H21 H 0.274922 0.181543 0.345065 0.035 Uiso 1 1 calc R U . . .
 C5 C 0.1939(4) 0.4393(4) 0.0612(3) 0.0356(8) Uani 1 1 d . . . . .
 H5 H 0.146645 0.381631 -0.005528 0.043 Uiso 1 1 calc R U . . .
 C14 C 0.5993(3) 0.8813(3) 0.9384(3) 0.0286(7) Uani 1 1 d . . . . .
 C4 C 0.2839(4) 0.5471(4) 0.0474(3) 0.0339(7) Uani 1 1 d . . . . .
 H4 H 0.298208 0.559519 -0.027688 0.041 Uiso 1 1 calc R U . . .
 C15 C 0.7780(4) 1.0365(4) 1.0555(3) 0.0352(7) Uani 1 1 d . . . . .
 H15A H 0.820611 0.960828 1.089967 0.042 Uiso 1 1 calc R U . . .
 H15B H 0.722011 1.080278 1.108700 0.042 Uiso 1 1 calc R U . . .
 C24 C -0.1049(4) -0.3666(3) 0.2906(3) 0.0303(7) Uani 1 1 d . . . . .
 H24A H -0.095433 -0.394479 0.368481 0.036 Uiso 1 1 calc R U . . .
 H24B H -0.094372 -0.445308 0.233672 0.036 Uiso 1 1 calc R U . . .
 C16 C 0.8875(5) 1.1385(4) 1.0361(4) 0.0467(10) Uani 1 1 d . . . . .
 H16A H 0.935262 1.096876 0.976562 0.070 Uiso 1 1 calc R U . . .
 H16B H 0.952430 1.165942 1.108729 0.070 Uiso 1 1 calc R U . . .
 H16C H 0.844759 1.217707 1.010621 0.070 Uiso 1 1 calc R U . . .

loop_
  _atom_site_aniso_label
  _atom_site_aniso_U_11
  _atom_site_aniso_U_22
  _atom_site_aniso_U_33
  _atom_site_aniso_U_23
  _atom_site_aniso_U_13
  _atom_site_aniso_U_12
 Se1 0.0228(2) 0.0187(2) 0.0293(2) -0.00085(13) 0.00353(13) -0.00358(13)
 O1 0.0356(12) 0.0223(11) 0.0352(12) 0.0009(9) 0.0059(10) -0.0073(9)
 O2 0.0384(13) 0.0378(13) 0.0304(12) 0.0037(10) 0.0046(10) -0.0050(11)
 N1 0.0266(13) 0.0183(12) 0.0296(14) 0.0008(10) 0.0022(10) -0.0034(10)
 O3 0.0286(11) 0.0301(12) 0.0328(12) 0.0005(9) -0.0015(9) -0.0064(9)
 N2 0.0272(13) 0.0193(12) 0.0348(15) -0.0005(10) 0.0055(11) -0.0040(10)
 N3 0.0239(13) 0.0191(12) 0.0380(15) -0.0011(10) 0.0030(11) -0.0002(10)
 C8 0.0209(13) 0.0194(13) 0.0303(16) 0.0000(11) 0.0052(11) -0.0003(11)
 C13 0.0221(13) 0.0176(13) 0.0291(15) 0.0021(11) 0.0030(11) 0.0006(11)
 C19 0.0234(14) 0.0221(14) 0.0287(15) 0.0017(11) 0.0021(11) -0.0034(11)
 C22 0.0249(15) 0.0207(14) 0.0379(17) 0.0005(12) 0.0051(13) -0.0033(11)
 C18 0.0214(14) 0.0231(15) 0.0361(17) 0.0001(12) 0.0048(12) -0.0017(11)
 C10 0.0304(16) 0.0221(15) 0.0318(16) 0.0041(12) 0.0015(13) -0.0028(12)
 C6 0.0297(16) 0.0277(16) 0.0317(17) -0.0020(13) 0.0023(13) -0.0062(13)
 C12 0.0207(13) 0.0195(13) 0.0322(16) -0.0008(11) 0.0051(12) -0.0017(11)
 C9 0.0304(16) 0.0173(13) 0.0319(16) 0.0012(11) 0.0026(12) -0.0025(11)
 C17 0.0238(15) 0.0218(14) 0.0371(17) 0.0017(12) 0.0058(12) -0.0008(11)
 C25 0.0271(15) 0.0196(14) 0.0384(18) 0.0004(12) 0.0021(13) 0.0041(12)
 C1 0.0216(14) 0.0237(14) 0.0313(16) 0.0002(12) 0.0033(12) -0.0012(11)
 C11 0.0213(14) 0.0254(15) 0.0304(16) 0.0007(12) 0.0029(12) -0.0001(11)
 C20 0.0234(14) 0.0246(15) 0.0358(17) 0.0004(12) 0.0035(12) 0.0004(12)
 C3 0.0330(16) 0.0250(15) 0.0322(17) 0.0026(13) 0.0042(13) 0.0017(13)
 C2 0.0281(15) 0.0192(14) 0.0300(16) 0.0013(12) 0.0057(12) 0.0014(11)
 C7 0.0223(14) 0.0199(14) 0.0330(16) 0.0031(12) 0.0033(12) -0.0009(11)
 C23 0.0275(15) 0.0200(15) 0.0385(18) -0.0003(12) 0.0030(13) -0.0041(12)
 C21 0.0210(14) 0.0244(15) 0.0403(18) -0.0025(13) 0.0043(12) -0.0017(12)
 C5 0.0369(19) 0.0324(18) 0.0326(18) -0.0038(14) 0.0015(14) -0.0036(14)
 C14 0.0251(15) 0.0248(15) 0.0337(17) -0.0004(12) 0.0030(13) 0.0014(12)
 C4 0.0380(18) 0.0303(16) 0.0313(17) 0.0023(13) 0.0030(14) -0.0001(14)
 C15 0.0290(16) 0.0400(18) 0.0305(17) -0.0049(14) -0.0017(13) -0.0037(14)
 C24 0.0324(17) 0.0203(14) 0.0353(17) 0.0017(12) 0.0014(13) -0.0006(12)
 C16 0.042(2) 0.037(2) 0.053(2) 0.0084(17) -0.0121(18) -0.0109(16)

_geom_special_details
;
 All esds (except the esd in the dihedral angle between two l.s. planes)
 are estimated using the full covariance matrix.  The cell esds are taken
 into account individually in the estimation of esds in distances, angles
 and torsion angles; correlations between esds in cell parameters are only
 used when they are defined by crystal symmetry.  An approximate (isotropic)
 treatment of cell esds is used for estimating esds involving l.s. planes.
;
loop_
  _geom_bond_atom_site_label_1
  _geom_bond_atom_site_label_2
  _geom_bond_distance
  _geom_bond_site_symmetry_2
  _geom_bond_publ_flag
 Se1 N1 1.982(3) . ?
 Se1 N2 2.338(3) . ?
 Se1 C1 1.907(3) . ?
 O1 C7 1.220(4) . ?
 O2 C14 1.207(4) . ?
 N1 C8 1.403(4) . ?
 N1 C7 1.373(4) . ?
 O3 C14 1.346(4) . ?
 O3 C15 1.449(4) . ?
 N2 C17 1.347(4) . ?
 N2 C21 1.346(4) . ?
 N3 C19 1.345(4) . ?
 N3 C22 1.462(4) . ?
 N3 C25 1.472(4) . ?
 C8 C13 1.404(4) . ?
 C8 C9 1.397(4) . ?
 C13 H13 0.9300 . ?
 C13 C12 1.386(4) . ?
 C19 C18 1.413(4) . ?
 C19 C20 1.417(4) . ?
 C22 H22A 0.9700 . ?
 C22 H22B 0.9700 . ?
 C22 C23 1.520(4) . ?
 C18 H18 0.9300 . ?
 C18 C17 1.374(4) . ?
 C10 H10 0.9300 . ?
 C10 C9 1.396(5) . ?
 C10 C11 1.390(5) . ?
 C6 H6 0.9300 . ?
 C6 C1 1.395(4) . ?
 C6 C5 1.380(5) . ?
 C12 H12 0.9300 . ?
 C12 C11 1.395(5) . ?
 C9 H9 0.9300 . ?
 C17 H17 0.9300 . ?
 C25 H25A 0.9700 . ?
 C25 H25B 0.9700 . ?
 C25 C24 1.527(5) . ?
 C1 C2 1.394(5) . ?
 C11 C14 1.481(5) . ?
 C20 H20 0.9300 . ?
 C20 C21 1.375(5) . ?
 C3 H3 0.9300 . ?
 C3 C2 1.394(5) . ?
 C3 C4 1.393(5) . ?
 C2 C7 1.481(4) . ?
 C23 H23A 0.9700 . ?
 C23 H23B 0.9700 . ?
 C23 C24 1.532(5) . ?
 C21 H21 0.9300 . ?
 C5 H5 0.9300 . ?
 C5 C4 1.393(5) . ?
 C4 H4 0.9300 . ?
 C15 H15A 0.9700 . ?
 C15 H15B 0.9700 . ?
 C15 C16 1.503(6) . ?
 C24 H24A 0.9700 . ?
 C24 H24B 0.9700 . ?
 C16 H16A 0.9600 . ?
 C16 H16B 0.9600 . ?
 C16 H16C 0.9600 . ?

loop_
  _geom_angle_atom_site_label_1
  _geom_angle_atom_site_label_2
  _geom_angle_atom_site_label_3
  _geom_angle
  _geom_angle_site_symmetry_1
  _geom_angle_site_symmetry_3
  _geom_angle_publ_flag
 N1 Se1 N2 173.46(11) . . ?
 C1 Se1 N1 83.38(13) . . ?
 C1 Se1 N2 91.03(12) . . ?
 C8 N1 Se1 119.8(2) . . ?
 C7 N1 Se1 115.7(2) . . ?
 C7 N1 C8 123.8(3) . . ?
 C14 O3 C15 115.6(3) . . ?
 C17 N2 Se1 126.0(2) . . ?
 C21 N2 Se1 116.2(2) . . ?
 C21 N2 C17 116.8(3) . . ?
 C19 N3 C22 124.0(3) . . ?
 C19 N3 C25 123.4(3) . . ?
 C22 N3 C25 112.6(2) . . ?
 N1 C8 C13 121.8(3) . . ?
 C9 C8 N1 119.1(3) . . ?
 C9 C8 C13 119.1(3) . . ?
 C8 C13 H13 120.1 . . ?
 C12 C13 C8 119.7(3) . . ?
 C12 C13 H13 120.1 . . ?
 N3 C19 C18 121.8(3) . . ?
 N3 C19 C20 121.9(3) . . ?
 C18 C19 C20 116.3(3) . . ?
 N3 C22 H22A 111.1 . . ?
 N3 C22 H22B 111.1 . . ?
 N3 C22 C23 103.4(3) . . ?
 H22A C22 H22B 109.1 . . ?
 C23 C22 H22A 111.1 . . ?
 C23 C22 H22B 111.1 . . ?
 C19 C18 H18 120.0 . . ?
 C17 C18 C19 120.0(3) . . ?
 C17 C18 H18 120.0 . . ?
 C9 C10 H10 120.1 . . ?
 C11 C10 H10 120.1 . . ?
 C11 C10 C9 119.9(3) . . ?
 C1 C6 H6 120.5 . . ?
 C5 C6 H6 120.5 . . ?
 C5 C6 C1 118.9(3) . . ?
 C13 C12 H12 119.5 . . ?
 C13 C12 C11 121.0(3) . . ?
 C11 C12 H12 119.5 . . ?
 C8 C9 H9 119.7 . . ?
 C10 C9 C8 120.6(3) . . ?
 C10 C9 H9 119.7 . . ?
 N2 C17 C18 123.5(3) . . ?
 N2 C17 H17 118.3 . . ?
 C18 C17 H17 118.3 . . ?
 N3 C25 H25A 111.1 . . ?
 N3 C25 H25B 111.1 . . ?
 N3 C25 C24 103.2(3) . . ?
 H25A C25 H25B 109.1 . . ?
 C24 C25 H25A 111.1 . . ?
 C24 C25 H25B 111.1 . . ?
 C6 C1 Se1 126.5(3) . . ?
 C2 C1 Se1 113.5(2) . . ?
 C2 C1 C6 120.0(3) . . ?
 C10 C11 C12 119.5(3) . . ?
 C10 C11 C14 118.1(3) . . ?
 C12 C11 C14 122.3(3) . . ?
 C19 C20 H20 120.4 . . ?
 C21 C20 C19 119.2(3) . . ?
 C21 C20 H20 120.4 . . ?
 C2 C3 H3 120.5 . . ?
 C4 C3 H3 120.5 . . ?
 C4 C3 C2 118.9(3) . . ?
 C1 C2 C3 120.8(3) . . ?
 C1 C2 C7 117.0(3) . . ?
 C3 C2 C7 122.2(3) . . ?
 O1 C7 N1 125.7(3) . . ?
 O1 C7 C2 124.2(3) . . ?
 N1 C7 C2 110.1(3) . . ?
 C22 C23 H23A 111.1 . . ?
 C22 C23 H23B 111.1 . . ?
 C22 C23 C24 103.2(3) . . ?
 H23A C23 H23B 109.1 . . ?
 C24 C23 H23A 111.1 . . ?
 C24 C23 H23B 111.1 . . ?
 N2 C21 C20 124.2(3) . . ?
 N2 C21 H21 117.9 . . ?
 C20 C21 H21 117.9 . . ?
 C6 C5 H5 119.3 . . ?
 C6 C5 C4 121.5(3) . . ?
 C4 C5 H5 119.3 . . ?
 O2 C14 O3 123.4(3) . . ?
 O2 C14 C11 125.2(3) . . ?
 O3 C14 C11 111.3(3) . . ?
 C3 C4 H4 120.1 . . ?
 C5 C4 C3 119.8(4) . . ?
 C5 C4 H4 120.1 . . ?
 O3 C15 H15A 110.3 . . ?
 O3 C15 H15B 110.3 . . ?
 O3 C15 C16 107.1(3) . . ?
 H15A C15 H15B 108.6 . . ?
 C16 C15 H15A 110.3 . . ?
 C16 C15 H15B 110.3 . . ?
 C25 C24 C23 104.2(3) . . ?
 C25 C24 H24A 110.9 . . ?
 C25 C24 H24B 110.9 . . ?
 C23 C24 H24A 110.9 . . ?
 C23 C24 H24B 110.9 . . ?
 H24A C24 H24B 108.9 . . ?
 C15 C16 H16A 109.5 . . ?
 C15 C16 H16B 109.5 . . ?
 C15 C16 H16C 109.5 . . ?
 H16A C16 H16B 109.5 . . ?
 H16A C16 H16C 109.5 . . ?
 H16B C16 H16C 109.5 . . ?

loop_
  _geom_torsion_atom_site_label_1
  _geom_torsion_atom_site_label_2
  _geom_torsion_atom_site_label_3
  _geom_torsion_atom_site_label_4
  _geom_torsion
  _geom_torsion_site_symmetry_1
  _geom_torsion_site_symmetry_2
  _geom_torsion_site_symmetry_3
  _geom_torsion_site_symmetry_4
  _geom_torsion_publ_flag
 Se1 N1 C8 C13 -154.3(2) . . . . ?
 Se1 N1 C8 C9 24.5(4) . . . . ?
 Se1 N1 C7 O1 -174.5(3) . . . . ?
 Se1 N1 C7 C2 4.8(3) . . . . ?
 Se1 N2 C17 C18 -168.8(3) . . . . ?
 Se1 N2 C21 C20 170.7(3) . . . . ?
 Se1 C1 C2 C3 176.1(2) . . . . ?
 Se1 C1 C2 C7 -2.8(4) . . . . ?
 N1 C8 C13 C12 -176.9(3) . . . . ?
 N1 C8 C9 C10 178.3(3) . . . . ?
 N3 C19 C18 C17 -176.9(3) . . . . ?
 N3 C19 C20 C21 177.6(3) . . . . ?
 N3 C22 C23 C24 31.8(3) . . . . ?
 N3 C25 C24 C23 27.0(3) . . . . ?
 C8 N1 C7 O1 -3.8(5) . . . . ?
 C8 N1 C7 C2 175.6(3) . . . . ?
 C8 C13 C12 C11 -1.8(5) . . . . ?
 C13 C8 C9 C10 -2.8(5) . . . . ?
 C13 C12 C11 C10 -2.1(5) . . . . ?
 C13 C12 C11 C14 174.7(3) . . . . ?
 C19 N3 C22 C23 165.3(3) . . . . ?
 C19 N3 C25 C24 171.8(3) . . . . ?
 C19 C18 C17 N2 -1.4(5) . . . . ?
 C19 C20 C21 N2 -0.1(6) . . . . ?
 C22 N3 C19 C18 1.8(5) . . . . ?
 C22 N3 C19 C20 -177.3(3) . . . . ?
 C22 N3 C25 C24 -7.2(4) . . . . ?
 C22 C23 C24 C25 -36.8(3) . . . . ?
 C18 C19 C20 C21 -1.5(5) . . . . ?
 C10 C11 C14 O2 -29.2(5) . . . . ?
 C10 C11 C14 O3 148.1(3) . . . . ?
 C6 C1 C2 C3 -3.3(5) . . . . ?
 C6 C1 C2 C7 177.8(3) . . . . ?
 C6 C5 C4 C3 -1.7(6) . . . . ?
 C12 C11 C14 O2 154.0(3) . . . . ?
 C12 C11 C14 O3 -28.7(4) . . . . ?
 C9 C8 C13 C12 4.3(5) . . . . ?
 C9 C10 C11 C12 3.5(5) . . . . ?
 C9 C10 C11 C14 -173.4(3) . . . . ?
 C17 N2 C21 C20 1.0(5) . . . . ?
 C25 N3 C19 C18 -177.1(3) . . . . ?
 C25 N3 C19 C20 3.8(5) . . . . ?
 C25 N3 C22 C23 -15.7(4) . . . . ?
 C1 C6 C5 C4 0.2(6) . . . . ?
 C1 C2 C7 O1 178.0(3) . . . . ?
 C1 C2 C7 N1 -1.4(4) . . . . ?
 C11 C10 C9 C8 -1.1(5) . . . . ?
 C20 C19 C18 C17 2.2(5) . . . . ?
 C3 C2 C7 O1 -0.8(5) . . . . ?
 C3 C2 C7 N1 179.8(3) . . . . ?
 C2 C3 C4 C5 0.7(5) . . . . ?
 C7 N1 C8 C13 35.3(4) . . . . ?
 C7 N1 C8 C9 -145.9(3) . . . . ?
 C21 N2 C17 C18 -0.3(5) . . . . ?
 C5 C6 C1 Se1 -177.0(3) . . . . ?
 C5 C6 C1 C2 2.3(5) . . . . ?
 C14 O3 C15 C16 172.1(3) . . . . ?
 C4 C3 C2 C1 1.8(5) . . . . ?
 C4 C3 C2 C7 -179.4(3) . . . . ?
 C15 O3 C14 O2 2.2(5) . . . . ?
 C15 O3 C14 C11 -175.1(3) . . . . ?

_shelx_res_file
;
TITL jmwrx3a_a.res in P-1
    jmwrx3a.res
    created by SHELXL-2018/3 at 15:26:12 on 04-Feb-2020
REM Old TITL JMWRX3a in P-1
REM SHELXT solution in P-1: R1 0.101, Rweak 0.010, Alpha 0.050
REM <I/s> 0.000 for 0 systematic absences, Orientation as input
REM Formula found by SHELXT: C25 N2 O4 Se
CELL 1.54184 9.8257 9.8381 11.6093 97.83 100.22 92.729
ZERR 2 0.0006 0.0003 0.0007 0.004 0.005 0.004
LATT 1
SFAC C H N O Se
UNIT 50 50 6 6 2

L.S. 4 0 0
PLAN  5
SIZE 0.092 0.171 0.35
CONF
BOND
list 4
fmap 2 53
MORE -1
ACTA
BOND $H
REM <olex2.extras>
REM <HklSrc "%.\\JMWRX3a.hkl">
REM </olex2.extras>

WGHT    0.108900    0.992400
FVAR       4.85733
SE1   5    0.238897    0.487052    0.432134    11.00000    0.02279    0.01873 =
         0.02934   -0.00085    0.00353   -0.00358
O1    4    0.478906    0.804666    0.369813    11.00000    0.03562    0.02234 =
         0.03521    0.00089    0.00594   -0.00729
O2    4    0.582515    0.832553    1.025172    11.00000    0.03837    0.03776 =
         0.03045    0.00370    0.00464   -0.00504
N1    3    0.357969    0.661339    0.464377    11.00000    0.02661    0.01834 =
         0.02957    0.00081    0.00216   -0.00341
O3    4    0.692858    0.986621    0.940841    11.00000    0.02856    0.03009 =
         0.03277    0.00048   -0.00147   -0.00640
N2    3    0.110120    0.275054    0.375208    11.00000    0.02722    0.01934 =
         0.03485   -0.00053    0.00550   -0.00402
N3    3   -0.073689   -0.125244    0.315949    11.00000    0.02390    0.01914 =
         0.03798   -0.00107    0.00301   -0.00016
C8    1    0.411393    0.720557    0.581595    11.00000    0.02091    0.01936 =
         0.03027   -0.00003    0.00525   -0.00035
C13   1    0.447038    0.862425    0.612618    11.00000    0.02214    0.01760 =
         0.02910    0.00213    0.00297    0.00058
AFIX  43
H13   2    0.431387    0.920594    0.555593    11.00000   -1.20000
AFIX   0
C19   1   -0.013201    0.003540    0.337853    11.00000    0.02337    0.02208 =
         0.02874    0.00167    0.00214   -0.00336
C22   1   -0.220001   -0.158707    0.317119    11.00000    0.02487    0.02075 =
         0.03786    0.00053    0.00512   -0.00331
AFIX  23
H22A  2   -0.278746   -0.098952    0.273857    11.00000   -1.20000
H22B  2   -0.237053   -0.150674    0.397461    11.00000   -1.20000
AFIX   0
C18   1   -0.087240    0.118870    0.367514    11.00000    0.02142    0.02312 =
         0.03610    0.00012    0.00476   -0.00167
AFIX  43
H18   2   -0.179156    0.106608    0.376083    11.00000   -1.20000
AFIX   0
C10   1    0.483332    0.691281    0.787221    11.00000    0.03036    0.02205 =
         0.03183    0.00413    0.00145   -0.00280
AFIX  43
H10   2    0.492000    0.634867    0.845820    11.00000   -1.20000
AFIX   0
C6    1    0.173219    0.416164    0.171594    11.00000    0.02975    0.02775 =
         0.03165   -0.00196    0.00229   -0.00623
AFIX  43
H6    2    0.112989    0.343610    0.179478    11.00000   -1.20000
AFIX   0
C12   1    0.505636    0.915360    0.728576    11.00000    0.02072    0.01946 =
         0.03219   -0.00079    0.00512   -0.00170
AFIX  43
H12   2    0.531594    1.008954    0.748378    11.00000   -1.20000
AFIX   0
C9    1    0.427164    0.636441    0.670130    11.00000    0.03043    0.01731 =
         0.03195    0.00123    0.00259   -0.00249
AFIX  43
H9    2    0.399988    0.543053    0.650872    11.00000   -1.20000
AFIX   0
C17   1   -0.023354    0.249195    0.383696    11.00000    0.02377    0.02176 =
         0.03706    0.00166    0.00585   -0.00077
AFIX  43
H17   2   -0.074986    0.323453    0.401442    11.00000   -1.20000
AFIX   0
C25   1    0.001420   -0.248439    0.290188    11.00000    0.02714    0.01956 =
         0.03842    0.00039    0.00213    0.00410
AFIX  23
H25A  2    0.083149   -0.250017    0.350569    11.00000   -1.20000
H25B  2    0.029039   -0.252570    0.213682    11.00000   -1.20000
AFIX   0
C1    1    0.244131    0.503350    0.271178    11.00000    0.02156    0.02371 =
         0.03131    0.00016    0.00330   -0.00124
C11   1    0.526277    0.830353    0.816062    11.00000    0.02128    0.02538 =
         0.03036    0.00066    0.00286   -0.00007
C20   1    0.127674    0.031233    0.330842    11.00000    0.02336    0.02456 =
         0.03575    0.00043    0.00350    0.00036
AFIX  43
H20   2    0.182574   -0.040464    0.313547    11.00000   -1.20000
AFIX   0
C3    1    0.352493    0.636403    0.146481    11.00000    0.03300    0.02502 =
         0.03223    0.00263    0.00424    0.00170
AFIX  43
H3    2    0.412096    0.709314    0.138288    11.00000   -1.20000
AFIX   0
C2    1    0.330320    0.614654    0.258094    11.00000    0.02814    0.01924 =
         0.03003    0.00126    0.00568    0.00137
C7    1    0.398221    0.705744    0.367548    11.00000    0.02227    0.01985 =
         0.03299    0.00309    0.00330   -0.00095
C23   1   -0.245217   -0.306986    0.256256    11.00000    0.02749    0.02001 =
         0.03852   -0.00031    0.00297   -0.00411
AFIX  23
H23A  2   -0.270730   -0.311462    0.171117    11.00000   -1.20000
H23B  2   -0.317718   -0.355680    0.284767    11.00000   -1.20000
AFIX   0
C21   1    0.182219    0.165466    0.349935    11.00000    0.02101    0.02437 =
         0.04029   -0.00254    0.00434   -0.00172
AFIX  43
H21   2    0.274922    0.181543    0.345065    11.00000   -1.20000
AFIX   0
C5    1    0.193882    0.439310    0.061187    11.00000    0.03687    0.03239 =
         0.03263   -0.00377    0.00147   -0.00362
AFIX  43
H5    2    0.146645    0.381631   -0.005528    11.00000   -1.20000
AFIX   0
C14   1    0.599322    0.881321    0.938391    11.00000    0.02514    0.02479 =
         0.03372   -0.00044    0.00304    0.00142
C4    1    0.283921    0.547148    0.047390    11.00000    0.03804    0.03028 =
         0.03126    0.00227    0.00304   -0.00011
AFIX  43
H4    2    0.298208    0.559519   -0.027688    11.00000   -1.20000
AFIX   0
C15   1    0.778020    1.036489    1.055480    11.00000    0.02898    0.03997 =
         0.03051   -0.00492   -0.00168   -0.00366
AFIX  23
H15A  2    0.820611    0.960828    1.089967    11.00000   -1.20000
H15B  2    0.722011    1.080278    1.108700    11.00000   -1.20000
AFIX   0
C24   1   -0.104939   -0.366556    0.290643    11.00000    0.03243    0.02031 =
         0.03527    0.00171    0.00138   -0.00062
AFIX  23
H24A  2   -0.095433   -0.394479    0.368481    11.00000   -1.20000
H24B  2   -0.094372   -0.445308    0.233672    11.00000   -1.20000
AFIX   0
C16   1    0.887507    1.138464    1.036097    11.00000    0.04176    0.03701 =
         0.05289    0.00841   -0.01207   -0.01092
AFIX 137
H16A  2    0.935262    1.096876    0.976562    11.00000   -1.50000
H16B  2    0.952430    1.165942    1.108729    11.00000   -1.50000
H16C  2    0.844759    1.217707    1.010621    11.00000   -1.50000
AFIX   0
HKLF 4




REM  jmwrx3a_a.res in P-1
REM wR2 = 0.1539, GooF = S = 1.051, Restrained GooF = 1.051 for all data
REM R1 = 0.0554 for 4151 Fo > 4sig(Fo) and 0.0578 for all 4458 data
REM 290 parameters refined using 0 restraints

END

WGHT      0.1089      0.9924

REM Highest difference peak  1.781,  deepest hole -1.153,  1-sigma level  0.121
Q1    1   0.2442  0.4777  0.3443  11.00000  0.05    1.78
Q2    1   0.2154  0.5169  0.5204  11.00000  0.05    1.60
Q3    1   0.2341  0.6000  0.4650  11.00000  0.05    0.75
Q4    1   0.2385  0.3799  0.4048  11.00000  0.05    0.64
Q5    1   0.3565  0.5956  0.2015  11.00000  0.05    0.44
;
_shelx_res_checksum                32461
_shelx_hkl_file
;
   0   0   4 13689.0 688.582  30
   0   0   5 17104.6 858.543  30
   0   0   6 8529.21 553.664  30
   0   0  -7 5200.54 594.734  35
   0   0   8 27794.2 1181.14   9
   0   0  -8 30549.8 1730.13  35
   0   0  -8 27769.7 1228.64   1
   0   0   9 431.541 152.815   9
   0   0  -9 193.915 352.116  35
   0   0  -9 278.498 159.548  37
   0   0  -9 297.082 179.885   1
   0   0  10 18517.2 832.929   9
   0   0 -10 18803.5 855.296  37
   0   0 -10 18028.0 891.646   1
   0   0  11 198.127 166.650   9
   0   0 -11 307.710 178.333  37
   0   0  12 66.7163 146.486   9
   0   0 -12 61.0305 159.066  37
   0   0  13 3766.81 239.159   9
   0   0 -13 3574.93 264.906  37
   0   0  14 1725.57 126.097   4
   0  -1  14 7256.33 339.354   9
   0  -1  13 2171.14 192.459   9
   0   1 -13 1728.30 205.140  37
   0  -1  12 1034.77 188.111   9
   0  -1  11 3057.89 266.876   9
   0  -1  10 2361.44 238.176   9
   0   1 -10 1999.15 504.931  35
   0   1 -10 2378.83 270.452   1
   0  -1   9 20538.6 919.246   9
   0   1  -9 19222.7 1413.42  35
   0   1  -9 21347.0 967.591   1
   0  -1   8 6348.16 350.002   9
   0   1  -8 6449.33 382.287   1
   0  -1   7 72807.2 3195.39  30
   0  -1   6 126082. 5226.97  30
   0  -1   5 27425.4 1313.72  30
   0  -1   4 48772.1 2103.93  30
   0  -1   3 343911. 13799.5  33
   0  -1   3 384302. 13928.1  30
   0  -1   2 6253.74 312.915  33
   0  -1   2 6137.79 333.506  29
   0  -1   1 77165.0 3117.55  33
   0  -1   1 80033.5 3132.91  29
   0  -1   0 21815.6 908.973  33
   0  -1  -1 83450.8 3404.24  33
   0  -1  -1 88659.8 3417.89  29
   0   1   2 5310.26 227.363  10
   0  -1  -2 5491.04 270.472  33
   0  -1  -2 5813.86 289.567  29
   0  -1  -3 16896.9 704.488  33
   0  -1  -4 2571.38 336.498  35
   0  -1  -5 4820.59 486.824  35
   0  -1  -5 4543.10 235.811  37
   0   1   5 3738.52 304.412  30
   0  -1  -6 1159.51 132.889  37
   0  -1  -6 1487.39 353.409  35
   0  -1  -7 43527.6 2328.80  35
   0  -1  -7 46246.6 1879.04  37
   0   1   8 14058.7 665.594   9
   0  -1  -8 15445.0 1165.14  35
   0  -1  -8 15965.1 697.916  37
   0  -1  -8 14451.2 725.407   1
   0   1   9 565.503 148.646   9
   0  -1  -9 401.703 351.036  35
   0  -1  -9 1047.78 196.488  37
   0  -1  -9 737.861 211.858   1
   0   1  10 2420.53 226.486   9
   0  -1 -10 2788.31 266.764  37
   0  -1 -10 1994.86 526.648  35
   0   1  11 102.508 148.018   9
   0  -1 -11 120.558 180.258  37
   0   1  12 1132.76 163.437   9
   0  -1 -12 1211.58 198.140  37
   0  -1 -12 1283.76 179.887  26
   0   1  13 3084.25 190.792   9
   0  -2  14 741.156 109.654   9
   0  -2  13 11981.4 568.336   9
   0  -2  12 5248.08 341.186   9
   0  -2  11 1274.96 207.167   9
   0  -2  10 48592.4 2009.71   9
   0   2 -10 48628.0 2000.86  37
   0   2 -10 48456.6 2039.41   1
   0  -2   9 28674.4 1225.02   9
   0   2  -9 28709.7 1214.67  37
   0   2  -9 27678.8 1249.88   1
   0  -2   8 48746.6 1999.51   9
   0   2  -8 50586.5 1989.09  37
   0  -2   8 43634.6 2315.35  30
   0   2  -8 47598.9 2021.01   1
   0  -2   7 4464.97 482.780  30
   0   2  -7 4880.49 265.332  37
   0  -2   6 32869.2 1630.53  30
   0  -2   5-51.8921 226.111  30
   0  -2   4 18149.9 970.815  30
   0  -2   4 18842.9 828.831  33
   0  -2   3 3671.92 242.936  33
   0  -2   3 3252.30 279.582  29
   0  -2   3 4010.12 338.690  30
   0  -2   2 94419.8 3802.02  33
   0  -2   2 94794.1 3843.04  29
   0  -2   1 42520.9 1776.35  29
   0  -2   1 41083.7 1739.60  33
   0  -2   0 20759.4 867.409  28
   0  -2   0 24383.7 956.300  30
   0  -2  -1 10666.0 535.678  29
   0  -2  -1 10084.1 499.878  33
   0  -2  -1 9222.16 471.483  30
   0  -2  -2 38782.0 1689.34  33
   0  -2  -2 43044.5 1732.87  29
   0  -2  -3 4042.43 260.614  33
   0  -2  -4 1763.28 326.336  35
   0  -2  -5 12211.4 550.202  37
   0  -2  -5 13918.9 896.165  35
   0  -2  -6 32207.4 1707.44  35
   0  -2  -6 30335.0 1274.19  37
   0  -2  -7 30455.4 1830.09  35
   0  -2  -7 32989.6 1368.51  37
   0  -2  -7 32012.3 1393.73   1
   0   2   8 57622.6 2374.93   9
   0  -2  -8 56706.2 2410.71  12
   0  -2  -8 56272.8 2991.40  35
   0  -2  -8 63018.6 2425.59  37
   0  -2  -8 59206.2 2450.30   1
   0   2   9 153.414 133.791   9
   0  -2  -9 201.933 179.610  37
   0  -2  -9-35.0255 343.785  35
   0   2  10 241.831 145.036   9
   0  -2 -10 381.488 190.418  37
   0   2  11 1059.90 159.410   9
   0  -2 -11 1011.91 210.409  37
   0  -2 -12 4383.82 312.794  26
   0  -2 -13 1992.51 156.924  26
   0  -3  14 1625.89 129.089   4
   0  -3  13 1581.08 176.961   9
   0   3 -13 1150.84 165.606  37
   0  -3  12 451.392 176.529   9
   0   3 -12 419.550 151.083  37
   0  -3  11 4989.04 339.597   9
   0   3 -11 4470.26 313.467  37
   0   3 -10 81.7469 147.317  37
   0   3 -10 231.473 166.976   1
   0  -3   9 3401.00 488.731  30
   0   3  -9 4131.27 265.500  37
   0   3  -9 3926.60 286.716   1
   0  -3   9 3299.32 275.050   8
   0  -3   8 12554.7 929.948  30
   0   3  -8 13028.3 562.672  37
   0  -3   8 10396.3 589.491   8
   0   3  -8 12285.0 587.195   1
   0  -3   7 8908.99 439.747   9
   0  -3   7 8961.48 742.074  30
   0  -3   6 13220.2 893.075  30
   0  -3   5 20752.3 1201.78  30
   0  -3   5 23072.2 1030.58  33
   0  -3   4 11805.9 606.675  33
   0  -3   4 10830.6 723.147  30
   0  -3   3 307.065 138.149  33
   0  -3   3 437.020 201.376  29
   0  -3   2 55483.7 2385.66  33
   0  -3   2 59085.6 2468.39  29
   0  -3   1 76733.5 3178.08  29
   0  -3   1 70987.5 3105.41  33
   0  -3   1 80269.0 3152.70  30
   0  -3   0 53869.8 2264.84  30
   0  -3  -1 3019.62 283.543  33
   0  -3  -1 3627.76 338.429  29
   0  -3  -1 2846.75 239.171  30
   0  -3  -2 55479.2 2377.24  33
   0  -3  -2 58047.9 2440.65  29
   0  -3  -3 29181.7 1311.11  33
   0  -3  -4 74.6925 103.631  37
   0  -3  -4-40.0381 110.486  33
   0  -3  -5 34079.5 1788.88  35
   0  -3  -5 33475.2 1389.99  37
   0  -3  -6 6263.00 662.660  35
   0  -3  -6 5507.66 325.131  37
   0  -3  -7 34326.7 1421.53  12
   0  -3  -7 32888.5 1403.01  37
   0  -3  -7 31577.9 1419.38   1
   0  -3  -8 11215.9 578.780  12
   0  -3  -8 11288.6 584.028  37
   0  -3  -9 3018.27 247.277  12
   0  -3  -9 3014.95 289.981  37
   0  -3 -10 1121.79 157.349  12
   0  -3 -10 1047.98 219.091  37
   0  -3 -11 887.429 195.754  26
   0  -3 -12 1352.85 176.772  26
   0  -3 -12 1458.77 204.072  24
   0  -3 -13 4459.43 284.948  24
   0  -4  14 3144.18 170.039   4
   0   4 -13 3297.89 235.879  37
   0   4 -12 84.9620 128.139  37
   0   4 -11 2281.36 216.305  37
   0  -4  10 824.536 192.456   9
   0   4 -10 687.448 156.050  37
   0  -4  10 435.967 154.987   8
   0  -4   9 8903.68 471.655   9
   0  -4   9 8270.36 812.446  30
   0   4  -9 8936.73 445.744  37
   0  -4   9 7890.57 485.208   8
   0  -4   8 11576.6 560.141   9
   0  -4   8 11317.6 932.471  30
   0  -4   8 10967.6 587.559   8
   0  -4   7 4514.99 283.115   9
   0  -4   7 4578.72 573.744  30
   0  -4   7 4629.88 317.274   8
   0  -4   6 11548.0 869.417  30
   0  -4   5 11248.0 839.883  30
   0  -4   5 12865.2 695.137  33
   0  -4   4 11584.0 654.467  33
   0  -4   4 11040.6 773.398  30
   0  -4   3 4921.63 485.322  29
   0  -4   3 4707.65 380.343  33
   0  -4   2 23603.2 1170.08  33
   0  -4   2 25964.0 1305.61  29
   0  -4   1 46309.3 1590.21  33
   0  -4   1 48490.6 1641.75  30
   0  -4   0 8834.69 542.919  30
   0  -4  -1 58804.9 2512.21  29
   0  -4  -1 52989.2 2376.17  30
   0  -4  -1 57092.0 2418.34  33
   0  -4  -2 42833.9 1914.81  33
   0  -4  -3 325.516 168.331  33
   0  -4  -4 45145.2 1998.41  33
   0  -4  -5 12922.7 607.812  12
   0  -4  -5 12225.3 588.938  37
   0  -4  -6 72789.5 2845.06  13
   0  -4  -6 70494.5 2846.97  11
   0  -4  -6 73291.8 2893.62  12
   0  -4  -6 65659.7 2859.65  37
   0  -4  -7 9661.94 480.505  13
   0  -4  -7 10336.1 531.668  12
   0  -4  -7 9297.08 513.954  37
   0  -4  -8 13691.9 651.861  12
   0  -4  -8 11347.2 639.889  23
   0  -4  -9 2624.35 242.423  12
   0  -4  -9 2477.76 297.615  26
   0  -4 -10 2927.08 239.530  12
   0  -4 -10 3196.76 308.286  26
   0  -4 -11 1876.27 238.062  24
   0  -4 -11 2069.35 231.792  26
   0  -4 -12 1990.68 189.040  26
   0  -4 -12 1742.34 190.433  24
   0   5 -13 757.818 121.625  37
   0  -5  13 855.105 102.361   4
   0  -5  12 96.9798 141.598   9
   0   5 -12-6.76222 111.683  37
   0  -5  11 3233.16 256.161   9
   0   5 -11 2588.96 217.574  37
   0  -5  11 2667.25 239.277   8
   0  -5  10 2810.22 255.737   9
   0   5 -10 2752.74 223.182  37
   0  -5  10 2851.98 262.859   8
   0  -5   9 7143.76 403.286   9
   0   5  -9 6652.90 366.087  37
   0  -5   9 6509.09 760.143  30
   0  -5   9 6392.09 424.446   8
   0  -5   8 10395.6 535.374   9
   0  -5   8 10737.2 944.637  30
   0  -5   8 10958.2 584.139   8
   0  -5   7 9798.47 505.765   9
   0  -5   7 11064.6 567.345   8
   0  -5   7 9776.57 531.218   6
   0  -5   6 13116.7 587.831   9
   0  -5   6 11149.1 629.078   8
   0  -5   6 12634.9 625.514   6
   0  -5   6 12586.6 974.117  30
   0  -5   6 14474.9 781.276  33
   0  -5   5 158.672 80.1429  32
   0  -5   5 234.937 287.833  30
   0  -5   5 162.531 183.369  33
   0  -5   4 4460.75 408.323  33
   0  -5   4 4057.68 233.175  32
   0  -5   3 35693.6 1495.92  32
   0  -5   3 39600.7 1732.29  33
   0  -5   2 33365.3 1425.59  32
   0  -5   2 36911.2 1660.10  33
   0  -5   2 34990.7 1713.60  30
   0  -5   1 134860. 5611.45  30
   0  -5   1 133270. 5354.47  32
   0  -5   1 144349. 5603.55  33
   0  -5   0 36414.6 1710.94  30
   0  -5  -1 25880.5 1091.25  32
   0  -5  -1 26108.8 1312.34  33
   0  -5  -2 63.3958 74.5249  32
   0  -5  -2 149.885 202.313  33
   0  -5  -3 1919.40 152.446  32
   0  -5  -3 2874.71 332.013  33
   0  -5  -4 1203.23 237.962  33
   0  -5  -4 1194.33 195.147  25
   0  -5  -4 1420.91 186.247  24
   0  -5  -4 1038.70 172.399  26
   0  -5  -5 32101.9 1334.38  12
   0  -5  -5 31952.6 1297.07  13
   0  -5  -5 29922.5 1281.57  11
   0  -5  -5 29092.4 1394.24  21
   0  -5  -5 30271.5 1335.93  23
   0  -5  -5 31144.3 1381.84  24
   0  -5  -5 29049.8 1400.94  25
   0  -5  -5 29570.8 1367.26  26
   0  -5  -6 67139.4 2677.42  12
   0  -5  -6 70224.1 2633.65  13
   0  -5  -6 57892.2 2660.21  23
   0  -5  -6 60521.8 2731.33  24
   0  -5  -7 28079.2 1191.54  13
   0  -5  -7 28224.9 1241.05  12
   0  -5  -7 25236.0 1292.42  24
   0  -5  -7 27451.0 1288.27  26
   0  -5  -8 847.478 149.699  13
   0  -5  -8 849.460 182.446  12
   0  -5  -8 937.804 227.069  26
   0  -5  -8 648.768 220.295  24
   0  -5  -9 2503.74 233.896  12
   0  -5  -9 2148.25 279.060  24
   0  -5  -9 2537.28 293.175  26
   0  -5 -10 464.388 129.359  12
   0  -5 -10 393.505 181.327  26
   0  -5 -10 520.544 178.237  24
   0  -5 -11 491.001 100.757  12
   0  -5 -11 513.612 145.678  24
   0  -5 -11 757.506 157.190  26
   0  -5 -12 98.4819 77.5332  26
   0  -6  13-12.0952 66.1305   5
   0   6 -12-8.30844 105.603  37
   0  -6  11 70.3121 139.774   9
   0   6 -11 125.328 112.070  37
   0  -6  11 10.2456 127.637   8
   0  -6  10 3747.41 275.293   9
   0  -6  10 3682.40 306.932   8
   0   6 -10 3473.10 243.359  37
   0  -6   9 14598.7 698.504   9
   0  -6   9 15141.5 758.789   8
   0  -6   9 13736.2 1148.56  30
   0   6  -9 14768.5 669.293  37
   0  -6   9 15316.5 786.282  21
   0  -6   9 13444.2 782.038  25
   0  -6   8 23980.3 1130.53   9
   0  -6   8 29089.9 1218.60   8
   0  -6   8 25714.9 1686.52  30
   0  -6   8 27361.2 1275.72  25
   0  -6   7 16636.9 789.623   9
   0  -6   7 17581.8 863.746   8
   0  -6   7 18814.3 1331.32  30
   0  -6   7 19123.5 949.145  25
   0  -6   6 1412.97 167.710   9
   0  -6   6 1223.37 196.653  20
   0  -6   6 1360.15 209.355   6
   0  -6   6 1220.70 213.120   8
   0  -6   6 1330.39 383.290  30
   0  -6   6 1827.82 303.991  33
   0  -6   6 1382.98 249.589  25
   0  -6   5 202.986 143.971  20
   0  -6   5 205.300 127.610  15
   0  -6   5 182.141 144.247   8
   0  -6   5 29.3531 163.852   6
   0  -6   5 16.0563 203.911  33
   0  -6   5 187.664 120.761  22
   0  -6   5 179.995 182.889  25
   0  -6   4 22753.6 991.636   8
   0  -6   4 24071.3 1219.55  33
   0  -6   4 22114.0 925.863  32
   0  -6   4 20167.6 994.104  20
   0  -6   4 22207.8 1059.55  25
   0  -6   4 21401.5 1032.58  21
   0  -6   4 22863.8 963.681  22
   0  -6   3 18724.9 1154.67  30
   0  -6   3 16988.3 777.272  32
   0  -6   3 19781.2 1064.59  33
   0  -6   2 46239.0 2018.87  33
   0  -6   2 39406.4 1689.92  32
   0  -6   2 43490.5 2063.91  30
   0  -6   1 47091.7 2225.46  30
   0  -6   1 45830.5 1918.10  32
   0  -6   1 50132.8 2226.44  33
   0  -6   0 91615.2 3965.02  30
   0  -6  -1 4146.57 451.241  33
   0  -6  -1 3962.72 249.498  32
   0  -6  -2 698.477 117.331  12
   0  -6  -2 1046.09 278.778  33
   0  -6  -2 542.439 111.753  32
   0  -6  -2 537.031 172.500  25
   0  -6  -2 570.766 150.235  21
   0  -6  -3 15562.3 754.124  15
   0  -6  -3 15196.5 724.819  12
   0  -6  -3 15598.2 755.226  16
   0  -6  -3 13929.3 671.262  11
   0  -6  -3 17131.9 995.478  33
   0  -6  -3 16208.5 738.842  23
   0  -6  -3 16198.1 803.637  25
   0  -6  -3 16426.0 767.974  24
   0  -6  -3 15920.2 762.074  26
   0  -6  -3 15673.2 771.851  21
   0  -6  -4 17087.5 846.465  16
   0  -6  -4 18973.9 821.234  13
   0  -6  -4 16562.3 789.507  11
   0  -6  -4 18887.9 853.340  12
   0  -6  -4 18811.1 1092.11  33
   0  -6  -4 18456.1 885.677  26
   0  -6  -4 18631.0 923.418  25
   0  -6  -4 18870.5 853.810  23
   0  -6  -4 19489.9 896.076  24
   0  -6  -4 17712.6 878.206  21
   0  -6  -5 15193.3 694.233  13
   0  -6  -5 14562.0 769.736  26
   0  -6  -5 14521.1 853.572  25
   0  -6  -5 13139.6 708.367  23
   0  -6  -6 1589.26 204.601  12
   0  -6  -6 1746.70 187.297  13
   0  -6  -6 1124.73 173.064  23
   0  -6  -6 1322.19 231.629  24
   0  -6  -6 1566.03 239.406  26
   0  -6  -7 481.613 144.213  13
   0  -6  -7 540.461 165.767  12
   0  -6  -7 240.220 176.697  24
   0  -6  -8 6481.01 392.592  12
   0  -6  -8 5399.63 341.905  13
   0  -6  -8 5694.04 420.002  24
   0  -6  -9 11225.8 582.950  12
   0  -6  -9 10763.3 612.737  24
   0  -6  -9 12220.8 639.331  26
   0  -6 -10 3986.56 252.729  12
   0  -6 -10 4128.12 294.634  26
   0  -6 -11 180.898 75.0334  24
   0  -6 -11 187.969 108.242  26
   0  -7  12 93.3397 86.4458  18
   0  -7  11 7514.90 380.392   5
   0   7 -11 7258.79 364.965  37
   0   7 -10 6946.81 361.668  37
   0  -7  10 6968.30 432.059  21
   0  -7   9 26208.2 1155.64   8
   0   7  -9 24277.0 1042.31  37
   0  -7   9 22572.1 1141.50  25
   0  -7   9 25954.0 1175.69  21
   0  -7   8 2278.52 273.213   8
   0  -7   8 2307.09 482.579  30
   0  -7   8 2137.79 277.477  21
   0  -7   8 2053.77 273.569  25
   0  -7   7 15989.7 849.793   8
   0  -7   7 15875.5 1274.68  30
   0  -7   7 16422.2 899.469  21
   0  -7   7 18732.3 918.918  25
   0  -7   6 318.691 190.365   8
   0  -7   6 202.780 219.046  33
   0  -7   6 373.359 203.917  25
   0  -7   6 321.423 196.569  21
   0  -7   5 5162.95 373.872  15
   0  -7   5 4917.79 384.126   8
   0  -7   5 5547.07 548.254  33
   0  -7   5 4808.28 411.970  25
   0  -7   5 5136.81 417.839  21
   0  -7   5 4927.64 380.129  20
   0  -7   5 4872.69 344.182  22
   0  -7   4 11266.1 608.767  15
   0  -7   4 9950.17 515.860  32
   0  -7   4 11038.2 810.886  33
   0  -7   4 9539.67 890.659  30
   0  -7   4 10947.5 646.143  25
   0  -7   4 10456.9 554.588  22
   0  -7   4 10205.1 603.198  20
   0  -7   4 10747.0 643.280  21
   0  -7   3 14764.7 744.490  15
   0  -7   3 13185.6 648.772  32
   0  -7   3 14306.4 1034.23  30
   0  -7   3 14672.7 962.667  33
   0  -7   3 12752.5 730.829  20
   0  -7   3 14268.4 763.145  21
   0  -7   3 13453.5 762.777  25
   0  -7   3 14530.3 686.935  22
   0  -7   2 2329.56 267.135  18
   0  -7   2 2481.04 280.482  15
   0  -7   2 2852.30 427.382  33
   0  -7   2 2656.33 213.213  32
   0  -7   2 2539.58 428.473  30
   0  -7   2 2873.18 283.641  20
   0  -7   2 2678.08 304.517  25
   0  -7   2 2496.23 287.357  21
   0  -7   1 41701.9 1851.03  18
   0  -7   1 41936.2 1814.01  19
   0  -7   1 43997.7 2172.69  30
   0  -7   1 40654.3 1781.96  32
   0  -7   1 45830.1 2166.12  33
   0  -7   1 43955.0 1816.21  23
   0  -7   1 43668.3 1898.98  25
   0  -7   1 43971.5 1814.39  24
   0  -7   1 42955.9 1807.42  22
   0  -7   0 363.889 165.611  15
   0  -7   0 313.631 113.178  19
   0  -7   0 376.555 99.2600  12
   0  -7   0 230.470 141.357  18
   0  -7   0 471.795 116.345  14
   0  -7   0 302.231 115.594  32
   0  -7   0 399.453 251.451  33
   0  -7   0 240.028 156.698  21
   0  -7   0 406.912 131.463  22
   0  -7   0 394.814 133.175  23
   0  -7   0 349.984 124.524  24
   0  -7  -1 11091.2 596.111  18
   0  -7  -1 10290.3 541.859  12
   0  -7  -1 11212.2 624.006  15
   0  -7  -1 12344.4 876.218  33
   0  -7  -1 11139.8 554.341  32
   0  -7  -1 11548.0 576.660  23
   0  -7  -1 11173.5 647.085  25
   0  -7  -1 11798.8 588.197  24
   0  -7  -1 11029.2 567.181  22
   0  -7  -1 11332.6 630.901  21
   0  -7  -2 436.115 122.848  12
   0  -7  -2 280.680 147.749  16
   0  -7  -2 439.488 156.322  15
   0  -7  -2 149.624 242.080  33
   0  -7  -2 366.290 124.615  22
   0  -7  -2 366.005 130.700  23
   0  -7  -2 382.678 149.078  26
   0  -7  -2 373.435 182.057  25
   0  -7  -2 384.119 140.452  24
   0  -7  -2 401.074 160.676  21
   0  -7  -3 9707.98 556.270  16
   0  -7  -3 9937.34 559.064  15
   0  -7  -3 10307.3 528.784  12
   0  -7  -3 9730.12 780.429  33
   0  -7  -3 10032.0 574.166  21
   0  -7  -3 10238.8 558.654  24
   0  -7  -3 9509.45 603.155  25
   0  -7  -3 10228.7 558.704  26
   0  -7  -3 9583.51 525.209  23
   0  -7  -3 9457.07 505.417  22
   0  -7  -4 102.440 122.678  16
   0  -7  -4 447.091 155.851  12
   0  -7  -4 188.816 134.620  13
   0  -7  -4 357.549 215.242  25
   0  -7  -4 194.669 131.568  23
   0  -7  -4 317.940 158.637  24
   0  -7  -4 545.695 232.933  21
   0  -7  -4 323.856 171.634  26
   0  -7  -5 2969.87 241.209  13
   0  -7  -5 2998.72 298.301  26
   0  -7  -5 2139.65 218.262  23
   0  -7  -5 2269.50 267.495  24
   0  -7  -5 2466.32 564.055  25
   0  -7  -6 29467.4 1223.81  13
   0  -7  -6 25139.8 1273.86  24
   0  -7  -6 28089.7 1297.34  26
   0  -7  -7 45580.0 1907.79  13
   0  -7  -7 46915.2 1950.57  12
   0  -7  -7 46693.9 1991.59  26
   0  -7  -7 43320.2 1962.32  24
   0  -7  -8 2543.64 215.443  13
   0  -7  -8 3101.97 251.266  12
   0  -7  -8 2471.43 248.842  24
   0  -7  -9 166.627 117.730  12
   0  -7  -9 28.2093 109.582  24
   0  -7 -10 1355.97 132.021  12
   0  -8  12 506.666 89.9178  19
   0  -8  11 385.919 120.887  18
   0   8 -10 5093.89 283.222  37
   0  -8  10 5942.10 350.635  21
   0   8  -9 3310.01 208.516  37
   0  -8   9 3488.96 305.754  21
   0   8  -8 7669.32 395.163  37
   0  -8   8 8215.51 513.512  25
   0  -8   7 18111.9 942.736  25
   0  -8   7 18673.4 965.928  21
   0  -8   6 137.963 196.473  21
   0  -8   6 30.1643 191.113  25
   0  -8   5 6887.62 457.537  15
   0  -8   5 5645.53 721.357  30
   0  -8   5 6525.13 646.604  33
   0  -8   5 6618.46 496.753  21
   0  -8   5 6193.80 478.155  25
   0  -8   4 29.9978 184.118  18
   0  -8   4 9.23144 160.921  15
   0  -8   4 158.930 270.170  30
   0  -8   4 23.2289 250.942  33
   0  -8   4 119.685 198.691  21
   0  -8   4 147.705 198.981  25
   0  -8   4 111.654 144.164  22
   0  -8   3 1002.18 195.568  19
   0  -8   3 1038.20 215.644  15
   0  -8   3 1431.86 237.770  18
   0  -8   3 1504.17 401.726  30
   0  -8   3 1100.58 339.982  33
   0  -8   3 996.567 253.466  21
   0  -8   3 1560.91 261.295  25
   0  -8   2 11210.7 605.998  19
   0  -8   2 11621.7 653.382  18
   0  -8   2 10317.9 509.650  13
   0  -8   2 12043.3 667.725  15
   0  -8   2 11697.3 943.700  30
   0  -8   2 10886.0 886.719  33
   0  -8   2 12134.0 693.953  25
   0  -8   1 18464.7 896.957  18
   0  -8   1 16141.0 769.626  13
   0  -8   1 17083.8 836.920  19
   0  -8   1 18823.1 848.171  22
   0  -8   1 18862.2 941.499  25
   0  -8   1 17781.3 842.325  24
   0  -8   0 33838.2 1463.87  14
   0  -8   0 35002.3 1516.12  18
   0  -8   0 35384.4 1553.76  15
   0  -8   0 31010.0 1404.46  13
   0  -8   0 33359.2 1450.06  19
   0  -8   0 32289.0 1423.05  12
   0  -8   0 35314.7 1879.52  33
   0  -8   0 35481.1 1474.36  23
   0  -8   0 35663.9 1561.39  21
   0  -8   0 33489.5 1468.92  24
   0  -8   0 33726.9 1463.26  22
   0  -8  -1 18498.6 872.529  12
   0  -8  -1 20017.5 971.665  16
   0  -8  -1 18849.1 856.114  13
   0  -8  -1 20274.1 973.335  15
   0  -8  -1 19543.3 912.234  14
   0  -8  -1 19367.7 1262.70  33
   0  -8  -1 17267.4 881.632  22
   0  -8  -1 19068.2 907.947  24
   0  -8  -1 19943.8 982.050  21
   0  -8  -1 19964.4 904.192  23
   0  -8  -1 18938.9 996.427  25
   0  -8  -2 498.963 191.387  16
   0  -8  -2 674.275 190.133  15
   0  -8  -2 592.122 147.592  13
   0  -8  -2 645.912 147.801  12
   0  -8  -2 535.110 291.468  33
   0  -8  -2 746.746 236.571  25
   0  -8  -2 528.960 143.290  22
   0  -8  -2 773.747 160.143  23
   0  -8  -2 436.564 188.191  21
   0  -8  -2 699.627 163.090  24
   0  -8  -3 2766.23 271.827  16
   0  -8  -3 2735.42 237.071  17
   0  -8  -3 2590.29 243.319  12
   0  -8  -3 2826.24 242.225  23
   0  -8  -3 2734.41 296.005  21
   0  -8  -3 2859.47 261.397  24
   0  -8  -3 3220.14 343.007  25
   0  -8  -3 2720.67 226.286  22
   0  -8  -4 6384.92 400.919  12
   0  -8  -4 6038.23 427.226  16
   0  -8  -4 7079.01 387.948  13
   0  -8  -4 7050.53 440.866  26
   0  -8  -4 6367.16 572.873  21
   0  -8  -4 6429.11 529.710  25
   0  -8  -4 6810.57 420.417  24
   0  -8  -4 4929.50 360.979  23
   0  -8  -5 4644.54 308.380  13
   0  -8  -5 4676.34 329.755  12
   0  -8  -5 3812.69 317.871  24
   0  -8  -5 4323.43 351.984  26
   0  -8  -6 18962.8 830.877  13
   0  -8  -6 18697.1 883.407  26
   0  -8  -7 7681.36 418.432  12
   0  -8  -7 6671.78 383.969  13
   0  -8  -7 7687.66 440.949  26
   0  -8  -8 4039.78 274.089  12
   0  -8  -9 81.7422 79.0591  12
   0  -8  -9 3.63418 85.9684  14
   0  -9  11 3874.18 228.808  18
   0  -9  10 1497.75 175.106  18
   0  -9   9 1221.72 196.592  18
   0  -9   9 1271.85 178.654  21
   0  -9   8 448.841 181.917  18
   0  -9   8 376.901 161.039  21
   0  -9   7 17687.2 841.395  16
   0  -9   7 17543.6 899.541  18
   0  -9   7 18078.3 902.014  21
   0  -9   7 16055.5 848.759  25
   0  -9   6 14578.3 743.417  16
   0  -9   6 13797.5 781.150  21
   0  -9   6 13266.8 743.699  25
   0  -9   5 1745.74 232.924  19
   0  -9   5 1861.49 287.632  21
   0  -9   5 1669.28 261.917  25
   0  -9   4 778.896 190.018  19
   0  -9   4 971.981 236.221  18
   0  -9   4 1173.66 228.902  15
   0  -9   4 846.154 344.711  30
   0  -9   4 740.150 320.296  33
   0  -9   4 897.725 248.734  21
   0  -9   4 597.091 226.282  25
   0  -9   3 36894.4 1597.84  18
   0  -9   3 37138.0 1601.33  15
   0  -9   3 31596.8 1514.45  19
   0  -9   3 29678.5 1969.42  30
   0  -9   3 30098.6 1858.40  33
   0  -9   3 37248.3 1638.93  21
   0  -9   3 35010.8 1600.24  25
   0  -9   2 20158.1 967.380  18
   0  -9   2 18103.6 894.346  19
   0  -9   2 18326.8 966.579  15
   0  -9   2 17839.3 813.091  13
   0  -9   2 17863.4 1265.94  33
   0  -9   2 20107.0 906.838  22
   0  -9   2 20748.3 1003.69  25
   0  -9   1 21256.2 997.016  18
   0  -9   1 18682.5 914.199  19
   0  -9   1 19002.4 867.248  13
   0  -9   1 20880.7 940.177  22
   0  -9   1 21519.9 1046.56  25
   0  -9   0 14140.8 748.562  16
   0  -9   0 11768.9 596.668  13
   0  -9   0 13835.4 745.780  15
   0  -9   0 11455.8 971.450  33
   0  -9   0 14055.4 756.802  21
   0  -9   0 12421.6 644.976  22
   0  -9  -1 5900.96 374.558  14
   0  -9  -1 5879.57 342.121  13
   0  -9  -1 6180.30 441.716  16
   0  -9  -1 5790.60 350.181  12
   0  -9  -1 4983.75 626.726  33
   0  -9  -1 5804.64 373.946  24
   0  -9  -1 5167.66 354.713  22
   0  -9  -1 6603.73 460.776  21
   0  -9  -2 10199.2 550.232  17
   0  -9  -2 11139.7 547.047  13
   0  -9  -2 11655.7 632.532  16
   0  -9  -2 10417.6 578.111  14
   0  -9  -2 10918.3 560.146  12
   0  -9  -2 10696.8 547.418  22
   0  -9  -2 11221.2 671.615  25
   0  -9  -2 11560.8 640.806  21
   0  -9  -2 9979.23 563.881  24
   0  -9  -3 18979.0 886.387  16
   0  -9  -3 17925.1 867.919  14
   0  -9  -3 18178.5 844.650  12
   0  -9  -3 19350.1 833.344  13
   0  -9  -3 18815.4 931.195  21
   0  -9  -3 15136.7 804.790  23
   0  -9  -3 17222.4 798.720  22
   0  -9  -3 19475.9 967.751  25
   0  -9  -3 18147.6 845.336  24
   0  -9  -4 3842.14 299.459  14
   0  -9  -4 3490.10 278.182  12
   0  -9  -4 4147.52 669.847  25
   0  -9  -4 3617.92 274.119  24
   0  -9  -5 11437.1 580.784  12
   0  -9  -5 11713.0 562.435  13
   0  -9  -5 10484.7 585.370  14
   0  -9  -6 385.539 128.698  14
   0  -9  -6 372.548 128.995  13
   0  -9  -6 516.724 138.724  12
   0  -9  -7 5837.43 336.666  14
   0  -9  -8 799.119 101.979  14
   0  -9  -8 985.196 115.899  12
   0 -10  10 4679.97 248.235  19
   0 -10  10 4774.27 257.708  18
   0 -10   9 6501.14 363.025  19
   0 -10   9 6444.45 345.702  21
   0 -10   8 66.8733 105.473  19
   0 -10   8 57.8304 127.676  18
   0 -10   8 122.049 117.384  21
   0 -10   7 1197.89 161.887  16
   0 -10   7 1203.74 174.504  19
   0 -10   7 1727.15 218.623  18
   0 -10   7 1397.85 209.965  21
   0 -10   6-147.589 137.860  16
   0 -10   6 97.6349 134.167  19
   0 -10   6 90.0849 135.666  25
   0 -10   6 16.4764 161.308  21
   0 -10   5 149.686 172.816  18
   0 -10   5 169.357 131.222  19
   0 -10   5 152.245 154.291  16
   0 -10   5 75.9199 155.397  25
   0 -10   5 9.19111 184.321  21
   0 -10   4 11338.7 677.704  16
   0 -10   4 11278.2 620.412  19
   0 -10   4 13757.3 701.404  18
   0 -10   4 13871.9 733.988  21
   0 -10   4 12094.3 676.963  25
   0 -10   3 5945.82 386.372  19
   0 -10   3 6923.65 458.943  18
   0 -10   3 6823.72 473.450  16
   0 -10   3 6894.71 472.369  25
   0 -10   3 7266.87 504.616  21
   0 -10   2 12707.9 694.914  16
   0 -10   2 12304.7 652.243  18
   0 -10   2 13179.2 694.830  25
   0 -10   1 8032.21 419.541  13
   0 -10   1 8700.71 559.966  25
   0 -10   1 9826.41 579.901  21
   0 -10   1 8802.80 473.738  22
   0 -10   0 3919.82 252.593  13
   0 -10   0 4309.73 357.444  16
   0 -10   0 3835.57 282.725  22
   0 -10   0 4169.09 357.813  21
   0 -10  -1 3970.10 265.722  13
   0 -10  -1 3759.51 277.743  17
   0 -10  -1 4590.42 349.736  16
   0 -10  -1 4064.81 274.734  22
   0 -10  -1 4784.94 361.621  21
   0 -10  -2 7631.39 484.106  16
   0 -10  -2 8448.87 434.263  13
   0 -10  -2 8560.32 550.373  25
   0 -10  -2 8196.94 525.338  21
   0 -10  -3 348.783 126.448  13
   0 -10  -3 233.253 108.028  12
   0 -10  -3 188.678 492.240  25
   0 -10  -4 11385.7 550.975  12
   0 -10  -5 7091.21 375.818  12
   0 -10  -5 7380.04 381.011  13
   0 -10  -6 19575.2 837.082  12
   0 -11   8 995.965 121.445  18
   0 -11   7 121.705 73.1469  19
   0 -11   7 302.521 109.949  21
   0 -11   6 115.931 118.081  18
   0 -11   6 228.246 105.263  16
   0 -11   6 259.505 128.946  21
   0 -11   5 2324.31 224.111  18
   0 -11   5 2257.57 216.761  16
   0 -11   5 2205.41 206.538  25
   0 -11   5 2329.23 242.764  21
   0 -11   4 4663.45 345.205  16
   0 -11   4 5437.29 370.926  21
   0 -11   4 5167.21 341.070  25
   0 -11   3 17359.7 880.872  16
   0 -11   3 18581.1 876.052  25
   0 -11   3 18880.7 904.470  21
   0 -11   2 6505.23 422.461  16
   0 -11   2 6299.00 410.996  25
   0 -11   1 3525.85 305.291  21
   0 -11   1 4006.49 313.424  25
   0 -11   0 867.596 177.562  16
   0 -11   0 816.900 179.726  21
   0 -11  -1 1110.43 128.739  13
   0 -11  -1 1108.03 251.772  16
   0 -11  -1 1075.57 288.664  21
   0 -11  -2 189.356 95.5210  13
   0 -11  -3 2437.91 172.700  13
   0 -12   5 542.118 103.239  21
   0 -12   4 10711.4 554.327  16
   0 -12   4 12758.3 561.878  21
   0 -12   3 8048.03 453.359  16
   0 -12   3 9544.95 436.736  25
   0 -12   2 2425.35 208.371  25
   0 -12   2 2215.85 197.959  21
   0 -12   1 1749.55 251.744  25
   0 -12   1 1605.05 229.303  21
   1 -12   0 1366.91 264.678  21
   1 -12   1 768.410 147.527  16
   1 -12   1 738.069 144.681  21
   1 -12   2 83.8164 93.8149  21
   1 -12   2 69.3981 226.321  25
   1 -12   3 139.450 96.5115  16
   1 -12   3 150.941 99.1242  21
   1 -12   4 207.915 91.0681  16
   1 -12   5 4784.70 272.398  21
   1 -11  -1 11604.2 592.613  16
   1 -11  -1 12326.7 695.304  25
   1 -11  -1 11368.8 598.274  21
   1 -11   0 527.823 161.053  16
   1 -11   0 641.933 159.616  21
   1 -11   0 615.138 204.582  25
   1 -11   1 1139.92 187.062  16
   1 -11   1 1042.95 196.572  21
   1 -11   1 945.793 188.950  25
   1 -11   2 503.067 168.330  21
   1 -11   2 604.966 160.219  25
   1 -11   3 1262.08 200.582  16
   1 -11   3 1158.60 176.385  25
   1 -11   4 4065.93 284.357  18
   1 -11   4 3655.68 295.564  16
   1 -11   4 3637.90 262.559  25
   1 -11   5 1248.09 167.735  18
   1 -11   5 981.792 163.759  16
   1 -11   5 1208.27 193.580  21
   1 -11   6 15236.4 733.937  16
   1 -11   6 16333.2 753.806  18
   1 -11   6 17364.1 782.406  21
   1 -11   7 559.315 115.670  18
   1 -11   7 463.078 117.377  21
   1 -10  -6 2491.09 179.104  14
   1 -10  -5-4.28815 94.4747  14
   1 -10  -5 95.1374 102.797  12
   1 -10  -4 668.090 131.852  12
   1 -10  -4 576.162 130.995  14
   1 -10  -4 558.845 139.775  13
   1 -10  -3 3021.02 243.937  14
   1 -10  -3 2984.29 233.797  12
   1 -10  -3 2967.60 232.906  13
   1 -10  -3 3039.49 237.231  24
   1 -10  -2 10073.1 541.478  14
   1 -10  -2 9687.21 519.537  13
   1 -10  -2 10270.8 575.360  16
   1 -10  -2 10994.2 587.624  21
   1 -10  -2 10888.4 545.859  24
   1 -10  -2 10887.0 525.130  22
   1 -10  -1 19369.4 924.644  16
   1 -10  -1 17487.6 848.136  14
   1 -10  -1 18174.1 826.253  13
   1 -10  -1 19364.8 950.326  25
   1 -10  -1 17713.1 844.303  22
   1 -10  -1 19047.5 919.577  21
   1 -10   0 10457.7 604.381  16
   1 -10   0 10699.4 608.298  15
   1 -10   0 8914.78 477.099  13
   1 -10   0 9607.74 522.299  22
   1 -10   0 10380.8 597.246  21
   1 -10   0 10477.3 605.370  25
   1 -10   1 3040.69 328.650  21
   1 -10   1 2802.37 306.254  25
   1 -10   1 3299.17 263.908  22
   1 -10   2 277.801 185.035  15
   1 -10   2 269.979 194.394  16
   1 -10   2 423.221 166.666  18
   1 -10   2 537.424 200.364  25
   1 -10   2 558.872 215.332  21
   1 -10   3 11433.7 657.400  15
   1 -10   3 11040.8 632.363  18
   1 -10   3 10518.7 656.906  16
   1 -10   3 12524.5 604.471  22
   1 -10   3 11231.6 638.986  25
   1 -10   4 2023.39 252.577  18
   1 -10   4 1501.59 181.459  19
   1 -10   4 1919.00 252.005  16
   1 -10   4 1934.04 232.516  25
   1 -10   4 2561.23 303.328  21
   1 -10   5 11384.5 627.687  18
   1 -10   5 10357.2 560.408  19
   1 -10   5 11642.5 625.605  16
   1 -10   5 11751.6 659.495  21
   1 -10   5 10380.9 575.282  25
   1 -10   6 4021.87 295.856  19
   1 -10   6 4508.94 347.270  18
   1 -10   6 4514.54 326.696  16
   1 -10   6 4465.29 367.302  21
   1 -10   7 439.511 126.566  19
   1 -10   7 450.907 123.952  16
   1 -10   7 800.823 178.193  21
   1 -10   8 96.4074 93.2837  19
   1 -10   8 86.9235 116.726  21
   1 -10   9 221.465 79.8157  19
   1 -10   9 94.2905 94.9905  18
   1 -10   9 64.0706 84.9057  21
   1  -9  -8 3364.69 231.228  14
   1  -9  -8 4267.84 236.594  12
   1  -9  -7 8899.38 469.163  14
   1  -9  -6 290.093 131.850  12
   1  -9  -6 70.0121 131.556  13
   1  -9  -6 213.861 130.438  14
   1  -9  -6 282.913 123.371  24
   1  -9  -5-29.5676 136.305  13
   1  -9  -5 41.7650 126.045  14
   1  -9  -5 76.7160 129.511  12
   1  -9  -5 71.9637 122.162  24
   1  -9  -4 11212.4 597.578  14
   1  -9  -4 11056.0 567.337  12
   1  -9  -4 10688.6 573.183  24
   1  -9  -4 11848.6 972.649  25
   1  -9  -4 9523.54 534.314  23
   1  -9  -3 132.619 135.735  16
   1  -9  -3 105.453 133.840  12
   1  -9  -3 136.614 143.210  14
   1  -9  -3 117.377 133.689  13
   1  -9  -3 208.613 135.510  23
   1  -9  -3 99.1596 143.709  24
   1  -9  -3 36.5095 118.029  22
   1  -9  -3 284.010 176.428  21
   1  -9  -2 11353.0 585.342  13
   1  -9  -2 12126.2 667.902  16
   1  -9  -2 11412.0 604.713  12
   1  -9  -2 12335.1 680.369  15
   1  -9  -2 12096.4 644.703  14
   1  -9  -2 11546.5 605.863  22
   1  -9  -2 12700.2 643.049  24
   1  -9  -2 11769.4 621.316  23
   1  -9  -2 12478.8 676.163  21
   1  -9  -1 19214.9 878.138  13
   1  -9  -1 19938.1 994.377  16
   1  -9  -1 19320.8 934.990  14
   1  -9  -1 20987.2 1005.34  15
   1  -9  -1 18320.3 893.472  12
   1  -9  -1 20307.0 943.471  24
   1  -9  -1 17855.9 905.642  22
   1  -9  -1 21251.3 1007.15  21
   1  -9  -1 20124.9 931.887  23
   1  -9  -1 20473.9 1017.04  25
   1  -9   0 5881.36 388.266  12
   1  -9   0 6960.39 435.788  14
   1  -9   0 7518.24 512.399  15
   1  -9   0 7022.97 388.628  13
   1  -9   0 7929.86 462.405  24
   1  -9   0 7820.78 521.350  21
   1  -9   0 7647.83 518.925  25
   1  -9   0 7900.81 461.625  23
   1  -9   0 7538.37 444.247  22
   1  -9   1 2086.51 262.330  18
   1  -9   1 2042.02 181.578  13
   1  -9   1 2521.69 252.000  22
   1  -9   1 2620.09 301.873  25
   1  -9   1 2471.93 314.714  21
   1  -9   2 1895.39 208.133  19
   1  -9   2 2184.29 272.712  18
   1  -9   2 1932.13 284.329  15
   1  -9   2 1728.05 387.359  30
   1  -9   2 2554.36 305.305  25
   1  -9   2 2226.22 310.259  21
   1  -9   3 2630.73 308.107  15
   1  -9   3 2191.49 240.618  19
   1  -9   3 2647.11 299.508  18
   1  -9   3 1788.82 422.979  30
   1  -9   3 2362.06 287.856  25
   1  -9   3 2951.49 264.422  22
   1  -9   4 31802.7 1437.96  18
   1  -9   4 33399.9 1435.95  15
   1  -9   4 27881.1 1359.60  19
   1  -9   4 32292.7 1480.14  21
   1  -9   4 33723.5 1375.69  22
   1  -9   4 28366.4 1397.75  25
   1  -9   5 8402.25 546.785  18
   1  -9   5 8173.40 516.346  15
   1  -9   5 8633.47 582.625  21
   1  -9   5 7706.02 501.899  25
   1  -9   6 5509.06 425.671  21
   1  -9   6 4087.06 332.651  25
   1  -9   7 365.931 144.970  16
   1  -9   7 303.379 181.369  21
   1  -9   8 3416.19 314.536  18
   1  -9   8 3721.08 319.325  21
   1  -9   9 4199.91 313.533  18
   1  -9   9 3704.23 293.229  21
   1  -9  10 2873.10 218.706  18
   1  -9  10 2041.01 180.843  21
   1  -9  11 2012.67 147.044  18
   1  -9  11 1805.40 142.843  19
   1  -8  -9 5147.08 261.065  12
   1  -8  -9 3005.78 223.988  24
   1  -8  -8 7391.22 401.353  12
   1  -8  -8 6561.81 391.282  24
   1  -8  -7 8928.51 488.325  13
   1  -8  -7 10060.6 521.731  12
   1  -8  -7 9056.01 514.962  24
   1  -8  -6 2528.87 241.495  13
   1  -8  -6 2592.56 265.398  24
   1  -8  -5 11224.4 592.519  12
   1  -8  -5 11985.0 573.053  13
   1  -8  -5 10786.2 610.341  24
   1  -8  -4 29760.3 1405.30  16
   1  -8  -4 33690.3 1422.87  12
   1  -8  -4 34968.2 1571.97  25
   1  -8  -4 31060.4 1410.08  23
   1  -8  -4 30660.0 1376.40  22
   1  -8  -4 31779.6 1450.96  21
   1  -8  -4 34894.5 1463.61  24
   1  -8  -3 35405.0 1575.33  15
   1  -8  -3 36156.0 1505.80  13
   1  -8  -3 35335.4 1532.20  12
   1  -8  -3 33889.7 1558.49  16
   1  -8  -3 35974.8 1641.73  25
   1  -8  -3 33250.8 1515.58  22
   1  -8  -3 34659.3 1574.57  21
   1  -8  -3 35285.4 1541.87  23
   1  -8  -3 36465.5 1571.42  24
   1  -8  -2 16023.5 745.845  13
   1  -8  -2 16082.0 843.457  15
   1  -8  -2 15820.4 773.679  12
   1  -8  -2 15661.2 830.014  16
   1  -8  -2 16839.0 823.257  14
   1  -8  -2 16885.3 801.253  23
   1  -8  -2 16951.0 847.137  21
   1  -8  -2 14256.7 768.030  22
   1  -8  -2 16882.4 818.647  24
   1  -8  -1 2130.89 275.973  15
   1  -8  -1 1983.70 187.814  13
   1  -8  -1 1719.48 195.522  12
   1  -8  -1 2068.21 228.233  14
   1  -8  -1 1875.36 412.614  33
   1  -8  -1 1732.91 218.596  22
   1  -8  -1 1792.60 270.965  25
   1  -8  -1 2031.35 235.795  24
   1  -8  -1 2003.28 267.871  21
   1  -8  -1 2293.60 237.787  23
   1  -8   0 7985.65 517.820  15
   1  -8   0 7006.11 408.330  12
   1  -8   0 7466.71 449.202  14
   1  -8   0 6692.19 384.243  13
   1  -8   0 7441.42 468.721  18
   1  -8   0 7030.25 714.164  33
   1  -8   0 7804.54 518.677  21
   1  -8   0 7855.06 451.285  22
   1  -8   0 8151.84 464.335  23
   1  -8   0 8285.46 468.736  24
   1  -8   0 7710.03 516.000  25
   1  -8   1 303.546 192.076  15
   1  -8   1 144.076 121.448  14
   1  -8   1 323.534 102.293  13
   1  -8   1 234.486 161.192  18
   1  -8   1 73.9192 294.480  33
   1  -8   1 437.369 256.409  30
   1  -8   1 423.380 163.099  23
   1  -8   1 368.467 195.355  21
   1  -8   1 327.638 196.621  25
   1  -8   1 361.941 152.103  24
   1  -8   2 4225.13 368.433  15
   1  -8   2 3912.13 346.851  18
   1  -8   2 4041.27 304.955  19
   1  -8   2 3632.46 520.574  30
   1  -8   2 4078.10 557.938  33
   1  -8   2 4113.67 368.936  25
   1  -8   2 3780.45 356.220  20
   1  -8   3 123.670 179.010  15
   1  -8   3 122.714 179.016  18
   1  -8   3 391.665 202.736  20
   1  -8   3 47.6476 267.421  33
   1  -8   3 287.487 268.285  30
   1  -8   3 59.1425 145.413  22
   1  -8   3 75.2164 189.004  25
   1  -8   4 29075.4 1318.62  15
   1  -8   4 25197.0 1686.36  30
   1  -8   4 25048.5 1299.00  20
   1  -8   4 27138.6 1306.97  25
   1  -8   4 28054.9 1360.51  21
   1  -8   4 30385.0 1263.44  22
   1  -8   5 29111.4 1271.88  15
   1  -8   5 26975.6 1274.24  20
   1  -8   5 27848.4 1327.88  21
   1  -8   5 28152.9 1219.84  22
   1  -8   5 24788.7 1250.29  25
   1  -8   6 46878.9 1970.28  15
   1  -8   6 46576.3 1990.91   8
   1  -8   6 47801.6 1995.38  20
   1  -8   6 45468.5 2045.75  21
   1  -8   6 43806.8 1970.55  25
   1  -8   7 3138.47 308.962   8
   1  -8   7 3020.34 332.741  21
   1  -8   7 2249.84 252.757  25
   1  -8   8 469.151 200.415   8
   1  -8   8 405.185 195.704  21
   1  -8   9 914.337 187.760  21
   1  -8  10 514.768 142.314  21
   1  -8  11 8503.49 454.058  18
   1  -7 -10 22796.5 889.443  12
   1  -7 -10 18173.4 885.928  24
   1  -7  -9 11763.1 574.024  12
   1  -7  -9 10311.9 581.716  24
   1  -7  -9 12028.4 606.337  26
   1  -7  -8 4332.06 312.926  12
   1  -7  -8 3940.75 332.761  24
   1  -7  -7 231.615 148.206  13
   1  -7  -7 228.285 151.061  12
   1  -7  -7 270.598 170.426  24
   1  -7  -7 45.5343 110.819  23
   1  -7  -6 21489.2 947.653  13
   1  -7  -6 22525.8 988.192  12
   1  -7  -6 19657.9 1014.52  24
   1  -7  -6 18483.5 950.880  23
   1  -7  -5 19183.2 838.885  13
   1  -7  -5 18059.8 907.336  24
   1  -7  -5 15489.4 1102.94  25
   1  -7  -5 15930.4 849.960  23
   1  -7  -5 19083.5 913.041  26
   1  -7  -4 1359.95 201.045  15
   1  -7  -4 1565.50 198.551  16
   1  -7  -4 1969.50 199.029  13
   1  -7  -4 1756.87 207.151  12
   1  -7  -4 1765.62 217.272  23
   1  -7  -4 1326.38 287.796  25
   1  -7  -4 1748.44 220.591  21
   1  -7  -4 1686.79 236.223  26
   1  -7  -4 1894.78 239.242  24
   1  -7  -4 1815.22 199.897  22
   1  -7  -3 3103.94 252.436  12
   1  -7  -3 3137.61 283.987  15
   1  -7  -3 2982.47 271.968  16
   1  -7  -3 2974.17 279.758  26
   1  -7  -3 2972.52 322.936  25
   1  -7  -3 3011.66 266.686  23
   1  -7  -3 2908.60 275.698  21
   1  -7  -3 2686.81 247.612  22
   1  -7  -3 3083.86 283.437  24
   1  -7  -2 19020.2 923.821  12
   1  -7  -2 20157.3 903.137  13
   1  -7  -2 21605.8 1002.71  15
   1  -7  -2 20932.8 1264.36  33
   1  -7  -2 21575.0 975.678  26
   1  -7  -2 21534.9 965.546  23
   1  -7  -2 18748.0 939.214  22
   1  -7  -2 21735.4 983.223  24
   1  -7  -2 20844.4 997.106  21
   1  -7  -1 45694.9 1953.22  15
   1  -7  -1 43512.3 1869.08  12
   1  -7  -1 42328.0 1839.10  13
   1  -7  -1 43144.6 1903.42  18
   1  -7  -1 42441.9 2226.22  33
   1  -7  -1 47694.5 1915.83  23
   1  -7  -1 46916.8 1960.02  21
   1  -7  -1 45113.6 1965.28  25
   1  -7  -1 46544.7 1923.12  24
   1  -7  -1 45266.7 1899.54  22
   1  -7  -1 46889.1 1947.75  20
   1  -7   0 26662.3 1267.22  15
   1  -7   0 25881.0 1226.42  18
   1  -7   0 25648.4 1145.53  13
   1  -7   0 28058.8 1221.43  14
   1  -7   0 26598.6 1174.03  12
   1  -7   0 25272.2 1454.20  30
   1  -7   0 28965.0 1226.52  23
   1  -7   0 29605.8 1271.02  20
   1  -7   0 28179.0 1280.47  25
   1  -7   0 28448.6 1229.53  24
   1  -7   0 27465.8 1274.01  21
   1  -7   0 28111.3 1217.47  22
   1  -7   1 108.096 160.153  15
   1  -7   1 250.490 146.116  18
   1  -7   1 229.111 86.4706  13
   1  -7   1 118.047 110.601  14
   1  -7   1 41.4134 250.549  33
   1  -7   1 20.9937 193.876  30
   1  -7   1 74.5508 131.941  23
   1  -7   1 247.904 166.278  25
   1  -7   1 158.309 169.806  21
   1  -7   1 115.223 129.946  24
   1  -7   2 42491.8 1840.59  14
   1  -7   2 42380.1 1900.35  15
   1  -7   2 42847.8 1855.61   6
   1  -7   2 45041.3 2178.53  33
   1  -7   2 44832.7 2243.81  30
   1  -7   2 42702.5 1854.89  23
   1  -7   2 45247.5 1851.72  22
   1  -7   2 46371.2 1910.63  20
   1  -7   2 43115.6 1860.96  24
   1  -7   2 43709.0 1917.51  25
   1  -7   3 21757.5 1121.33  20
   1  -7   3 24524.9 1139.28  15
   1  -7   3 24565.7 1108.51   8
   1  -7   3 23205.6 1359.30  33
   1  -7   3 23674.7 1474.71  30
   1  -7   3 24626.3 1171.86  21
   1  -7   3 23566.0 1140.43  25
   1  -7   3 24772.1 1082.11  22
   1  -7   4 11611.7 659.394  20
   1  -7   4 12487.4 665.739  15
   1  -7   4 9872.26 615.190   6
   1  -7   4 12650.5 892.265  33
   1  -7   4 11376.1 972.657  30
   1  -7   4 13298.5 720.529  21
   1  -7   4 12740.2 615.555  22
   1  -7   4 11999.0 668.432  25
   1  -7   5 15763.8 788.911  15
   1  -7   5 14934.4 767.650   6
   1  -7   5 14155.3 1149.60  30
   1  -7   5 15315.4 795.050  20
   1  -7   5 13876.6 789.511  25
   1  -7   5 14954.5 833.141  21
   1  -7   5 16340.4 753.154  22
   1  -7   6 19019.8 890.586   6
   1  -7   6 17974.8 899.999   8
   1  -7   6 19212.5 911.108  20
   1  -7   6 17166.7 943.725  21
   1  -7   6 16971.2 909.163  25
   1  -7   7 6400.05 442.970   8
   1  -7   7 6426.22 422.682  20
   1  -7   7 6523.41 482.362  21
   1  -7   7 5245.00 414.488  25
   1  -7   8 795.893 150.661   9
   1  -7   8 829.576 211.417   8
   1  -7   8 913.969 351.981  30
  -1   7  -8 647.639 124.983  37
   1  -7   8 623.295 202.977  21
   1  -7   9 1476.25 226.221   8
  -1   7  -9 1211.31 141.582  37
   1  -7   9 1263.35 229.239  21
   1  -7  10 1342.95 199.584   8
  -1   7 -10 941.763 127.875  37
   1  -7  10 1323.50 199.944  21
  -1   7 -11 1801.20 148.430  37
   1  -7  12 8967.25 447.748  18
   1  -6 -11 4023.97 265.524  24
   1  -6 -10 3285.46 244.518  12
   1  -6 -10 3910.29 293.619  26
   1  -6 -10 3318.75 280.931  24
   1  -6  -9 717.946 160.439  12
   1  -6  -9 764.564 189.056  24
   1  -6  -9 742.164 199.770  26
   1  -6  -8 1254.39 180.600  13
   1  -6  -8 1871.86 217.597  12
   1  -6  -8 1054.69 179.552  23
   1  -6  -8 1230.18 237.449  24
   1  -6  -8 1462.45 249.434  26
   1  -6  -7 350.317 144.252  13
   1  -6  -7 239.240 149.346  12
   1  -6  -7 475.472 153.219  23
   1  -6  -7 368.257 188.091  24
   1  -6  -7 431.103 209.711  26
   1  -6  -6 1791.67 202.063  13
   1  -6  -6 1908.60 221.868  12
   1  -6  -6 1357.85 213.523  23
   1  -6  -6 2103.20 270.711  24
   1  -6  -5 1310.12 186.752  12
   1  -6  -5 1649.05 183.639  13
   1  -6  -5 1539.84 211.921  23
   1  -6  -5 1492.84 234.210  24
   1  -6  -5 1497.45 450.650  25
   1  -6  -4 12824.5 683.190  15
   1  -6  -4 14786.7 657.589  13
   1  -6  -4 13783.7 718.367  26
   1  -6  -4 14302.1 764.034  25
   1  -6  -4 13634.9 698.175  21
   1  -6  -4 13594.8 708.335  23
   1  -6  -4 13687.5 675.441  22
   1  -6  -4 15332.2 743.808  24
   1  -6  -3 44672.9 1925.65  12
   1  -6  -3 46462.2 1963.52  15
   1  -6  -3 47424.8 2228.26  33
   1  -6  -3 47159.2 2006.90  25
   1  -6  -3 42548.3 1927.59  22
   1  -6  -3 46462.8 1969.66  21
   1  -6  -3 47842.2 1960.63  23
   1  -6  -3 47473.6 1969.03  26
   1  -6  -3 48652.0 1983.11  24
   1  -6  -2 23882.8 1057.87  13
   1  -6  -2 23595.8 1079.11  12
   1  -6  -2 26050.0 1375.05  33
   1  -6  -2 28192.3 1543.61  29
   1  -6  -2 25383.1 1118.58  26
   1  -6  -2 26568.6 1119.14  23
   1  -6  -2 25459.0 1126.71  24
   1  -6  -1 4302.05 468.309  33
   1  -6  -1 3625.54 373.788  30
   1  -6  -1 4340.24 557.744  29
   1  -6   0 40446.7 1925.56  30
   1  -6   1 1960.53 353.735  33
   1  -6   1 1657.40 325.282  30
   1  -6   1 1675.43 168.638  32
   1  -6   2 12302.7 941.138  29
   1  -6   2 11702.1 786.213  33
   1  -6   2 10947.5 824.969  30
   1  -6   3 12553.8 643.720   6
   1  -6   3 12877.7 952.319  30
   1  -6   3 15606.1 1064.55  29
   1  -6   3 14954.0 886.633  33
   1  -6   4 20329.2 904.684  15
   1  -6   4 18461.5 900.841  20
   1  -6   4 19489.0 1251.92  30
   1  -6   4 20910.0 1117.60  33
   1  -6   4 20011.9 860.591  22
   1  -6   5 30648.3 1368.92  20
   1  -6   5 31077.0 1360.96  15
   1  -6   5 32147.3 1362.75   8
   1  -6   5 29130.3 1332.09   6
   1  -6   5 30789.5 1571.92  33
   1  -6   5 30237.6 1318.63  22
   1  -6   5 30363.8 1396.37  25
   1  -6   6 12807.1 691.805   8
   1  -6   6 13836.8 679.819   6
   1  -6   6 13527.1 698.195  20
   1  -6   6 13223.9 730.059  25
   1  -6   7 2461.27 217.288   9
   1  -6   7 2792.52 510.182  30
   1  -6   7 2727.49 278.905   8
   1  -6   7 2675.89 262.887   6
   1  -6   8 470.801 158.192   9
   1  -6   8 434.144 318.642  30
  -1   6  -8 410.881 125.603  37
   1  -6   8 542.082 192.785   8
   1  -6   9 1031.10 179.456   9
   1  -6   9 951.283 203.779   8
   1  -6   9 1191.82 363.643  30
  -1   6  -9 998.552 146.767  37
   1  -6  10 667.345 160.752   9
   1  -6  10 458.334 174.342   8
  -1   6 -10 679.761 131.811  37
   1  -6  10 506.066 163.214  21
   1  -6  11 3085.59 225.558   9
   1  -6  11 3241.25 251.882   8
  -1   6 -11 2514.34 200.550  37
  -1   6 -12 4309.43 248.830  37
   1  -5 -12 264.031 101.708  24
   1  -5 -11 2661.43 192.604  12
   1  -5 -11 2851.53 259.708  24
   1  -5 -11 3047.11 247.957  26
   1  -5 -10 9084.77 491.409  12
   1  -5 -10 9216.03 559.133  24
   1  -5 -10 9893.61 552.723  26
   1  -5  -9 21703.0 921.936  12
   1  -5  -9 19751.6 998.873  24
   1  -5  -9 21503.5 980.042  26
   1  -5  -8 2789.41 260.102  12
   1  -5  -8 2830.49 239.382  13
   1  -5  -8 3057.86 321.326  26
   1  -5  -8 2283.84 264.848  23
   1  -5  -8 2357.51 310.514  24
   1  -5  -7 574.448 162.678  12
   1  -5  -7 583.550 147.092  13
   1  -5  -7 194.679 147.284  23
   1  -5  -7 518.918 199.114  26
   1  -5  -7 385.734 196.630  24
   1  -5  -6 815.031 163.448  12
   1  -5  -6 879.336 153.600  13
   1  -5  -6 632.052 177.475  23
   1  -5  -6 797.273 208.379  24
   1  -5  -6 796.462 193.255  26
   1  -5  -5 1625.80 181.230  12
   1  -5  -5 1777.57 170.058  13
   1  -5  -5 1932.42 361.935  25
   1  -5  -5 1611.04 212.881  23
   1  -5  -5 1712.53 225.097  24
   1  -5  -4 13153.2 609.087  13
   1  -5  -4 13587.8 690.038  24
   1  -5  -4 13492.4 700.202  25
   1  -5  -3 87021.2 3702.88  33
   1  -5  -3 84681.1 3801.17  29
   1  -5  -2 61840.7 2734.49  33
   1  -5  -2 61117.4 2832.33  29
   1  -5  -1 27280.9 1279.16  33
   1  -5  -1 23324.1 1015.03  32
   1  -5  -1 23376.4 1171.11  30
   1  -5  -1 26750.4 1384.59  29
   1  -5   0 5274.79 440.006  30
   1  -5   1 1652.01 283.915  33
   1  -5   1 1458.15 271.905  30
   1  -5   1 1393.18 134.088  32
   1  -5   2 35664.1 1695.51  29
   1  -5   2 35437.5 1546.24  33
   1  -5   2 36543.6 1646.74  30
   1  -5   3 2187.63 379.570  29
   1  -5   3 2425.31 315.767  33
   1  -5   3 2056.38 352.079  30
   1  -5   4 22265.2 1269.93  29
   1  -5   4 21093.2 1130.98  33
   1  -5   5 4009.43 384.600  33
   1  -5   5 3309.48 269.383   8
   1  -5   6 11873.9 554.334   9
   1  -5   6 13103.6 999.223  30
   1  -5   6 11147.7 612.298   8
   1  -5   6 12520.3 596.137   6
   1  -5   7 2542.73 215.962   9
   1  -5   7 2825.20 511.273  30
   1  -5   7 3046.95 270.627   8
   1  -5   7 2648.74 235.520   6
   1  -5   8 1789.73 201.974   9
  -1   5  -8 1887.44 173.287  37
   1  -5   8 1513.99 415.479  30
   1  -5   8 1728.61 235.131   8
   1  -5   9 4823.73 320.112   9
  -1   5  -9 4687.01 289.517  37
   1  -5   9 5047.77 361.112   8
   1  -5  10 1563.31 203.206   9
  -1   5 -10 1697.11 182.689  37
   1  -5  10 1732.02 221.453   8
   1  -5  11 1915.49 206.835   9
  -1   5 -11 1834.79 190.052  37
   1  -5  11 1964.27 212.211   8
   1  -5  12 3784.18 245.572   9
  -1   5 -12 3092.88 228.608  37
   1  -4 -12 5300.82 342.386  24
   1  -4 -12 4743.51 304.096  26
   1  -4 -11 4022.79 315.620  26
   1  -4 -10 13068.1 600.494  12
   1  -4 -10 13525.4 673.178  26
   1  -4  -9 15478.9 727.105  12
   1  -4  -9 15675.2 792.655  26
   1  -4  -8 21808.6 1008.20  12
   1  -4  -8 21557.7 976.915  13
   1  -4  -8 22830.8 1073.95  26
   1  -4  -7-30.3130 105.591  13
   1  -4  -7 17.4414 119.996  12
   1  -4  -7 89.9104 147.472  37
   1  -4  -6 888.766 132.100  13
   1  -4  -6 769.238 140.779  12
   1  -4  -6 762.104 147.850  37
   1  -4  -5 20515.0 886.193  37
   1  -4  -4 418.579 200.285  29
   1  -4  -3 60656.6 2582.86  33
   1  -4  -3 58099.6 2645.45  29
   1  -4  -2 128420. 5209.17  33
   1  -4  -2 124828. 5283.45  29
   1  -4  -1 72717.6 3001.47  29
   1  -4  -1 72652.9 2911.10  33
   1  -4   0 194.285 144.310  30
   1  -4   1 32655.5 1530.43  33
   1  -4   1 34847.2 1574.25  30
   1  -4   1 32897.5 1620.67  29
   1  -4   2 16937.1 942.645  30
   1  -4   2 16556.8 953.847  29
   1  -4   2 15875.1 858.503  33
   1  -4   3 24655.7 1186.62  33
   1  -4   3 24563.4 1287.75  29
   1  -4   4 1539.26 309.931  29
   1  -4   4 1238.40 215.010  33
   1  -4   5 59399.7 2790.69  30
   1  -4   6 208.274 255.990  30
   1  -4   7 4667.04 283.536   9
  -1   4  -7 4454.43 259.731  37
   1  -4   7 4391.15 576.678  30
   1  -4   7 4848.81 325.211   8
   1  -4   8 296.292 145.628   9
  -1   4  -8 113.870 117.690  37
   1  -4   8 84.9317 261.385  30
   1  -4   8 88.2234 148.169   8
   1  -4   9 678.701 172.476   9
  -1   4  -9 595.614 150.027  37
   1  -4   9 384.052 285.304  30
   1  -4   9 659.613 178.667   8
   1  -4  10 12304.4 611.655   9
  -1   4 -10 12115.7 590.406  37
   1  -4  10 12028.6 637.764   8
   1  -4  11 4430.66 300.667   9
  -1   4 -11 3966.25 280.717  37
   1  -4  11 3727.63 288.903   8
   1  -4  12 7360.35 386.853   9
  -1   4 -12 6122.34 370.767  37
  -1   4 -13 3776.09 243.692  37
   1  -3 -12 7157.39 408.598  26
   1  -3 -11 25077.7 1157.11  26
   1  -3 -10 5929.96 390.347  37
   1  -3 -10 6517.69 438.190  26
   1  -3  -9 10226.1 527.839  12
   1  -3  -9 9730.35 531.518  37
   1  -3  -8 11775.3 583.785  12
   1  -3  -8 11165.8 575.208  37
   1  -3  -7-89.1574 101.871  13
   1  -3  -7 99.3205 106.218  12
   1  -3  -7 36.3096 135.051  37
   1  -3  -6 16303.4 722.569  37
   1  -3  -5 24699.8 1033.19  37
   1  -3  -4 29939.8 1387.88  29
   1  -3  -3 489.326 162.611  33
   1  -3  -3 561.654 194.095  29
   1  -3  -2 4271.10 391.980  29
   1  -3  -2 4634.05 342.957  33
   1  -3  -1 3467.87 294.080  33
   1  -3  -1 3549.92 346.845  29
   1  -3  -1 3715.24 253.686  30
   1  -3   0 3354.48 261.350  30
   1  -3   0 2477.12 255.508  33
   1  -3   1 478.438 196.876  29
   1  -3   1 494.108 170.493  30
   1  -3   1 384.837 153.052  33
   1  -3   2 587.319 164.647  33
   1  -3   2 805.849 225.911  29
   1  -3   3 18618.7 865.147  33
   1  -3   3 16708.0 918.762  29
   1  -3   4 111549. 4701.00  30
   1  -3   4 112754. 4597.19  29
   1  -3   4 110350. 4518.35  33
   1  -3   5 93037.4 4040.93  30
   1  -3   6 11518.0 838.067  30
   1  -3   7 1027.70 142.573   9
   1  -3   7 1044.46 308.382  30
  -1   3  -7 1180.74 131.048  37
   1  -3   7 700.351 155.374   8
   1  -3   8 158.553 135.288   9
  -1   3  -8 128.384 117.139  37
   1  -3   8 75.7915 240.724  30
   1  -3   8 28.1486 127.141   8
  -1   3  -8 194.690 143.130   1
  -1   3  -9 16361.2 708.703  37
   1  -3   9 12946.9 1085.04  30
   1  -3   9 14064.7 743.950   8
  -1   3  -9 15282.9 736.921   1
  -1   3 -10 21178.8 915.846  37
  -1   3 -10 21421.3 948.978   1
  -1   3 -11 12425.8 579.924  37
   1  -3  11 10165.0 565.028   8
  -1   3 -12 14882.0 701.896  37
   1  -3  13 3918.53 240.955   9
  -1   3 -13 2942.67 235.672  37
   1  -3  14 134.792 72.7704   9
  -1   2  13 1089.14 111.204   4
   1  -2 -13 1719.20 194.060  24
   1  -2 -12 4864.23 317.459  37
   1  -2 -12 4795.54 324.544  26
   1  -2 -11 29756.3 1299.60  37
   1  -2 -11 29526.9 1333.18  26
  -1   2  10 623.422 149.229   9
   1  -2 -10 688.677 191.804  37
  -1   2   9 1748.77 182.480   9
   1  -2  -9 1897.92 225.079  37
   1  -2  -8 7115.90 389.093  37
   1  -2  -8 5715.11 696.787  35
   1  -2  -7-6.91854 123.936  37
   1  -2  -7 166.315 285.576  35
   1  -2  -6 2013.07 374.782  35
   1  -2  -6 1850.56 154.960  37
   1  -2  -5 69596.1 2802.01  37
   1  -2  -5 77773.9 3171.00  35
   1  -2  -4 47617.0 1955.12  29
   1  -2  -4 43752.0 2101.78  35
   1  -2  -3 50747.0 2135.01  29
   1  -2  -2 1999.97 199.199  33
   1  -2  -2 2380.09 236.370  29
   1  -2  -1 51802.7 2093.98  30
   1  -2   0 49685.5 2420.75  33
   1  -2   0 71992.7 2451.10  30
   1  -2   1 140959. 5803.37  33
   1  -2   1 152357. 5855.36  29
   1  -2   2 1737.73 217.269  29
   1  -2   2 1161.27 163.883  33
   1  -2   3 23016.0 1049.64  29
   1  -2   3 22326.7 1117.77  30
   1  -2   4 22764.1 1064.28  29
   1  -2   4 24630.8 1198.89  30
   1  -2   5 106334. 4492.89  30
  -1   2  -6 85917.6 3416.12  37
   1  -2   6 87034.4 3765.47  30
  -1   2  -7 8678.86 413.196  37
   1  -2   7 7778.23 686.831  30
   1  -2   8 14628.2 1075.56  30
  -1   2  -8 16516.6 783.672   1
   1  -2   8 15210.9 773.585   8
   1  -2   9 44826.5 1805.11   9
  -1   2  -9 46866.2 1807.43  37
  -1   2  -9 43462.0 1840.75   1
   1  -2  10 7498.12 419.427   9
  -1   2 -10 7634.66 420.614  37
  -1   2 -10 7491.34 451.041   1
   1  -2  11 13417.4 661.088   9
  -1   2 -11 13019.2 664.299  37
  -1   2 -11 14186.5 694.115   1
   1  -2  12 403.238 168.551   9
  -1   2 -12 356.603 159.074  37
   1  -2  13 512.680 139.110   9
  -1   2 -13 570.777 140.914  37
   1  -2  14 68.3494 74.4649   9
   1  -1 -14 2420.89 197.542  24
   1  -1 -13 2453.81 208.599  37
  -1   1  12 3852.22 250.825   9
   1  -1 -12 3958.64 292.249  37
   1  -1 -12 3094.79 258.926  26
  -1   1  11 2703.32 238.539   9
   1  -1 -11 3150.80 272.774  37
  -1   1  10 2826.15 240.695   9
   1  -1 -10 3374.86 278.926  37
  -1   1   9 122.438 131.612   9
   1  -1  -9 232.764 288.311  35
   1  -1  -9 87.4383 152.718  37
  -1   1   8 11934.1 573.802   9
   1  -1  -8 13280.4 592.848  37
   1  -1  -8 10906.5 943.810  35
   1  -1  -8 12686.7 633.754   1
   1  -1  -7 936.763 129.006  37
   1  -1  -7 1128.96 331.386  35
   1  -1  -6 11090.4 770.706  35
   1  -1  -6 10264.5 466.750  37
   1  -1  -5 50471.7 2292.65  35
  -1   1   4 27771.0 1208.84  30
   1  -1  -4 29656.9 1408.86  35
   1  -1  -3 104934. 4086.07  29
   1  -1  -3 97303.3 4158.65  35
  -1   1   2 1101.79 97.0383  36
   1  -1  -2 1159.45 186.968  35
   1  -1  -2 1249.52 168.102  29
   1  -1  -1 53567.7 2120.04  10
  -1   1   0 14433.8 614.967  28
   1  -1   1 16312.5 743.008  29
   1  -1   2 208609. 8246.64  29
   1  -1   3 556240. 21810.0  29
   1  -1   4 70837.2 2833.46  29
   1  -1   5 3837.53 395.126  30
  -1   1  -5 4266.92 221.144  37
   1  -1   6 14319.9 909.277  30
  -1   1  -6 16057.6 680.112  37
  -1   1  -7 440.007 115.997  37
   1  -1   7 582.559 233.900  30
   1  -1   8 1452.78 171.251   9
  -1   1  -8 1827.71 181.598  37
   1  -1   8 1355.44 304.188  30
   1  -1   8 1377.14 172.010   8
  -1   1  -8 1658.30 205.356   1
   1  -1   9 23960.6 976.042   9
  -1   1  -9 24543.5 991.786  37
  -1   1  -9 22680.6 1020.76   1
   1  -1  10 1114.19 196.535   9
  -1   1 -10 1260.25 214.337  37
  -1   1 -10 636.888 449.746  35
  -1   1 -10 1305.98 237.151   1
   1  -1  11 11524.1 593.084   9
  -1   1 -11 12106.1 615.379  37
  -1   1 -11 12087.5 643.216   1
   1  -1  12 17598.1 799.460   9
   1  -1  13 3889.61 246.003   9
  -1   0  14-8.21367 77.2446   4
  -1   0  13 5078.70 291.672   9
   1   0 -13 4988.54 314.654  37
  -1   0  12 7064.64 394.895   9
   1   0 -12 6994.74 415.016  37
  -1   0  11 23925.3 1091.96   9
   1   0 -11 25978.8 1115.57  37
  -1   0  10 2819.25 244.352   9
   1   0 -10 2160.98 495.519  35
   1   0 -10 2893.33 254.994  37
  -1   0   9 322.356 144.594   9
   1   0  -9 442.959 150.530  37
   1   0  -9 361.091 298.017  35
  -1   0   8 294.601 122.230   9
   1   0  -8 264.661 287.570  35
   1   0  -8 300.331 121.638  37
   1   0  -8 319.327 153.415   1
   1   0  -7 4146.44 237.976  37
   1   0  -7 3819.36 493.257  35
   1   0  -6 120.062 85.4322  37
   1   0  -6 93.5182 215.347  35
  -1   0   6 184.387 119.793  30
  -1   0   5 4066.18 299.697  30
  -1   0   4 71898.2 2843.73  31
   1   0  -4 68451.7 2847.84  29
  -1   0   3 295873. 11634.3  30
  -1   0   2 33604.5 1367.35  30
  -1   0   1 11758.7 509.324  36
   1   0   1 112084. 4426.28  10
   1   0   2 204.008 125.412  10
  -1   0  -3 22981.8 950.655  31
  -1   0  -5 75146.4 2985.52  37
   1   0   6 13347.7 837.485  30
  -1   0  -6 14824.9 640.593  37
   1   0   7 791.795 228.507  30
  -1   0  -8 2145.19 502.414  35
  -1   0  -8 2229.76 237.910   1
   1   0   9 3994.77 274.804   9
  -1   0  -9 3770.00 649.475  35
  -1   0  -9 3657.87 323.352   1
   1   0  10 123.764 159.181   9
  -1   0 -10 174.872 209.407   1
   1   0  11 18239.6 834.551   9
   1   0  12 4748.18 299.598   9
   1   0  13 7102.83 349.652   9
  -1   0 -13 6451.10 376.673  37
  -1  -1  14 41.8537 86.6145   4
  -1  -1  13 2604.27 216.677   9
   1   1 -13 2604.33 226.798  37
  -1  -1  12 4294.11 303.664   9
   1   1 -12 4094.89 301.918  37
  -1  -1  11 5699.29 362.852   9
   1   1 -11 5626.54 364.373  37
  -1  -1  10 22825.0 1001.28   9
   1   1 -10 22856.6 997.089  37
  -1  -1   9 64665.9 2651.08   9
   1   1  -9 59796.0 3138.47  35
   1   1  -9 67184.0 2643.66  37
   1   1  -9 63907.9 2686.24   1
  -1  -1   8 3431.60 237.633   9
   1   1  -8 2861.33 485.521  35
   1   1  -8 3296.12 219.510  37
   1   1  -8 3091.77 257.095   1
  -1  -1   7 12676.3 763.888  30
  -1  -1   6 83305.5 3511.15  30
  -1  -1   5 108070. 4435.34  30
  -1  -1   4 16328.7 806.888  30
  -1  -1   3 4900.43 304.993  30
  -1  -1   3 3604.02 249.011  31
  -1  -1   2 10134.5 557.846  31
  -1  -1   2 14543.9 596.314  30
  -1  -1   1 190364. 8316.95  31
  -1  -1   1 233617. 8327.02  30
  -1  -1   0 1891.78 168.015  35
  -1  -1  -1 36175.5 1481.97  31
  -1  -1  -1 34374.6 1515.01  35
  -1  -1  -1 35253.4 1446.01  36
  -1  -1  -2 127.201 121.591  31
  -1  -1  -2 148.055 107.457  36
  -1  -1  -2 185.696 184.280  35
   1   1   3 4638.46 250.172  10
  -1  -1  -4 56501.6 2236.92  33
  -1  -1  -6 14272.0 1027.14  35
  -1  -1  -7 1204.06 131.847  11
  -1  -1  -7 823.812 389.297  35
  -1  -1  -8 15390.1 1238.36  35
   1   1   9 11105.9 543.542   9
  -1  -1  -9 10387.1 1054.61  35
   1   1  10 7426.13 421.118   9
  -1  -1 -10 8353.65 480.296  37
  -1  -1 -10 7931.86 496.166   1
   1   1  11 17191.9 799.151   9
  -1  -1 -11 18512.5 857.387  37
   1   1  12 2974.10 221.171   9
  -1  -1 -12 2994.60 267.351  37
   1   1  13 1043.30 111.119   9
  -1  -1 -13 688.886 112.265  26
  -1  -2  14 642.184 105.324   4
  -1  -2  13 5665.98 319.758   9
   1   2 -13 4602.52 314.153  37
  -1  -2  12 14803.6 707.783   9
  -1  -2  11 9033.93 496.267   9
  -1  -2  10 27691.9 1176.78   9
   1   2 -10 21711.0 1606.39  35
  -1  -2   9 2431.66 228.475   9
  -1  -2   8 1906.13 193.570   9
  -1  -2   8 1992.80 329.617  30
   1   2  -8 1841.70 196.187   1
  -1  -2   7 2371.93 332.153  30
  -1  -2   6 1876.57 293.890  30
  -1  -2   5 160328. 6371.71  30
  -1  -2   5 153910. 6187.53  33
  -1  -2   4 11874.1 592.661  33
  -1  -2   4 11468.3 672.719  30
  -1  -2   3 15646.8 801.458  30
  -1  -2   2 18584.6 733.747  31
  -1  -2   2 11224.4 682.320  30
  -1  -2   1 26340.5 1174.77  31
  -1  -2   0 2223.40 209.691  28
  -1  -2  -1 37167.9 1741.25  35
  -1  -2  -1 39165.6 1698.69  31
  -1  -2  -1 42463.1 1680.52  28
  -1  -2  -2 67493.9 2729.43  33
  -1  -2  -2 63276.4 2816.25  35
   1   2   3 70780.5 2934.54  10
  -1  -2  -3 75410.2 3197.93  35
  -1  -2  -3 78912.1 3015.81  33
  -1  -2  -4 109.930 103.966  37
  -1  -2  -4 122.991 90.8278  33
  -1  -2  -5 10692.9 497.800  37
  -1  -2  -6 539.799 140.278  37
  -1  -2  -7 2722.83 206.711  11
  -1  -2  -7 2703.38 228.810  12
  -1  -2  -7 3172.06 252.864  37
  -1  -2  -7 2482.54 519.053  35
  -1  -2  -7 2739.56 250.290   1
  -1  -2  -8 8885.03 489.151  12
  -1  -2  -8 10146.6 517.598  37
  -1  -2  -8 8826.96 953.924  35
  -1  -2  -8 8528.77 514.042   1
   1   2   9 9254.13 489.147   9
  -1  -2  -9 9543.18 510.005  12
  -1  -2  -9 8240.11 972.249  35
  -1  -2  -9 10228.8 573.043   1
   1   2  10 22892.2 1038.10   9
  -1  -2 -10 26110.2 1117.35  37
   1   2  11 12179.5 590.764   9
  -1  -2 -11 13735.5 666.613  37
   1   2  12 4365.24 251.875   9
  -1  -2 -12 4942.56 321.525  26
  -1  -2 -13 129.104 98.5340  24
  -1  -2 -13 231.864 77.5048  26
  -1  -3  14 1854.62 147.546   4
  -1  -3  13 4462.16 288.815   9
  -1  -3  12 15185.3 725.945   9
  -1  -3  11 17300.9 816.878   9
  -1  -3  10 1095.64 208.914   9
   1   3 -10 1274.24 183.761  37
   1   3  -9 115.191 131.171  37
  -1  -3   8 4679.44 523.965  30
  -1  -3   7-19.8005 206.988  30
  -1  -3   6 12514.8 845.362  30
  -1  -3   5 9596.21 533.802  33
  -1  -3   5 9164.50 661.614  30
  -1  -3   4 13676.8 726.038  33
  -1  -3   4 13871.6 813.336  30
  -1  -3   3 3628.63 324.416  33
  -1  -3   3 3762.61 358.490  30
  -1  -3   2 77739.4 3252.55  33
  -1  -3   1 5081.93 392.738  33
  -1  -3   0 5788.15 354.454  28
  -1  -3   0 6695.07 424.333  30
  -1  -3  -1 67278.7 2845.34  33
  -1  -3  -2 97328.9 4010.35  33
  -1  -3  -3 73874.4 3038.22  35
  -1  -3  -3 81653.8 2853.13  33
  -1  -3  -4 15889.8 737.678  33
  -1  -3  -4 16036.4 1013.68  35
  -1  -3  -4 13373.2 635.186  37
  -1  -3  -5 24542.5 1055.14  37
  -1  -3  -6 1052.40 138.715  11
  -1  -3  -6 1109.00 160.937  12
  -1  -3  -6 925.463 179.395  37
  -1  -3  -6 1188.16 171.482   1
  -1  -3  -7 11243.4 572.364  12
  -1  -3  -7 11168.2 532.145  11
  -1  -3  -7 10520.6 994.092  35
  -1  -3  -7 10786.5 567.753  37
  -1  -3  -7 10561.7 572.839   1
  -1  -3  -8 19648.2 924.253  12
  -1  -3  -8 20507.2 938.835  37
  -1  -3  -8 19388.1 937.370   1
   1   3   9 13870.6 674.867   9
  -1  -3  -9 15322.1 731.453  12
   1   3  10 2111.14 187.311   9
  -1  -3 -10 2216.83 201.188  12
  -1  -3 -11 5030.85 366.635  26
  -1  -3 -12 3715.18 259.470  26
  -1  -3 -12 3044.12 256.523  24
  -1  -4  14 1256.48 118.357   5
  -1  -4  14 1191.51 108.878   4
  -1  -4  13 2302.10 199.516   9
   1   4 -13 1473.52 171.257  37
   1   4 -12 5369.48 323.982  37
   1   4 -11 3262.09 248.936  37
   1   4 -10 2004.58 203.651  37
  -1  -4   9 2658.31 248.171   9
  -1  -4   9 1918.15 418.411  30
   1   4  -9 2659.06 215.689  37
  -1  -4   9 2346.24 235.718   8
  -1  -4   8 1849.10 202.795   9
  -1  -4   8 1259.28 346.304  30
  -1  -4   8 1348.73 193.086   8
  -1  -4   7 6371.27 359.967   9
  -1  -4   7 7574.20 686.164  30
  -1  -4   7 6390.66 391.208   8
  -1  -4   6 5020.25 383.973  33
  -1  -4   6 4801.73 547.276  30
  -1  -4   5 12242.0 664.876  33
  -1  -4   5 11806.9 814.350  30
  -1  -4   5 10608.2 488.926  32
  -1  -4   4 28151.6 1315.39  33
  -1  -4   4 26140.0 1417.12  30
  -1  -4   3 32734.3 1536.09  33
  -1  -4   2 52801.4 2329.56  33
  -1  -4   1 724.477 246.301  33
  -1  -4   1 486.326 169.312  28
  -1  -4   1 361.240 206.469  30
  -1  -4   0 98170.7 3879.44  28
  -1  -4   0 92357.1 4018.17  30
  -1  -4  -1 71779.8 3077.60  33
  -1  -4  -2 117268. 4847.11  33
  -1  -4  -3 44804.9 1804.67  33
  -1  -4  -3 37626.2 1584.56  32
  -1  -4  -4 907.396 190.030  33
  -1  -4  -5 1173.12 160.456  12
  -1  -4  -5 942.025 128.471  11
  -1  -4  -6 5540.96 360.768   1
  -1  -4  -6 5726.25 324.426  13
  -1  -4  -6 5627.11 337.146  17
  -1  -4  -7 271.364 167.861   1
  -1  -4  -7 259.610 105.770  13
  -1  -4  -7 449.164 153.665  12
  -1  -4  -8 5681.28 377.838  12
  -1  -4  -9 13286.6 666.738  12
  -1  -4 -10 9212.36 500.192  12
  -1  -4 -10 10868.9 589.993  26
  -1  -4 -11 3303.56 217.770  12
  -1  -4 -11 3674.38 286.556  24
  -1  -4 -11 3959.30 298.657  26
  -1  -4 -12 790.997 122.874  24
  -1  -4 -12 1303.81 149.015  26
  -1  -5  14 559.006 74.7878   5
   1   5 -13 2200.46 190.500  37
  -1  -5  13 2976.11 180.622   4
  -1  -5  12 11656.9 538.689   9
   1   5 -12 9863.39 509.212  37
  -1  -5  11 592.873 178.875   9
   1   5 -11 593.931 142.505  37
  -1  -5  10 2796.82 262.507   9
   1   5 -10 2867.66 228.396  37
  -1  -5  10 2503.25 249.116   8
  -1  -5   9 5.05897 168.787   9
  -1  -5   9 58.0582 230.363  30
  -1  -5   9-32.8482 150.675   8
  -1  -5   8 2179.11 225.837   9
  -1  -5   8 2061.64 442.932  30
  -1  -5   8 2205.20 238.480   8
  -1  -5   7 4625.00 295.681   9
  -1  -5   7 5364.75 627.255  30
  -1  -5   7 3839.13 317.338   8
  -1  -5   6 25235.5 1098.92   9
  -1  -5   6 24771.6 1144.65   8
  -1  -5   6 24440.4 1512.34  30
  -1  -5   5 80069.1 3243.36  32
  -1  -5   5 80796.7 3685.65  30
  -1  -5   5 85491.5 3489.56  33
  -1  -5   4 51454.4 2138.20  32
  -1  -5   4 58446.3 2399.89  33
  -1  -5   3 8571.67 607.294  33
  -1  -5   3 8335.29 412.216  32
  -1  -5   2 55.3616 208.060  33
  -1  -5   2 47.3441 195.680  30
  -1  -5   1 18291.6 1022.82  33
  -1  -5   1 17386.5 791.527  28
  -1  -5   1 17930.1 1016.89  30
  -1  -5   0 5436.19 467.936  30
  -1  -5  -1 2527.35 332.779  33
  -1  -5  -1 2249.44 175.883  32
  -1  -5  -2 46342.7 2108.34  33
  -1  -5  -2 45188.4 1861.08  32
  -1  -5  -3 50669.6 2219.65  33
  -1  -5  -3 47356.6 1956.58  32
  -1  -5  -4 8911.44 470.428  17
  -1  -5  -4 8861.17 448.860  11
  -1  -5  -4 10724.0 671.286  33
  -1  -5  -4 9430.93 445.162  32
  -1  -5  -4 9301.45 539.045  25
  -1  -5  -4 10311.8 524.000  24
  -1  -5  -4 9760.22 553.763  21
  -1  -5  -5 13802.8 652.712  12
  -1  -5  -5 12256.1 609.030  17
  -1  -5  -5 13002.9 598.449  11
  -1  -5  -5 12155.1 667.010  24
  -1  -5  -5 12300.4 701.958  25
  -1  -5  -6 6277.22 382.814  17
  -1  -5  -6 7399.35 386.472  13
  -1  -5  -6 7006.87 388.509  11
  -1  -5  -6 7808.87 441.089  12
  -1  -5  -6 6472.12 454.536  24
  -1  -5  -7 600.452 170.365  12
  -1  -5  -7 724.823 137.632  13
  -1  -5  -7 509.074 186.950  24
  -1  -5  -8 2698.84 212.248  13
  -1  -5  -8 3049.35 263.930  12
  -1  -5  -8 2380.03 292.731  24
  -1  -5  -9 2187.28 223.805  12
  -1  -5  -9 1954.82 248.889  24
  -1  -5  -9 2704.00 289.679  26
  -1  -5 -10 14213.8 664.782  12
  -1  -5 -10 15935.3 736.291  26
  -1  -5 -11 3211.71 203.390  12
  -1  -5 -11 4178.42 273.018  26
  -1  -6  13 5554.55 288.298   5
   1   6 -12 10837.8 509.360  37
  -1  -6  11 8498.72 448.308   4
   1   6 -11 10069.4 464.389  37
  -1  -6  10 399.430 173.104   9
   1   6 -10 183.284 125.370  37
  -1  -6  10 47.1056 173.629  25
  -1  -6   9 281.028 173.366   9
  -1  -6   9 198.471 164.776   8
  -1  -6   9 121.554 261.701  30
  -1  -6   8 4436.27 312.021   9
  -1  -6   8 4402.58 351.241   8
  -1  -6   8 3802.02 587.678  30
  -1  -6   8 4388.54 364.081  21
  -1  -6   7 8554.73 450.737   9
  -1  -6   7 7919.02 495.947   8
  -1  -6   7 8428.84 835.918  30
  -1  -6   7 7783.10 522.711  21
  -1  -6   6 32633.4 1417.31   9
  -1  -6   6 32217.5 1484.66   8
  -1  -6   6 30800.4 1887.35  30
  -1  -6   6 36169.0 1410.95  32
  -1  -6   6 30769.9 1510.13  21
  -1  -6   5 4303.09 317.088  15
  -1  -6   5 4091.33 320.984   8
  -1  -6   5 4382.70 260.595  32
  -1  -6   5 4636.74 465.535  33
  -1  -6   5 3816.23 334.695  21
  -1  -6   4 26270.3 1142.35  15
  -1  -6   4 23723.5 1113.73   8
  -1  -6   4 24745.3 1066.57  32
  -1  -6   4 25914.0 1345.13  33
  -1  -6   4 24128.5 1089.87  22
  -1  -6   4 25837.0 1215.67  25
  -1  -6   4 24099.7 1154.80  21
  -1  -6   3 14251.6 978.981  30
  -1  -6   3 14048.3 658.175  32
  -1  -6   3 14960.7 916.445  33
  -1  -6   2 24016.5 1275.89  33
  -1  -6   2 22636.9 994.363  32
  -1  -6   2 22407.1 1313.93  30
  -1  -6   1 394.829 110.277  32
  -1  -6   1 502.292 247.634  33
  -1  -6   1 173.313 198.373  30
  -1  -6   0 548.765 123.499  32
  -1  -6   0 438.873 257.036  33
  -1  -6  -1 31022.2 1411.93  16
  -1  -6  -1 34404.6 1675.36  33
  -1  -6  -1 33402.1 1367.10  32
  -1  -6  -1 31281.7 1423.61  21
  -1  -6  -1 31579.6 1442.03  25
  -1  -6  -2 20795.4 958.383  15
  -1  -6  -2 20734.6 962.875  16
  -1  -6  -2 20155.0 915.811  12
  -1  -6  -2 22335.0 914.530  32
  -1  -6  -2 18640.2 870.370  27
  -1  -6  -2 20302.3 934.644  26
  -1  -6  -2 20886.1 980.719  21
  -1  -6  -2 21132.1 995.477  25
  -1  -6  -3 31238.8 1396.38  11
  -1  -6  -3 34322.8 1456.52  12
  -1  -6  -3 36189.2 1491.43  16
  -1  -6  -3 35773.7 1428.67  32
  -1  -6  -3 40764.5 1792.40  33
  -1  -6  -3 30701.1 1398.41  27
  -1  -6  -3 34903.0 1524.01  25
  -1  -6  -3 35301.2 1510.69  21
  -1  -6  -3 35453.0 1477.01  24
  -1  -6  -3 34219.6 1479.75  26
  -1  -6  -4 36313.9 1486.03  12
  -1  -6  -4 33012.7 1445.49  17
  -1  -6  -4 32970.3 1417.13  11
  -1  -6  -4 33284.6 1487.16  16
  -1  -6  -4 36512.0 1740.33  33
  -1  -6  -4 34042.5 1533.92  25
  -1  -6  -4 34956.7 1501.44  24
  -1  -6  -4 34052.7 1537.65  21
  -1  -6  -4 33042.3 1500.86  26
  -1  -6  -5 24055.5 1031.31  11
  -1  -6  -5 22731.5 1041.32  17
  -1  -6  -5 25217.1 1048.97  13
  -1  -6  -5 23167.2 1107.76  24
  -1  -6  -5 22000.7 1161.42  25
  -1  -6  -5 23649.5 1121.43  26
  -1  -6  -6 203.286 128.866  17
  -1  -6  -6 57.4436 120.845  13
  -1  -6  -6-69.9198 141.792  12
  -1  -6  -6-121.324 174.544  26
  -1  -6  -6 63.8157 144.444  24
  -1  -6  -7 7017.39 422.631  12
  -1  -6  -7 6831.73 371.317  13
  -1  -6  -7 6507.56 457.121  26
  -1  -6  -8 3211.36 239.193  13
  -1  -6  -8 3936.56 290.994  12
  -1  -6  -8 3234.70 295.199  24
  -1  -6  -9 16171.5 701.459  12
  -1  -6  -9 12562.8 691.663  24
  -1  -6 -10 16982.1 775.782  12
  -1  -6 -10 18426.7 826.394  26
  -1  -6 -11 2286.47 175.962  26
  -1  -7  12 6293.95 316.838   5
  -1  -7  11 3256.49 252.966  18
  -1  -7  11 2707.16 208.230   5
   1   7 -11 2647.98 195.905  37
  -1  -7  10 5165.50 324.105   5
   1   7 -10 5514.11 305.957  37
  -1  -7  10 5345.28 399.390  25
  -1  -7   9 30.0760 129.106   5
  -1  -7   9 68.9142 177.264  25
  -1  -7   9 119.839 144.182  21
  -1  -7   8 138.613 129.887   5
  -1  -7   8 98.8488 276.569  30
  -1  -7   8 473.440 179.197  21
  -1  -7   8 189.651 205.576  25
  -1  -7   7 1937.76 208.276   5
  -1  -7   7 2124.36 465.478  30
  -1  -7   7 2004.40 321.219  25
  -1  -7   7 2323.32 278.124  21
  -1  -7   6 33045.5 1501.44   5
  -1  -7   6 43391.4 1905.75  33
  -1  -7   6 41114.3 1716.51  25
  -1  -7   6 34744.5 1626.17  21
  -1  -7   5 37272.7 1824.99  33
  -1  -7   5 33978.7 1448.08  32
  -1  -7   5 35225.1 1622.79  25
  -1  -7   5 32669.3 1565.21  21
  -1  -7   4 57487.5 2310.78  15
  -1  -7   4 53003.7 2311.85  18
  -1  -7   4 52896.8 2210.50  32
  -1  -7   4 52402.1 2724.97  30
  -1  -7   4 56010.2 2593.08  33
  -1  -7   4 52440.2 2322.03  21
  -1  -7   4 52432.8 2362.20  25
  -1  -7   4 53262.3 2245.32  22
  -1  -7   3 863.034 196.407  15
  -1  -7   3 740.471 289.200  33
  -1  -7   3 947.587 334.756  30
  -1  -7   3 711.292 134.548  32
  -1  -7   3 501.036 192.780  21
  -1  -7   3 544.052 230.234  25
  -1  -7   2 422.344 165.206  18
  -1  -7   2 431.381 145.967  19
  -1  -7   2 513.344 178.247  15
  -1  -7   2 594.059 271.401  33
  -1  -7   2 464.235 127.460  32
  -1  -7   2 504.674 257.555  30
  -1  -7   2 329.178 125.928  22
  -1  -7   2 451.853 172.641  21
  -1  -7   1 732.422 177.226  18
  -1  -7   1 774.185 157.428  19
  -1  -7   1 792.935 216.891  25
  -1  -7   1 654.085 193.521  21
  -1  -7   1 722.445 146.937  22
  -1  -7   0 6760.33 425.982  18
  -1  -7   0 6804.23 441.357  15
  -1  -7   0 7245.82 441.680  16
  -1  -7   0 6316.68 385.831  19
  -1  -7   0 6097.13 344.400  12
  -1  -7   0 6114.39 623.744  33
  -1  -7   0 6355.49 371.954  32
  -1  -7   0 6227.07 459.996  25
  -1  -7   0 6442.67 374.376  23
  -1  -7   0 6532.98 378.641  22
  -1  -7  -1 9907.21 552.786  15
  -1  -7  -1 10446.9 563.956  16
  -1  -7  -1 9208.49 476.754  12
  -1  -7  -1 10858.9 814.677  33
  -1  -7  -1 10441.5 497.355  32
  -1  -7  -1 7880.42 431.871  27
  -1  -7  -1 10001.6 585.952  25
  -1  -7  -1 10207.9 572.247  21
  -1  -7  -1 9551.21 489.408  23
  -1  -7  -1 8812.49 479.417  22
  -1  -7  -1 9449.64 500.378  26
  -1  -7  -2 16122.1 806.185  16
  -1  -7  -2 14280.0 685.183  11
  -1  -7  -2 15868.7 744.409  12
  -1  -7  -2 14396.1 690.944  27
  -1  -7  -2 18479.0 1104.25  33
  -1  -7  -2 17141.6 745.718  32
  -1  -7  -2 16299.0 761.910  24
  -1  -7  -2 16631.9 773.222  26
  -1  -7  -2 17513.0 854.065  25
  -1  -7  -2 15579.2 728.397  22
  -1  -7  -2 17304.9 833.859  21
  -1  -7  -3 7560.75 398.890  11
  -1  -7  -3 8060.57 453.868  12
  -1  -7  -3 7584.95 447.333  17
  -1  -7  -3 8323.34 493.483  16
  -1  -7  -3 9952.18 739.180  33
  -1  -7  -3 8415.67 484.204  26
  -1  -7  -3 8097.42 511.639  21
  -1  -7  -3 7763.96 527.851  25
  -1  -7  -3 8120.69 464.776  24
  -1  -7  -4 44942.9 1969.42  17
  -1  -7  -4 49542.9 1978.26  13
  -1  -7  -4 48670.5 2011.24  12
  -1  -7  -4 45298.9 1938.67  11
  -1  -7  -4 48396.5 2090.48  25
  -1  -7  -4 47222.3 2096.65  21
  -1  -7  -4 46084.6 2012.46  24
  -1  -7  -4 50517.0 2045.56  26
  -1  -7  -5 48.2132 144.941  12
  -1  -7  -5 132.163 129.824  13
  -1  -7  -5 69.3014 158.221  17
  -1  -7  -5 142.637 140.683  24
  -1  -7  -5 86.8388 494.489  25
  -1  -7  -5-65.4666 176.819  26
  -1  -7  -6 1656.98 186.269  13
  -1  -7  -6 1420.87 233.764  26
  -1  -7  -6 1091.57 192.711  24
  -1  -7  -7 13215.5 635.087  12
  -1  -7  -7 12834.7 585.882  13
  -1  -7  -7 12735.9 663.649  26
  -1  -7  -8 5394.83 333.431  12
  -1  -7  -8 4575.53 289.761  13
  -1  -7  -8 5387.81 366.436  26
  -1  -7  -9 6380.52 351.024  12
  -1  -7  -9 6241.19 376.494  26
  -1  -7 -10 2459.39 161.297  12
  -1  -8  12 1532.14 135.734  19
  -1  -8  11 2525.95 207.082  18
  -1  -8  10 4877.87 327.453  18
   1   8 -10 3724.42 231.154  37
  -1  -8   9 922.898 197.601  18
   1   8  -9 700.537 120.084  37
  -1  -8   9 577.661 178.457  25
  -1  -8   9 776.182 162.397  21
  -1  -8   8 131.613 99.2449   5
  -1  -8   8 46.4876 166.458  18
  -1  -8   8 50.0844 150.315  21
  -1  -8   8-9.63035 180.685  25
  -1  -8   7 2532.76 321.276  18
  -1  -8   7 3477.71 285.751  16
  -1  -8   7 2651.50 521.190  30
  -1  -8   7 3236.65 328.445  21
  -1  -8   7 3214.33 349.793  25
  -1  -8   6 21814.4 1086.90  18
  -1  -8   6 22800.7 1051.24  16
  -1  -8   6 21556.8 1293.61  33
  -1  -8   6 22280.8 1115.71  25
  -1  -8   6 18656.8 1056.15  21
  -1  -8   5 41970.9 1849.13  18
  -1  -8   5 39517.3 1813.44  16
  -1  -8   5 41691.3 2126.69  33
  -1  -8   5 37533.8 2288.38  30
  -1  -8   5 41070.9 1878.63  25
  -1  -8   5 41588.3 1853.46  21
  -1  -8   4 1714.81 238.714  19
  -1  -8   4 2370.45 500.279  30
  -1  -8   4 2052.98 407.168  33
  -1  -8   4 1949.13 196.364  32
  -1  -8   4 1611.29 281.495  21
  -1  -8   4 1978.18 301.867  25
  -1  -8   3 4488.50 375.985  15
  -1  -8   3 3768.46 328.463  19
  -1  -8   3 3663.60 355.481  16
  -1  -8   3 5031.69 566.026  33
  -1  -8   3 4610.41 602.157  30
  -1  -8   3 3623.95 282.978  32
  -1  -8   3 4701.93 399.420  21
  -1  -8   3 3978.11 398.467  25
  -1  -8   2 1015.47 218.946  18
  -1  -8   2 845.319 218.427  15
  -1  -8   2 1035.17 190.999  19
  -1  -8   2 1017.03 231.042  16
  -1  -8   2 625.426 316.075  33
  -1  -8   2 923.502 167.982  32
  -1  -8   2 994.233 182.109  22
  -1  -8   2 940.031 234.381  21
  -1  -8   1 2455.88 282.264  18
  -1  -8   1 2626.70 251.317  19
  -1  -8   1 2455.07 308.616  21
  -1  -8   1 2640.01 242.379  22
  -1  -8   1 2765.71 329.727  25
  -1  -8   0 15463.5 767.970  19
  -1  -8   0 17492.4 853.622  15
  -1  -8   0 15782.7 842.006  16
  -1  -8   0 15935.5 759.995  32
  -1  -8   0 16796.5 1136.51  33
  -1  -8   0 14708.1 754.087  22
  -1  -8   0 16536.7 881.683  25
  -1  -8  -1 36860.7 1629.36  12
  -1  -8  -1 37460.6 1654.07  14
  -1  -8  -1 40758.7 1739.71  16
  -1  -8  -1 43485.1 2126.41  33
  -1  -8  -1 40121.0 1650.71  32
  -1  -8  -1 41472.8 1757.14  21
  -1  -8  -1 35328.4 1629.64  22
  -1  -8  -1 41485.5 1775.88  25
  -1  -8  -2 5386.05 409.511  16
  -1  -8  -2 5311.62 346.104  12
  -1  -8  -2 6034.81 639.271  33
  -1  -8  -2 5300.21 328.278  22
  -1  -8  -2 5683.83 430.503  21
  -1  -8  -2 6337.77 464.053  25
  -1  -8  -3 504.381 146.112  12
  -1  -8  -3 510.757 198.852  16
  -1  -8  -3 499.484 168.636  17
  -1  -8  -3 290.656 255.322  33
  -1  -8  -3 476.893 137.373  24
  -1  -8  -3 579.419 168.519  26
  -1  -8  -3 509.517 242.479  21
  -1  -8  -3 534.313 231.220  25
  -1  -8  -4 1570.36 197.143  12
  -1  -8  -4 1343.49 199.774  17
  -1  -8  -4 1455.57 187.604  13
  -1  -8  -4 1251.88 173.724  24
  -1  -8  -4 1506.11 214.141  26
  -1  -8  -4 1518.50 321.446  25
  -1  -8  -5 2153.11 227.651  12
  -1  -8  -5 2129.17 210.341  13
  -1  -8  -5 2041.46 241.026  26
  -1  -8  -6 413.830 134.753  13
  -1  -8  -6 456.060 166.566  26
  -1  -8  -7 6106.17 347.161  13
  -1  -8  -7 6598.39 395.542  26
  -1  -8  -8 4917.21 296.194  12
  -1  -8  -9 646.375 98.8182  14
  -1  -8  -9 1054.78 104.158  12
  -1  -9  11 1376.32 134.405  19
  -1  -9  10 64.8922 105.795  18
  -1  -9  10 103.960 110.506  19
  -1  -9   9 624.253 160.582  18
   1   9  -9 358.888 89.2804  37
  -1  -9   9 560.827 126.625  21
  -1  -9   8 3314.23 310.833  18
  -1  -9   8 3010.20 288.620  25
  -1  -9   8 3871.08 299.938  21
  -1  -9   7 51.7041 123.795  16
  -1  -9   7 166.159 157.179  19
  -1  -9   7-44.8351 177.706  18
  -1  -9   7 275.599 178.661  25
  -1  -9   7-59.6588 172.449  21
  -1  -9   6 16591.6 849.830  19
  -1  -9   6 18502.4 857.220  16
  -1  -9   6 18060.5 895.952  18
  -1  -9   6 14793.0 856.367  21
  -1  -9   6 15152.5 874.057  25
  -1  -9   5 270.333 166.754  19
  -1  -9   5 339.497 206.529  18
  -1  -9   5 385.816 173.299  16
  -1  -9   5 321.969 211.978  21
  -1  -9   5 426.868 210.895  25
  -1  -9   4 6378.07 438.541  19
  -1  -9   4 5592.24 453.184  16
  -1  -9   4 6587.64 666.775  33
  -1  -9   4 6746.61 501.153  21
  -1  -9   4 6540.45 502.705  25
  -1  -9   3 626.664 228.296  16
  -1  -9   3 840.060 194.873  19
  -1  -9   3 1029.97 244.040  18
  -1  -9   3 678.155 319.226  33
  -1  -9   3 881.414 254.431  25
  -1  -9   3 1039.12 262.927  21
  -1  -9   2 4847.55 293.037  13
  -1  -9   2 5509.94 376.190  19
  -1  -9   2 5833.72 444.063  16
  -1  -9   2 5728.48 427.598  18
  -1  -9   2 5239.97 624.552  33
  -1  -9   2 5930.56 455.217  21
  -1  -9   1 643.848 160.593  19
  -1  -9   1 620.478 127.875  13
  -1  -9   1 787.560 164.837  22
  -1  -9   0 1753.05 178.354  13
  -1  -9   0 1814.32 266.637  16
  -1  -9   0 1331.24 387.329  33
  -1  -9   0 1648.17 282.358  25
  -1  -9   0 1608.13 195.047  22
  -1  -9  -1 31606.4 1408.16  12
  -1  -9  -1 33096.8 1407.31  13
  -1  -9  -1 35153.8 1525.03  16
  -1  -9  -1 32959.0 1860.65  33
  -1  -9  -1 34862.0 1535.52  21
  -1  -9  -1 35944.4 1560.20  25
  -1  -9  -1 31291.4 1413.30  22
  -1  -9  -2 41398.5 1914.27  14
  -1  -9  -2 46650.1 1907.21  13
  -1  -9  -2 45154.7 1914.32  12
  -1  -9  -2 48109.5 1998.02  16
  -1  -9  -2 44457.3 1920.12  17
  -1  -9  -2 47909.7 2016.34  21
  -1  -9  -2 50489.6 2053.49  25
  -1  -9  -3 2658.49 228.846  12
  -1  -9  -3 2457.96 230.060  14
  -1  -9  -3 2505.77 229.628  17
  -1  -9  -3 2523.00 320.691  25
  -1  -9  -3 2780.23 547.230  21
  -1  -9  -4 1766.52 206.854  14
  -1  -9  -4 2601.55 216.924  13
  -1  -9  -4 2363.07 216.136  12
  -1  -9  -4 2578.45 566.340  25
  -1  -9  -5 358.820 133.209  13
  -1  -9  -5 308.076 125.785  14
  -1  -9  -5 383.110 130.439  12
  -1  -9  -6 487.273 124.980  12
  -1  -9  -6 351.185 111.964  14
  -1  -9  -6 505.596 122.725  13
  -1  -9  -7 3104.23 225.322  14
  -1  -9  -7 4732.06 252.806  12
  -1 -10  10 157.558 63.4445  18
  -1 -10   9 218.364 110.927  18
  -1 -10   9 172.793 99.8502  19
  -1 -10   8 465.330 128.823  19
  -1 -10   8 668.099 150.766  18
  -1 -10   8 372.238 117.898  21
  -1 -10   7 8135.73 479.062  18
  -1 -10   7 7544.48 420.999  16
  -1 -10   7 7790.86 450.586  19
  -1 -10   7 8846.80 480.659  21
  -1 -10   7 7667.69 459.530  25
  -1 -10   6 4936.39 338.247  19
  -1 -10   6 4973.24 339.818  16
  -1 -10   6 4353.27 354.285  25
  -1 -10   6 4403.80 362.734  21
  -1 -10   5 11062.7 585.938  19
  -1 -10   5 10603.7 607.156  16
  -1 -10   5 11310.7 639.044  21
  -1 -10   5 10627.3 623.607  25
  -1 -10   4 5415.55 408.557  18
  -1 -10   4 4742.19 387.659  16
  -1 -10   4 5148.03 351.927  19
  -1 -10   4 5191.23 413.387  25
  -1 -10   4 5219.84 412.675  21
  -1 -10   3 110.196 170.584  16
  -1 -10   3 160.300 132.583  19
  -1 -10   3 203.988 178.211  18
  -1 -10   3 115.770 187.656  21
  -1 -10   3 322.798 189.142  25
  -1 -10   2 617.821 196.495  16
  -1 -10   2 676.417 219.133  21
  -1 -10   1 1497.94 145.265  13
  -1 -10   0 1361.87 228.523  16
  -1 -10   0 1093.71 142.881  13
  -1 -10   0 1333.00 242.831  21
  -1 -10   0 1211.23 239.795  25
  -1 -10  -1 22248.0 975.871  13
  -1 -10  -1 21379.7 996.603  17
  -1 -10  -1 22131.1 1073.16  16
  -1 -10  -1 23917.3 1100.09  25
  -1 -10  -1 23621.0 1088.34  21
  -1 -10  -2 25037.2 1091.26  13
  -1 -10  -2 25287.3 1234.30  21
  -1 -10  -2 26074.2 1202.84  25
  -1 -10  -3 5801.00 331.171  13
  -1 -10  -3 5930.88 585.501  25
  -1 -10  -4 856.740 127.006  12
  -1 -10  -5-106.771 91.6267  12
  -1 -10  -5 77.2358 94.5605  13
  -1 -10  -6 1300.37 109.140  12
  -1 -11   8 2994.96 179.894  19
  -1 -11   7 9626.61 473.830  19
  -1 -11   7 10844.5 495.179  21
  -1 -11   6 9286.36 466.026  19
  -1 -11   6 9703.35 493.199  16
  -1 -11   6 10298.9 512.328  21
  -1 -11   6 9819.60 498.081  25
  -1 -11   5 6622.74 363.135  19
  -1 -11   5 7170.68 409.780  16
  -1 -11   5 7077.08 409.249  25
  -1 -11   5 7129.32 423.055  21
  -1 -11   4 3878.20 302.507  16
  -1 -11   4 4087.20 318.035  21
  -1 -11   4 4179.79 314.886  25
  -1 -11   3 235.060 150.854  16
  -1 -11   3 235.471 160.270  25
  -1 -11   3 364.597 158.323  21
  -1 -11   2 1546.14 218.853  16
  -1 -11   2 1734.87 229.201  21
  -1 -11   1 3916.73 268.278  17
  -1 -11   0 7407.00 400.377  17
  -1 -11   0 8563.82 482.030  25
  -1 -11   0 8640.87 500.074  21
  -1 -11  -1 2629.41 180.720  13
  -1 -11  -1 2880.70 488.468  21
  -1 -11  -1 2942.78 293.878  25
  -1 -11  -2 8563.94 404.532  13
  -1 -11  -2 8093.04 612.563  25
  -1 -11  -3 5770.37 291.715  13
  -1 -12   5 2328.97 170.935  21
  -1 -12   4 9408.79 408.555  21
  -1 -12   4 9725.42 395.646  25
  -1 -12   3 287.104 87.0674  17
  -1 -12   3 376.583 137.903  21
  -1 -12   3 500.424 109.696  25
  -1 -12   2 479.059 119.247  25
  -1 -12   1 1526.46 319.125  21
   2 -12   0 575.326 128.088  16
   2 -12   1 734.403 118.815  16
   2 -12   1 843.296 118.909  21
   2 -12   2 5437.55 298.773  21
   2 -12   3 4568.41 269.988  16
   2 -12   3 4250.96 262.830  21
   2 -12   4 2690.77 194.067  16
   2 -12   4 3085.13 202.975  21
   2 -11  -2 9621.06 452.018  22
   2 -11  -1 4292.65 297.270  16
   2 -11  -1 4439.31 266.139  22
   2 -11   0 9827.78 550.435  16
   2 -11   0 9834.50 536.266  21
   2 -11   0 10689.9 627.210  25
   2 -11   0 10631.5 509.179  22
   2 -11   1 11617.1 631.365  16
   2 -11   1 12091.0 623.324  21
   2 -11   1 11489.4 617.044  25
   2 -11   1 12106.9 577.238  22
   2 -11   2 4866.88 341.984  21
   2 -11   2 4229.37 307.247  25
   2 -11   3 7214.43 466.910  16
   2 -11   3 9068.73 496.722  21
   2 -11   4 1658.96 175.869  18
   2 -11   4 1940.93 212.217  16
   2 -11   5 26.1800 114.240  16
   2 -11   5 17.5497 102.906  18
   2 -11   6 919.550 131.480  18
   2 -11   6 989.644 130.750  16
   2 -11   6 1127.90 162.296  21
   2 -11   7 2877.86 200.055  18
   2 -11   7 3135.90 223.455  21
   2 -10  -6 5804.46 318.483  14
   2 -10  -5 3656.68 251.383  14
   2 -10  -5 3338.87 234.556  24
   2 -10  -4 3052.76 240.563  14
   2 -10  -4 2841.30 232.513  24
   2 -10  -3 4874.95 326.228  14
   2 -10  -3 4449.26 289.402  22
   2 -10  -3 4850.13 308.294  23
   2 -10  -3 5247.62 328.402  24
   2 -10  -2 3828.59 313.445  15
   2 -10  -2 3267.22 253.783  13
   2 -10  -2 3476.64 290.110  16
   2 -10  -2 3465.06 276.898  14
   2 -10  -2 3931.41 291.632  24
   2 -10  -2 3551.10 282.560  21
   2 -10  -2 3743.36 533.574  25
   2 -10  -2 3676.67 263.442  22
   2 -10  -1 3793.65 265.553  13
   2 -10  -1 4861.74 368.754  15
   2 -10  -1 4323.30 344.522  16
   2 -10  -1 4259.38 383.474  25
   2 -10  -1 4082.80 334.479  21
   2 -10  -1 4159.18 295.199  22
   2 -10   0 14955.7 785.379  15
   2 -10   0 14632.6 779.532  16
   2 -10   0 14828.3 773.414  21
   2 -10   0 14284.8 761.508  25
   2 -10   0 13857.3 706.580  22
   2 -10   1 9499.13 601.029  15
   2 -10   1 10368.3 588.301  25
   2 -10   1 10678.3 619.774  21
   2 -10   2 16413.8 857.614  15
   2 -10   2 15481.6 799.995  18
   2 -10   2 17614.5 799.048  22
   2 -10   2 16316.6 870.688  21
   2 -10   2 15920.7 815.361  25
   2 -10   3 7330.67 478.137  15
   2 -10   3 6526.36 439.625  18
   2 -10   3 6506.36 420.121  25
   2 -10   3 7428.88 420.221  22
   2 -10   3 7261.76 500.081  21
   2 -10   4 834.829 193.113  15
   2 -10   4 947.256 189.653  18
   2 -10   5 286.107 153.840  18
   2 -10   5 335.229 189.826  21
   2 -10   6 15017.9 766.780  18
   2 -10   6 15444.5 799.082  21
   2 -10   7 13560.7 657.179  16
   2 -10   7 13891.9 699.672  18
   2 -10   7 14515.7 725.888  21
   2 -10   8 73.1726 108.328  18
   2 -10   8 97.0960 114.539  21
   2 -10   9 28.0552 79.4887  21
   2  -9  -8 564.404 92.2323  24
   2  -9  -7 8777.76 463.296  14
   2  -9  -7 8270.50 438.296  24
   2  -9  -6 13518.0 680.555  14
   2  -9  -6 13301.8 662.148  24
   2  -9  -5 7245.45 422.184  12
   2  -9  -5 7182.44 440.250  14
   2  -9  -5 6867.18 424.300  24
   2  -9  -5 6521.94 396.811  23
   2  -9  -4 5023.25 345.455  13
   2  -9  -4 5341.16 381.016  14
   2  -9  -4 5022.38 351.560  12
   2  -9  -4 5597.33 376.156  24
   2  -9  -4 5058.77 344.295  23
   2  -9  -4 5001.25 320.097  22
   2  -9  -3 987.761 184.043  16
   2  -9  -3 1071.38 184.786  12
   2  -9  -3 1160.95 198.450  14
   2  -9  -3 994.906 176.670  13
   2  -9  -3 1066.56 201.537  15
   2  -9  -3 1242.27 191.848  21
   2  -9  -3 1469.85 209.298  24
   2  -9  -3 1364.41 498.351  25
   2  -9  -3 919.047 167.775  22
   2  -9  -3 1272.96 187.865  23
   2  -9  -2 31.6963 138.119  14
   2  -9  -2 111.802 154.846  16
   2  -9  -2-5.07909 127.847  13
   2  -9  -2 9.19789 163.703  15
   2  -9  -2 61.7153 124.026  12
   2  -9  -2-7.82336 148.692  24
   2  -9  -2 32.4657 138.331  22
   2  -9  -2 57.2345 158.164  21
   2  -9  -2 143.542 147.177  23
   2  -9  -2 108.795 216.214  25
   2  -9  -1 22707.1 1087.58  15
   2  -9  -1 21956.3 1025.83  14
   2  -9  -1 20101.1 953.991  13
   2  -9  -1 21247.3 1056.39  21
   2  -9  -1 21782.7 1028.23  24
   2  -9  -1 21037.9 1067.95  25
   2  -9  -1 22772.9 1021.75  23
   2  -9  -1 21157.7 1000.84  22
   2  -9   0 16291.9 772.797  13
   2  -9   0 15684.0 822.075  18
   2  -9   0 16645.8 840.664  14
   2  -9   0 18847.7 860.256  23
   2  -9   0 17232.7 909.915  21
   2  -9   0 18342.1 904.723  25
   2  -9   0 17749.4 861.054  24
   2  -9   0 17325.8 837.609  22
   2  -9   1 28578.1 1352.87  15
   2  -9   1 28414.0 1293.27  18
   2  -9   1 26423.8 1194.26  13
   2  -9   1 31979.8 1384.37  21
   2  -9   1 29668.2 1328.13  25
   2  -9   2 2996.32 318.505  15
   2  -9   2 2471.11 280.613  18
   2  -9   2 3055.86 347.447  21
   2  -9   2 2521.15 286.644  25
   2  -9   2 2755.08 263.289  22
   2  -9   3 6149.30 440.767  18
   2  -9   3 6783.29 463.117  15
   2  -9   3 4756.78 634.287  30
   2  -9   3 6060.24 467.846  20
   2  -9   3 6230.04 490.853  21
   2  -9   3 5831.35 413.124  25
   2  -9   3 6143.78 398.842  22
   2  -9   4 1664.75 241.433  15
   2  -9   4 1447.19 262.135  20
   2  -9   4 1374.68 189.010  19
   2  -9   4 1458.34 243.277  18
   2  -9   4 1691.02 209.757  22
   2  -9   4 1575.89 212.812  25
   2  -9   5 17594.8 854.481  15
   2  -9   5 17390.4 884.228  18
   2  -9   5 18591.5 887.718  20
   2  -9   5 18483.3 927.993  21
   2  -9   6 3016.13 307.185  18
   2  -9   6 2566.21 252.605  15
   2  -9   6 3138.72 339.402  21
   2  -9   7 14453.4 786.838  21
   2  -9   8 7060.82 460.424  21
   2  -9   9 19352.3 908.715  18
   2  -9   9 19171.8 901.896  21
   2  -9  10 1962.70 180.485  18
   2  -9  10 1692.49 156.952  21
   2  -8  -9 164.507 102.011  14
   2  -8  -9 238.118 101.258  24
   2  -8  -8 3210.79 268.161  14
   2  -8  -8 3105.92 252.083  12
   2  -8  -8 3129.47 254.381  24
   2  -8  -7 16006.7 730.364  12
   2  -8  -7 15398.8 744.121  24
   2  -8  -6 14219.2 718.258  13
   2  -8  -6 14424.8 723.254  23
   2  -8  -6 15628.2 775.830  24
   2  -8  -5 9819.00 534.496  12
   2  -8  -5 9212.89 506.590  13
   2  -8  -5 8179.92 475.776  22
   2  -8  -5 8899.72 518.362  23
   2  -8  -5 9875.42 559.695  24
   2  -8  -4 344.865 155.208  15
   2  -8  -4 477.330 164.010  12
   2  -8  -4 289.638 178.805  24
   2  -8  -4 533.105 170.500  23
   2  -8  -4 384.717 148.568  22
   2  -8  -3 4555.83 370.334  15
   2  -8  -3 4422.89 312.166  13
   2  -8  -3 4359.84 360.781  14
   2  -8  -3 4561.40 335.228  12
   2  -8  -3 4177.60 341.346  16
   2  -8  -3 4381.96 331.571  22
   2  -8  -3 5299.18 362.980  23
   2  -8  -3 4421.28 433.097  25
   2  -8  -3 4680.04 366.364  24
   2  -8  -3 4904.82 352.192  21
   2  -8  -2 5047.95 328.059  13
   2  -8  -2 5967.31 428.696  15
   2  -8  -2 5623.51 393.784  14
   2  -8  -2 5275.81 354.868  12
   2  -8  -2 5482.44 390.649  24
   2  -8  -2 4749.35 361.361  22
   2  -8  -2 5164.61 390.091  21
   2  -8  -2 5120.71 427.390  25
   2  -8  -2 5879.76 388.362  23
   2  -8  -1 1431.28 171.447  13
   2  -8  -1 1599.80 215.754  14
   2  -8  -1 1534.98 247.298  15
   2  -8  -1 1481.50 186.020  12
   2  -8  -1 1710.15 217.104  22
   2  -8  -1 1452.03 252.054  25
   2  -8  -1 1567.17 218.881  23
   2  -8  -1 1505.27 235.148  21
   2  -8  -1 1720.86 227.375  24
   2  -8   0 3140.47 271.080  14
   2  -8   0 2522.85 228.000  12
   2  -8   0 2556.62 210.835  13
   2  -8   0 2484.94 253.772  18
   2  -8   0 2903.93 314.011  21
   2  -8   0 3037.31 280.101  23
   2  -8   0 3019.01 310.533  25
   2  -8   0 3112.30 321.979  20
   2  -8   0 2965.12 280.401  24
   2  -8   1 9418.95 618.179  15
   2  -8   1 10800.4 588.362  14
   2  -8   1 10293.2 506.081  13
   2  -8   1 10588.3 604.834  18
   2  -8   1 8869.42 801.995  30
   2  -8   1 11437.3 607.887  24
   2  -8   1 10987.9 654.712  21
   2  -8   1 11155.4 624.952  25
   2  -8   1 11269.3 585.298  22
   2  -8   2 25577.2 1254.66  15
   2  -8   2 25021.6 1225.73  18
   2  -8   2 27677.9 1195.37  22
   2  -8   2 27592.6 1287.32  21
   2  -8   2 27362.4 1265.45  20
   2  -8   2 25833.0 1226.17  25
   2  -8   3 29834.5 1374.83  15
   2  -8   3 31401.3 1314.25  22
   2  -8   3 27735.1 1371.17  20
   2  -8   3 29191.6 1342.53  25
   2  -8   4 14861.0 776.571  15
   2  -8   4 15409.7 763.880   8
   2  -8   4 12565.8 732.288   6
   2  -8   4 11886.4 1087.45  30
   2  -8   4 13162.0 723.842  25
   2  -8   4 15861.8 726.613  22
   2  -8   4 13532.4 774.547  20
   2  -8   5 135.297 160.335  15
   2  -8   5 126.994 196.009  20
   2  -8   5-81.9571 188.997   8
   2  -8   5 90.9266 197.319   6
   2  -8   5 98.5594 279.247  30
   2  -8   5 142.019 144.139  22
   2  -8   5 144.314 213.157  21
   2  -8   6 3087.91 279.429  15
   2  -8   6 3763.84 324.498   6
   2  -8   6 3219.22 321.517  20
   2  -8   6 2898.29 344.983  21
   2  -8   7 8986.45 542.498   8
   2  -8   7 8952.30 525.763  20
   2  -8   7 8072.46 571.387  21
   2  -8   8 11754.8 644.830   8
   2  -8   8 11653.0 684.642  21
   2  -8   9 10389.1 570.444   8
   2  -8   9 10357.5 596.577  21
   2  -8  10 4210.67 307.270  21
   2  -8  11 1467.17 157.937  18
   2  -7 -10 1363.22 161.785  14
   2  -7 -10 1309.53 161.690  24
   2  -7  -9 13931.3 666.747  12
   2  -7  -9 13343.1 687.918  24
   2  -7  -8 1294.93 191.995  12
   2  -7  -8 925.414 160.192  23
   2  -7  -8 886.992 210.274  26
   2  -7  -8 779.012 196.460  24
   2  -7  -7 140.733 156.332  12
   2  -7  -7 523.506 164.426  13
   2  -7  -7 443.219 158.209  23
   2  -7  -7 289.065 195.234  26
   2  -7  -7 589.830 195.254  24
   2  -7  -6 6149.33 397.043  12
   2  -7  -6 6380.88 385.928  13
   2  -7  -6 5874.35 427.596  24
   2  -7  -6 5373.92 390.289  23
   2  -7  -5 15394.7 713.582  13
   2  -7  -5 14413.5 774.988  24
   2  -7  -5 13631.0 703.573  22
   2  -7  -5 13956.2 744.401  23
   2  -7  -4 20181.0 967.166  12
   2  -7  -4 19140.4 976.923  15
   2  -7  -4 20351.7 965.327  22
   2  -7  -4 21548.8 1023.38  24
   2  -7  -4 22104.8 1000.88  23
   2  -7  -4 21130.3 1012.06  26
   2  -7  -3 11965.7 677.446  15
   2  -7  -3 13080.3 617.890  13
   2  -7  -3 13465.5 650.011  12
   2  -7  -3 11539.0 646.370  22
   2  -7  -3 11599.1 653.390  21
   2  -7  -3 13426.1 676.130  23
   2  -7  -3 13566.4 693.284  24
   2  -7  -3 11864.9 715.818  25
   2  -7  -2 271.638 154.170  20
   2  -7  -2 80.6462 121.622  12
   2  -7  -2 155.564 119.254  13
   2  -7  -2 349.897 346.380  29
   2  -7  -2 237.097 144.845  23
   2  -7  -2 84.5507 158.086  24
   2  -7  -2 183.420 145.817  22
   2  -7  -2 230.952 185.038  25
   2  -7  -2 109.594 144.264  21
   2  -7  -1 24277.9 1106.01  14
   2  -7  -1 21985.2 1023.27  13
   2  -7  -1 22918.3 1058.39  12
   2  -7  -1 24492.9 1581.44  29
   2  -7  -1 24476.7 1127.39  20
   2  -7  -1 23403.7 1132.81  25
   2  -7  -1 25321.2 1107.61  23
   2  -7  -1 25223.5 1138.36  21
   2  -7  -1 24720.0 1110.70  24
   2  -7  -1 25036.4 1099.40  22
   2  -7   0 23542.8 1068.77  20
   2  -7   0 22764.1 1033.16  14
   2  -7   0 21107.2 1015.76  18
   2  -7   0 21077.0 979.440  12
   2  -7   0 20967.1 946.290  13
   2  -7   0 22417.0 1007.40   6
   2  -7   0 19224.9 1211.62  30
   2  -7   0 22133.0 1071.46  21
   2  -7   0 24119.7 1037.03  23
   2  -7   0 23355.0 1064.19  25
   2  -7   0 23152.3 1037.01  24
   2  -7   1 48658.1 2130.07  18
   2  -7   1 50123.4 2119.82  14
   2  -7   1 47973.5 2032.24  13
   2  -7   1 51183.3 2107.52   6
   2  -7   1 47223.7 2415.21  30
   2  -7   1 52772.1 2114.54  22
   2  -7   1 52198.3 2184.64  21
   2  -7   1 49832.2 2149.01  25
   2  -7   1 52518.3 2134.09  24
   2  -7   2 37284.2 1637.04  20
   2  -7   2 37295.2 1586.89   6
   2  -7   2 36325.3 1589.21   8
   2  -7   2 36022.0 2086.57  29
   2  -7   2 33786.6 1929.15  30
   2  -7   2 37712.9 1582.21  22
   2  -7   2 35211.3 1611.93  25
   2  -7   2 35788.4 1585.57  23
   2  -7   2 36600.2 1660.29  21
   2  -7   2 37450.9 1606.11  24
   2  -7   3 33847.0 1594.55  20
   2  -7   3 36724.0 1568.35   8
   2  -7   3 34111.6 1960.94  30
   2  -7   3 37935.1 2093.48  29
   2  -7   3 33913.9 1572.76  25
   2  -7   3 37603.9 1545.75  22
   2  -7   4 1804.72 249.445  15
   2  -7   4 1918.70 267.691  20
   2  -7   4 2018.49 249.720   8
   2  -7   4 1947.84 246.707   6
   2  -7   4 1729.27 433.943  30
   2  -7   4 2082.58 218.325  22
   2  -7   4 1731.59 222.955  25
   2  -7   5 1644.70 216.964  15
   2  -7   5 1660.93 251.175  20
   2  -7   5 1627.38 235.362   6
   2  -7   5 1581.88 425.886  30
   2  -7   5 1440.78 193.647  22
   2  -7   6 5718.62 405.020   6
   2  -7   6 5948.78 423.691  20
   2  -7   7 10819.4 605.672   6
   2  -7   7 11030.9 630.608   8
   2  -7   7 11156.8 614.856  20
   2  -7   8 12425.9 681.412   8
   2  -7   9 4977.95 362.875   8
   2  -7   9 4419.00 381.688  21
   2  -7  10 806.818 172.398   8
   2  -7  10 454.909 159.723  21
   2  -7  11 1321.22 160.845   8
   2  -7  11 762.378 135.904  21
   2  -7  12 154.539 78.9707  18
   2  -6 -11 1219.93 159.088  24
   2  -6 -10 139.306 109.517  12
   2  -6 -10 13.3215 146.253  24
   2  -6 -10 235.071 154.202  26
   2  -6  -9 282.498 141.739  12
   2  -6  -9 284.585 185.311  24
   2  -6  -9 221.660 179.802  26
   2  -6  -9 175.430 127.906  23
   2  -6  -8 8656.31 486.648  12
   2  -6  -8 8037.45 538.776  24
   2  -6  -8 7182.44 479.488  23
   2  -6  -8 8442.03 525.549  26
   2  -6  -7 33723.9 1433.25  13
   2  -6  -7 32630.0 1461.60  12
   2  -6  -7 32543.1 1524.35  24
   2  -6  -7 33296.2 1503.32  26
   2  -6  -7 31795.1 1483.23  23
   2  -6  -6 83215.9 3245.79  13
   2  -6  -6 79357.0 3270.22  12
   2  -6  -6 79110.6 3299.20  23
   2  -6  -6 79686.3 3337.27  24
   2  -6  -6 77223.9 3236.99  22
   2  -6  -6 77033.6 3303.37  26
   2  -6  -5 5592.86 340.754  13
   2  -6  -5 5159.48 354.987  12
   2  -6  -5 5555.41 408.299  24
   2  -6  -5 5530.74 385.292  23
   2  -6  -5 4845.13 349.921  22
   2  -6  -4 10355.7 593.208  15
   2  -6  -4 12080.1 566.883  13
   2  -6  -4 11246.0 637.630  24
   2  -6  -4 11489.8 597.610  22
   2  -6  -4 12117.2 629.469  23
   2  -6  -3 2956.79 237.392  12
   2  -6  -3 3391.75 508.974  29
   2  -6  -3 3120.43 281.597  24
   2  -6  -3 3106.09 253.502  22
   2  -6  -3 3070.88 266.711  23
   2  -6  -3 3318.35 305.891  25
   2  -6  -3 3108.88 272.900  26
   2  -6  -3 3044.62 253.191  20
   2  -6  -2 8447.04 425.283  13
   2  -6  -2 8211.80 448.933  12
   2  -6  -2 9095.17 817.941  29
   2  -6  -2 8724.14 493.790  24
   2  -6  -2 9127.85 480.934  22
   2  -6  -2 8547.79 483.513  26
   2  -6  -2 9150.74 488.942  23
   2  -6  -2 8347.32 504.424  25
   2  -6  -1 47563.1 2375.75  29
   2  -6  -1 44789.3 1929.52  24
   2  -6  -1 47154.8 1930.75  23
   2  -6  -1 48223.3 1924.64  22
   2  -6   0 31955.8 1593.56  30
   2  -6   1 47388.1 2225.96  33
   2  -6   1 45794.6 2368.63  29
   2  -6   1 46195.4 2236.20  30
   2  -6   2 11499.8 624.811  20
   2  -6   2 11617.7 582.486   6
   2  -6   2 12684.4 957.159  29
   2  -6   2 11253.6 802.339  33
   2  -6   2 12128.4 878.872  30
   2  -6   2 12232.3 599.961  23
   2  -6   2 11864.9 604.826  24
   2  -6   2 11698.8 585.488  22
   2  -6   3 935.087 201.314  20
   2  -6   3 1411.78 190.183   8
   2  -6   3 1539.78 409.423  29
   2  -6   3 1179.54 350.162  30
   2  -6   3 1329.21 170.593  22
   2  -6   4 4657.72 363.785  20
   2  -6   4 5728.79 364.046   8
   2  -6   4 4725.69 335.134   6
   2  -6   4 4787.07 610.378  30
   2  -6   4 5632.29 639.205  29
   2  -6   4 5714.82 332.335  22
   2  -6   5 1167.83 180.993  15
   2  -6   5 827.838 190.124  20
   2  -6   5 1221.00 187.477   6
   2  -6   5 1315.61 363.987  29
   2  -6   5 1344.96 164.978  22
   2  -6   6 4014.29 327.815  20
  -2   6  -6 3511.85 220.629  37
   2  -6   6 4183.99 332.362   8
   2  -6   6 4349.42 310.602   6
   2  -6   7 4331.67 287.922   9
   2  -6   7 4878.37 680.143  30
  -2   6  -7 4702.98 268.068  37
   2  -6   7 5260.99 379.446   8
   2  -6   7 5285.50 352.570   6
   2  -6   8 5967.09 350.580   9
   2  -6   8 6686.26 792.732  30
  -2   6  -8 5544.87 324.042  37
   2  -6   8 7194.02 445.291   8
   2  -6   8 6587.08 403.474   6
   2  -6   9 5007.97 309.443   9
  -2   6  -9 4408.55 278.892  37
   2  -6  10 1180.23 164.688   9
   2  -6  10 1336.62 204.439   8
  -2   6 -10 1006.37 141.438  37
   2  -6  11 2081.26 174.736   9
   2  -6  11 2106.76 207.933   8
  -2   6 -11 1622.94 155.339  37
   2  -6  11 1628.59 192.863  21
   2  -5 -12 702.377 103.269  14
   2  -5 -11 26.3429 130.652  26
   2  -5 -10 1310.87 174.415  12
   2  -5 -10 1605.37 220.521  26
   2  -5  -9 2582.48 252.049  12
   2  -5  -9 2578.03 272.727  23
   2  -5  -9 2659.82 291.703  26
   2  -5  -8 10537.8 570.809  12
   2  -5  -8 10551.0 618.160  26
   2  -5  -8 9896.56 603.007  23
   2  -5  -7 39965.9 1700.31  13
   2  -5  -7 40002.3 1726.19  12
   2  -5  -7 41554.0 1777.61  26
   2  -5  -7 38805.5 1769.06  23
   2  -5  -6 15998.1 722.374  13
   2  -5  -6 15165.2 739.759  12
   2  -5  -6 14615.0 724.445  22
   2  -5  -6 14492.3 771.671  26
   2  -5  -6 15001.3 777.315  23
   2  -5  -5 22795.3 995.906  13
   2  -5  -5 22238.6 1016.02  12
   2  -5  -5 22776.7 1024.67  22
   2  -5  -5 22323.1 1063.71  23
   2  -5  -5 22965.6 1057.36  26
   2  -5  -4 869.968 137.409  12
   2  -5  -4 955.516 129.724  13
   2  -5  -4 1088.18 297.629  29
   2  -5  -4 746.643 159.369  26
   2  -5  -4 816.704 162.129  23
   2  -5  -3 1260.18 330.784  29
   2  -5  -2 24492.3 1384.15  29
   2  -5  -1 1424.75 279.831  33
   2  -5  -1 1071.93 190.235  30
   2  -5  -1 1637.22 375.725  29
   2  -5   0 20908.1 1099.19  30
   2  -5   1 49727.5 2220.41  30
   2  -5   1 45755.4 2159.24  33
   2  -5   1 46109.4 2287.48  29
   2  -5   2 24441.0 1343.96  30
   2  -5   2 23092.9 1257.52  33
   2  -5   2 26918.5 1411.17  29
   2  -5   3 2924.77 431.703  30
   2  -5   3 3826.90 483.479  29
   2  -5   4 676.567 286.541  29
   2  -5   5 17958.9 1091.98  29
   2  -5   5 16244.2 760.597   6
   2  -5   6 7114.76 396.378   9
   2  -5   6 8381.09 481.903  20
   2  -5   6 7836.18 799.494  30
  -2   5  -6 8337.02 384.579  37
   2  -5   6 8446.07 443.958   6
   2  -5   6 8779.09 484.448   8
   2  -5   7 781.455 150.536   9
   2  -5   7 985.792 344.766  30
  -2   5  -7 884.865 128.011  37
   2  -5   7 768.208 163.219   6
   2  -5   7 950.500 196.020   8
   2  -5   8 2927.80 242.046   9
   2  -5   8 2990.37 541.559  30
  -2   5  -8 2799.78 214.013  37
   2  -5   8 3359.12 299.148   8
   2  -5   8 3027.49 251.329   6
   2  -5   9 10122.2 506.461   9
  -2   5  -9 9129.66 479.643  37
   2  -5   9 8643.46 912.081  30
   2  -5   9 10786.0 577.234   8
   2  -5  10 3459.93 258.855   9
  -2   5 -10 2793.22 231.397  37
   2  -5  10 3515.79 293.146   8
   2  -5  11 2732.98 221.336   9
  -2   5 -11 2301.78 204.567  37
   2  -5  11 2794.33 241.649   8
   2  -5  12 1431.77 152.520   9
   2  -5  12 1213.54 144.032   8
  -2   5 -12 1144.97 136.636  37
   2  -4 -13 1922.40 170.613  24
   2  -4 -12 4902.28 343.121  24
   2  -4 -11 877.087 212.791  24
   2  -4 -11 948.710 176.843  26
   2  -4 -11 591.430 152.325  23
   2  -4 -10 2805.07 249.906  12
   2  -4 -10 3738.01 311.719  26
   2  -4 -10 2761.58 295.968  23
   2  -4 -10 3677.29 357.172  24
   2  -4  -9 1697.25 202.961  12
   2  -4  -9 1727.01 246.932  26
   2  -4  -8 35602.2 1521.75  12
   2  -4  -8 34088.8 1568.69  26
   2  -4  -7 4440.16 300.908  13
   2  -4  -7 4581.79 314.316  12
   2  -4  -7 4574.17 356.205  26
   2  -4  -6 19082.0 853.321  13
   2  -4  -6 19394.3 876.259  12
   2  -4  -6 18765.1 909.567  26
   2  -4  -5 3540.38 395.301  29
   2  -4  -5 4343.89 298.936  26
   2  -4  -4 2085.18 321.990  29
   2  -4  -3 577.889 239.750  29
   2  -4  -2 18006.8 954.989  29
   2  -4  -2 13350.9 662.630  30
   2  -4  -1 652.358 166.716  30
   2  -4   0 34164.3 1527.89  30
   2  -4   0 31581.0 1537.34  33
   2  -4   1 594.701 205.783  30
   2  -4   1 558.026 215.928  33
   2  -4   1 699.773 293.001  29
   2  -4   2 32775.0 1579.46  33
   2  -4   2 35118.1 1688.99  29
   2  -4   2 34960.4 1685.25  30
   2  -4   3 1471.14 313.934  29
   2  -4   4 7836.07 615.888  29
   2  -4   5 1535.06 307.073  29
   2  -4   5 1077.05 348.261  30
  -2   4  -5 1463.51 122.804  37
   2  -4   6 52025.2 2560.04  30
  -2   4  -6 50735.7 2041.48  37
   2  -4   6 50388.7 2120.13   8
   2  -4   7 15967.9 728.592   9
  -2   4  -7 17783.7 720.214  37
   2  -4   7 14875.5 1157.58  30
   2  -4   7 16882.0 798.807   8
   2  -4   7 14651.9 737.825   6
   2  -4   8 20814.7 947.737   9
  -2   4  -8 21825.1 934.776  37
   2  -4   8 23034.5 1016.48   8
   2  -4   9 168.485 155.903   9
   2  -4   9 122.584 246.784  30
  -2   4  -9 107.083 133.819  37
   2  -4   9 27.5594 156.122   8
  -2   4  -9 142.440 148.554   1
   2  -4  10 6532.78 372.394   9
  -2   4 -10 5611.84 349.452  37
  -2   4 -10 5943.86 369.570   1
   2  -4  10 5738.67 395.009   8
   2  -4  11 65.8299 148.978   9
  -2   4 -11 226.909 137.961  37
   2  -4  11 103.082 130.526   8
   2  -4  12 144.676 133.453   9
  -2   4 -12 30.5548 114.429  37
   2  -4  12 61.1067 103.349   8
   2  -4  13 2853.51 185.051   9
   2  -3 -13 1773.55 188.995  24
   2  -3 -12 2296.02 254.245  24
   2  -3 -12 2046.06 195.752  26
   2  -3 -11 3032.92 273.958  26
   2  -3 -10 47.0089 147.925  37
   2  -3 -10 232.305 162.998  26
   2  -3  -9 5959.87 352.137  12
   2  -3  -9 5019.88 333.229  37
   2  -3  -9 4787.39 384.256  26
   2  -3  -8 43851.8 1768.04  12
   2  -3  -8 39607.8 1729.64  37
   2  -3  -8 42595.3 1815.39  26
   2  -3  -7 46711.8 1845.71  13
   2  -3  -7 45028.1 1858.54  12
   2  -3  -7 42403.1 1818.03  37
   2  -3  -7 43878.0 1899.36  26
   2  -3  -6 204.930 100.021  37
   2  -3  -5 3441.29 325.051  29
   2  -3  -4 875.319 225.754  29
   2  -3  -3 230.579 211.864  29
   2  -3  -2 2545.22 336.616  29
   2  -3  -2 1819.38 142.462  30
   2  -3  -1 95775.4 3390.47  30
  -2   3   1 78647.6 3285.19  28
   2  -3   0 72298.0 3013.21  30
   2  -3   1 65074.1 2819.83  30
   2  -3   1 67700.6 2867.59  29
   2  -3   2 2086.72 310.616  29
   2  -3   3 9523.76 628.251  29
   2  -3   4 5570.30 459.194  29
   2  -3   5 948.536 213.010  29
  -2   3  -5 720.102 98.1301  37
   2  -3   5 893.632 287.107  30
   2  -3   6 11547.1 889.388  30
  -2   3  -6 12139.7 536.489  37
   2  -3   7 26338.1 1184.30   9
  -2   3  -7 29736.4 1182.45  37
   2  -3   7 27196.5 1639.07  30
   2  -3   7 29033.6 1245.72   8
   2  -3   8 18959.8 859.278   9
   2  -3   8 17139.5 1272.51  30
  -2   3  -8 20285.7 858.290  37
   2  -3   8 19232.1 911.040   8
   2  -3   9 57945.5 2340.57   9
  -2   3  -9 58174.1 2336.77  37
   2  -3   9 55948.9 2383.87   8
  -2   3  -9 58928.0 2376.81   1
   2  -3  10 8457.77 449.285   9
   2  -3  10 7199.46 460.745   8
  -2   3 -10 8814.11 475.138   1
  -2   3 -10 7490.29 440.673  37
   2  -3  11 101.527 129.936   8
  -2   3 -11 129.911 153.198   1
  -2   3 -11 45.4551 148.512  37
  -2   3 -12 5611.20 341.986  37
   2  -2 -13 3363.35 276.188  24
   2  -2 -12 107.626 90.5533  37
   2  -2 -11 560.544 166.051  37
   2  -2 -11 663.151 162.265  26
   2  -2 -10 11472.7 587.390  37
   2  -2 -10 11705.3 632.981  26
   2  -2  -9 6960.19 394.394  37
   2  -2  -9 6839.35 440.948  26
   2  -2  -8 11861.6 566.221  37
   2  -2  -7 7259.34 367.662  37
   2  -2  -6 22016.5 920.931  37
   2  -2  -5 52568.7 2225.56  29
   2  -2  -4 224.126 159.206  29
  -2   2   3 3293.36 209.702  36
   2  -2  -3 3732.33 336.530  29
   2  -2  -2 126537. 4730.08  29
   2  -2  -2 113183. 4525.02  30
   2  -2  -1 1013.84 139.145  30
  -2   2   0 999999. 39132.6  28
   2  -2   1 8741.66 579.205  29
   2  -2   2 113644. 4650.72  29
   2  -2   3 2536.91 278.016  29
   2  -2   4 1252.85 207.525  29
  -2   2  -5 21863.3 911.289  37
   2  -2   5 23511.3 1243.33  30
   2  -2   6 45885.0 2369.58  30
  -2   2  -6 50864.5 2026.79  37
   2  -2   7 16937.8 1190.46  30
   2  -2   7 18548.9 891.447   8
   2  -2   8 35408.3 2138.93  30
   2  -2   8 39630.6 1767.72   8
   2  -2   9 102.837 244.999  30
  -2   2  -9 150.874 156.913  37
   2  -2   9 187.378 152.252   8
  -2   2  -9 153.099 175.921   1
  -2   2 -10 3186.89 682.915  35
  -2   2 -10 4737.63 321.132  37
   2  -2  10 3609.70 300.083   8
  -2   2 -10 4722.41 344.940   1
   2  -2  11 88.0275 161.754   9
  -2   2 -11 208.429 158.527  37
  -2   2 -11 205.421 174.576   1
   2  -2  11 172.183 120.545   8
   2  -2  12 1608.64 186.774   9
  -2   2 -12 1172.49 185.542  37
   2  -2  13 2008.68 166.624   9
  -2   2 -13 1402.78 167.103  37
   2  -1 -14 2834.81 220.716  24
  -2   1  13 3466.36 227.245   4
  -2   1  12 3526.80 242.826   9
   2  -1 -12 3785.60 274.349  37
  -2   1  11 5858.66 350.141   9
   2  -1 -11 6167.96 376.722  37
  -2   1  10 3803.69 279.135   9
   2  -1 -10 4268.86 301.096  37
   2  -1 -10 3850.42 307.608  26
  -2   1   9 14076.9 672.788   9
   2  -1  -9 15280.5 687.384  37
  -2   1   8 8307.72 424.486   9
   2  -1  -8 9235.57 433.800  37
   2  -1  -7 38648.8 1548.33  37
   2  -1  -7 33302.7 1849.78  35
   2  -1  -6 36634.8 1478.18  37
   2  -1  -6 35651.6 1752.19  35
   2  -1  -5 594.685 214.737  35
   2  -1  -5 668.277 136.504  29
   2  -1  -4 2646.53 141.912  10
   2  -1  -4 2381.73 244.586  29
   2  -1  -4 2045.66 256.070  35
  -2   1   3 3873.96 239.827  36
   2  -1  -2 16921.8 726.637  10
   2  -1  -1 444431. 17421.1  10
  -2   1   0 750725. 29431.4  28
  -2   1  -1 163606. 6513.02  28
   2  -1   2 520.360 144.151  10
   2  -1   3 1671.17 209.079  29
   2  -1   4 19165.0 892.738  29
  -2   1  -5 20299.5 850.378  37
  -2   1  -6 2560.05 180.016  37
   2  -1   6 1914.55 338.852  30
   2  -1   7 30221.8 1808.33  30
  -2   1  -7 37541.0 1507.67  37
  -2   1  -8 7069.10 381.342  37
   2  -1   8 6231.42 382.904   8
   2  -1   9 185.153 150.220   9
  -2   1  -9 191.934 171.357  37
  -2   1  -9 77.3295 360.842  35
  -2   1  -9 148.863 185.159   1
   2  -1   9 294.604 137.740   8
   2  -1  10 6703.87 390.755   9
  -2   1 -10 7261.29 421.456  37
  -2   1 -10 5216.83 839.317  35
   2  -1  10 5701.27 387.903   8
  -2   1 -10 7024.12 441.848   1
   2  -1  11 125.046 159.250   9
  -2   1 -11 171.688 170.974  37
  -2   1 -11-12.5230 182.011   1
   2  -1  12 319.741 145.074   9
  -2   1 -12 363.308 151.092  37
   2  -1  13 2116.64 169.135   9
  -2   1 -13 1775.59 181.527  37
  -2   0  14 2269.25 152.250   4
   2   0 -14 1761.06 184.094  24
  -2   0  13 9774.99 475.409   9
   2   0 -13 10285.4 499.194  37
  -2   0  12 640.317 154.471   9
   2   0 -12 480.712 158.905  37
  -2   0  11 49.6417 157.249   9
   2   0 -11 179.441 159.017  37
  -2   0  10 37700.9 1601.34   9
   2   0 -10 38293.3 1602.00  37
  -2   0   9 11506.8 562.731   9
   2   0  -9 11955.4 561.348  37
  -2   0   8 35559.6 1522.97   9
   2   0  -8 34036.2 1858.58  35
   2   0  -8 38412.8 1520.12  37
   2   0  -7 28028.2 1523.75  35
   2   0  -7 30622.8 1246.35  37
   2   0  -6 61291.5 2691.45  35
  -2   0   5 1507.36 160.812  30
   2   0  -5 1445.69 241.012  35
  -2   0   5 1380.90 169.620  31
  -2   0   4 46624.7 1848.88  30
   2   0  -4 41771.1 1882.17  35
   2   0  -3 21961.9 943.717  35
  -2   0   2 170871. 6772.58  36
  -2   0   0 16689.1 794.857  28
   2   0   1 6771.38 370.818  10
   2   0   2 38018.5 1582.03  10
   2   0   3 20551.3 912.696  10
  -2   0  -4 110.950 90.7660  37
  -2   0  -4 144.666 123.605  31
  -2   0  -5 6620.32 331.186  37
  -2   0  -6 38972.1 1604.17  37
  -2   0  -7 21118.5 925.993  11
  -2   0  -7 24663.7 970.140  37
  -2   0  -8 33483.7 2097.22  35
  -2   0  -8 37278.1 1502.14  37
  -2   0  -8 32920.4 1518.66   1
  -2   0  -9 1181.87 491.962  35
  -2   0  -9 777.825 201.872  37
  -2   0  -9 653.900 211.739   1
   2   0   9 446.553 147.154   8
   2   0  10 3421.67 263.032   9
  -2   0 -10 3540.75 307.980  37
  -2   0 -10 3334.45 630.223  35
  -2   0 -10 3634.39 323.745   1
   2   0  10 2432.01 237.566   8
   2   0  11 1579.86 199.038   9
  -2   0 -11 1499.93 227.983  37
  -2   0 -11 1678.70 244.546   1
   2   0  12 8387.17 422.555   9
  -2   0 -12 7863.92 457.235  37
   2   0  13 462.678 106.613   9
  -2   0 -13 314.733 83.1131  26
  -2  -1  14 890.706 114.266   4
  -2  -1  14 584.809 92.4349   5
  -2  -1  13 2248.07 203.457   9
   2   1 -13 2122.68 202.157  37
  -2  -1  12 631.551 177.246   9
   2   1 -12 658.592 164.258  37
  -2  -1  11 4803.22 335.509   9
   2   1 -11 4900.64 320.828  37
  -2  -1  10 4236.83 314.631   9
   2   1 -10 4513.20 298.053  37
  -2  -1   9 9694.94 510.581   9
   2   1  -9 10384.1 497.588  37
  -2  -1   8 11786.9 566.419   9
   2   1  -8 11811.2 834.693  35
   2   1  -8 12032.8 547.958  37
   2   1  -7 11161.7 751.837  35
  -2  -1   6 43524.2 1923.76  30
  -2  -1   5 18577.0 856.802  31
  -2  -1   5 18510.6 916.789  30
  -2  -1   4-70.0690 128.295  30
  -2  -1   4 160.941 154.420  31
  -2  -1   3 45364.9 1963.72  31
  -2  -1   3 47329.7 1960.11  30
  -2  -1   2 32989.6 1576.54  31
  -2  -1   2 40258.9 1583.76  30
  -2  -1   1 9734.81 513.627  36
  -2  -1   1 9623.97 550.614  31
  -2  -1   0 48979.4 2027.88  35
  -2  -1  -1 6140.42 369.992  36
  -2  -1  -1 6295.79 410.049  31
  -2  -1  -1 6138.75 412.773  35
  -2  -1  -2 67889.5 2810.81  31
   2   1   3 17242.1 768.221  10
  -2  -1  -3 16331.3 805.417  31
  -2  -1  -4 52827.9 2246.19  37
  -2  -1  -4 54371.4 2302.73  31
  -2  -1  -5 23092.1 1281.69  35
  -2  -1  -5 23685.1 936.841  36
  -2  -1  -6 11973.3 568.817  37
  -2  -1  -7 55359.3 2260.84  11
  -2  -1  -7 62025.4 2307.68  37
  -2  -1  -9 320.155 442.850  35
   2   1   9 486.221 145.715   8
   2   1  10 2493.56 229.173   9
   2   1  11 277.160 145.831   9
   2   1  12 1729.47 166.604   9
   2   1  13 12317.5 487.324   9
  -2  -1 -13 9990.10 505.326  26
  -2  -2  14 1781.07 151.238   5
  -2  -2  14 2330.57 166.529   4
  -2  -2  13 1617.99 184.582   9
   2   2 -13 1250.39 174.348  37
  -2  -2  12 782.758 187.327   9
   2   2 -12 548.465 156.758  37
  -2  -2  11-35.8365 183.431   9
   2   2 -11 128.414 149.104  37
  -2  -2  10 783.853 193.111   9
   2   2 -10 932.535 168.193  37
  -2  -2   9 15549.3 725.236   9
   2   2  -9 15112.2 695.922  37
  -2  -2   8 28391.6 1214.72   9
  -2  -2   7 5472.95 477.795  30
  -2  -2   6 7411.20 546.432  30
  -2  -2   5 25295.1 1247.54  30
  -2  -2   4 136.952 148.299  30
  -2  -2   4 53.2088 165.240  31
  -2  -2   3 577.168 164.558  30
  -2  -2   3 602.774 202.599  31
  -2  -2   2 39120.9 1615.36  30
  -2  -2   2 33486.6 1596.12  31
  -2  -2   1 81417.3 3374.67  31
  -2  -2   0 36475.5 1611.45  28
  -2  -2  -1 85219.6 3392.00  35
  -2  -2  -1 80259.3 3347.67  31
  -2  -2  -1 88772.2 3353.13  28
  -2  -2  -2 8918.18 509.275  36
  -2  -2  -2 9597.17 643.708  35
  -2  -2  -2 9686.31 565.707  31
   2   2   3 281.714 161.141  10
  -2  -2  -3 120.503 172.055  31
  -2  -2  -3 274.116 160.496  36
  -2  -2  -3 232.524 271.962  35
   2   2   4 50346.5 1953.24  10
  -2  -2  -4 43117.2 1998.23  33
  -2  -2  -4 45541.5 2277.31  35
  -2  -2  -5 7663.73 719.094  35
  -2  -2  -6 72494.2 2935.69  11
  -2  -2  -6 79534.4 3566.03  35
  -2  -2  -7 13116.4 598.657  11
  -2  -2  -7 12279.6 643.782   1
  -2  -2  -8 17731.9 847.263  12
  -2  -2  -8 17969.8 868.405   1
  -2  -2  -9 193.509 130.267  12
  -2  -2  -9 202.472 385.840  35
  -2  -2  -9 147.238 206.988   1
  -2  -2 -10 309.988 202.019   1
   2   2  10 232.938 143.250   9
   2   2  11 786.251 142.119   9
   2   2  12 428.666 102.286   9
  -2  -2 -12 408.791 135.933  26
  -2  -3  14 5695.71 298.353   5
   2   3 -13 2162.03 197.186  37
  -2  -3  12 235.081 177.335   9
   2   3 -12 133.814 136.909  37
  -2  -3  11 867.172 206.238   9
  -2  -3  10 3533.93 299.039   9
  -2  -3   9 18085.6 836.906   9
  -2  -3   8 19602.1 873.977   9
  -2  -3   8 18516.6 1169.77  30
  -2  -3   7 7343.91 626.398  30
  -2  -3   6 16976.1 886.863  33
  -2  -3   6 18774.0 1053.23  30
  -2  -3   5 1222.81 236.507  33
  -2  -3   5 950.638 253.048  30
  -2  -3   4 7163.58 541.277  30
  -2  -3   3 31056.6 1456.78  31
  -2  -3   3 31574.7 1485.77  30
  -2  -3   2 7215.56 515.124  31
  -2  -3   1 106101. 4385.98  31
  -2  -3   0 14510.4 762.902  28
  -2  -3  -1 123855. 5238.27  31
  -2  -3  -1 131421. 5201.09  28
  -2  -3  -2 41674.6 1981.94  35
  -2  -3  -3 27954.4 1391.74  33
  -2  -3  -3 31564.3 1585.18  35
  -2  -3  -4 36259.0 1668.79  33
  -2  -3  -4 40390.0 1987.43  35
  -2  -3  -5 43438.6 1799.14  11
  -2  -3  -5 49719.4 2380.93  35
  -2  -3  -6 20725.8 899.576  11
  -2  -3  -6 22733.1 1475.69  35
  -2  -3  -6 20829.8 944.401  37
  -2  -3  -6 19957.7 930.425   1
  -2  -3  -7 12263.2 596.646  11
  -2  -3  -7 13598.5 661.233  37
  -2  -3  -7 12081.0 639.918   1
  -2  -3  -8 6863.15 428.427  12
  -2  -3  -8 7171.65 457.582  37
  -2  -3  -8 6838.72 441.914   1
  -2  -3  -9 13449.5 674.951   1
   2   3   9 11805.3 587.834   9
  -2  -3  -9 13265.0 645.023  12
   2   3  10 614.907 137.805   9
  -2  -3 -10 703.324 133.870  12
  -2  -3 -12 459.520 123.156  26
  -2  -4  14 751.579 95.1342   4
  -2  -4  14 619.581 98.0468   5
  -2  -4  13 378.205 116.125   4
  -2  -4  12 1288.19 202.810   9
  -2  -4   9 4584.17 552.026  30
  -2  -4   8 19318.1 1240.15  30
  -2  -4   7 24828.1 1093.66   9
  -2  -4   7 27710.9 1503.37  30
  -2  -4   6 2249.87 280.449  33
  -2  -4   6 1658.84 335.561  30
  -2  -4   5 50.5197 176.196  33
  -2  -4   5 238.471 221.946  30
  -2  -4   4 19724.7 1026.77  33
  -2  -4   4 16359.8 1036.75  30
  -2  -4   3 7851.67 608.737  33
  -2  -4   2 203573. 8300.80  33
  -2  -4   1 148415. 6039.05  28
  -2  -4   0 94500.3 3900.11  28
  -2  -4  -1 15967.0 940.404  33
  -2  -4  -2 152.331 219.869  33
  -2  -4  -3 661.621 211.969  33
  -2  -4  -4 2255.19 176.058  11
  -2  -4  -4 2497.72 283.435  33
  -2  -4  -4 2118.20 164.947  27
  -2  -4  -5 19876.5 902.954   1
  -2  -4  -5 20919.2 913.347  17
  -2  -4  -6 29129.6 1320.03   1
  -2  -4  -6 35106.1 1379.45  12
  -2  -4  -6 32365.3 1305.05  11
  -2  -4  -6 27278.5 1310.08  17
  -2  -4  -7 12892.7 673.677   1
  -2  -4  -7 14139.8 706.053  12
  -2  -4  -7 13711.7 649.385  11
  -2  -4  -8 9715.14 544.478  12
  -2  -4  -9 5939.75 374.731  12
  -2  -4 -10 86.9088 105.132  12
  -2  -4 -10 127.213 132.450  24
  -2  -4 -10-44.2207 175.482  26
  -2  -4 -11 1480.68 190.627  26
  -2  -4 -12 1410.13 136.699  26
   2   5 -13 2.69607 93.7160  37
  -2  -5  13 110.638 93.5933   4
   2   5 -12 579.799 133.540  37
  -2  -5  12 602.984 135.141   4
   2   5 -11 7253.12 393.360  37
  -2  -5  10 4656.79 338.498   9
   2   5 -10 4546.47 297.506  37
  -2  -5   9 32351.1 1370.25   9
  -2  -5   9 27390.9 1783.74  30
  -2  -5   8 9132.11 507.745   9
  -2  -5   8 9912.44 537.227   8
  -2  -5   8 11009.7 904.787  30
  -2  -5   7 28246.1 1186.97   9
  -2  -5   7 30910.1 1685.40  30
  -2  -5   6 85.4121 134.258   9
  -2  -5   6-35.0313 145.899   8
  -2  -5   6 146.105 248.017  30
  -2  -5   6 92.6404 81.9196  32
  -2  -5   6 170.148 184.105  33
  -2  -5   5 16814.2 949.297  33
  -2  -5   5 13874.0 1007.57  30
  -2  -5   4 10199.2 710.808  33
  -2  -5   4 9021.32 742.027  30
  -2  -5   3 17366.6 1039.33  33
  -2  -5   2 503.185 259.672  33
  -2  -5   2 306.802 188.061  28
  -2  -5   1 156675. 6340.30  28
  -2  -5   0 23072.8 1271.42  33
  -2  -5  -1 30207.4 1563.05  33
  -2  -5  -2 295.440 213.399  33
  -2  -5  -3 257.060 128.539  17
  -2  -5  -3 57.7286 100.114  11
  -2  -5  -3 154.570 200.740  33
  -2  -5  -3 116.307 88.9130  32
  -2  -5  -3 120.038 130.367  25
  -2  -5  -3 144.318 149.150  21
  -2  -5  -3 150.515 91.3039  27
  -2  -5  -4 14574.4 664.951  11
  -2  -5  -4 14932.3 694.329  17
  -2  -5  -4 14354.5 662.031  27
  -2  -5  -4 13760.5 843.088  21
  -2  -5  -4 13697.8 729.648  25
  -2  -5  -5 12932.3 625.806  12
  -2  -5  -5 12276.9 565.076  11
  -2  -5  -5 11466.0 585.189  17
  -2  -5  -5 10640.7 610.432  24
  -2  -5  -5 10158.9 656.010  25
  -2  -5  -6 11437.7 600.805  17
  -2  -5  -6 10793.7 640.075  24
  -2  -5  -7 17887.8 788.859  13
  -2  -5  -7 19820.9 877.341  12
  -2  -5  -8 1147.93 184.331  12
  -2  -5  -8 498.421 168.567  24
  -2  -5  -9 736.183 148.585  12
  -2  -5  -9 307.150 143.768  24
  -2  -5 -10 141.776 97.8150  12
  -2  -5 -11 455.301 120.751  26
  -2  -6  13 1415.79 126.989  19
  -2  -6  13 2041.14 148.231   5
  -2  -6  12 1477.80 163.617   5
   2   6 -12 1110.00 140.043  37
  -2  -6  11 5306.65 321.337   5
  -2  -6  11 4218.23 279.125   4
   2   6 -11 5101.17 288.453  37
  -2  -6  11 3932.74 377.086  25
  -2  -6  10 24938.0 1115.21  18
  -2  -6  10 21684.4 1020.46   4
   2   6 -10 24850.5 1023.96  37
  -2  -6   9 5169.36 325.993   4
  -2  -6   9 6279.25 711.944  30
  -2  -6   8 4450.02 290.261   4
  -2  -6   8 5556.97 668.809  30
  -2  -6   7 20522.2 1426.32  30
  -2  -6   6 907.543 155.930   5
  -2  -6   6 647.319 295.809  30
  -2  -6   6 777.493 122.440  32
  -2  -6   6 781.483 260.662  33
  -2  -6   6 634.855 177.242  21
  -2  -6   5 4166.85 318.005  16
  -2  -6   5 4133.12 273.078   5
  -2  -6   5 4949.05 493.655  33
  -2  -6   5 4146.26 266.507  32
  -2  -6   5 3794.81 549.230  30
  -2  -6   5 3653.32 322.646  21
  -2  -6   4 11186.6 623.259  16
  -2  -6   4 11765.7 640.628  18
  -2  -6   4 13695.9 869.289  33
  -2  -6   4 12142.9 578.445  32
  -2  -6   4 11480.6 641.299  21
  -2  -6   3 140.935 129.665  16
  -2  -6   3 266.282 138.436  18
  -2  -6   3 191.621 219.911  33
  -2  -6   3 185.001 190.446  25
  -2  -6   3 301.283 143.447  21
  -2  -6   2 13103.8 667.266  19
  -2  -6   2 13821.6 687.878  18
  -2  -6   2 13084.0 685.517  16
  -2  -6   2 14063.1 926.085  33
  -2  -6   2 14873.4 980.826  30
  -2  -6   2 13184.8 694.069  21
  -2  -6   2 13973.3 752.327  25
  -2  -6   2 12990.8 635.180  22
  -2  -6   1 13048.0 649.413  19
  -2  -6   1 13253.1 673.182  16
  -2  -6   1 12718.0 676.517  21
  -2  -6   1 13231.5 723.617  25
  -2  -6   0 36448.5 1597.70  19
  -2  -6   0 37980.4 1625.97  18
  -2  -6   0 41631.6 1948.30  33
  -2  -6   0 36488.9 1637.92  21
  -2  -6   0 38181.5 1674.49  25
  -2  -6  -1 29824.4 1252.52  19
  -2  -6  -1 27720.0 1223.07  12
  -2  -6  -1 29186.0 1290.04  16
  -2  -6  -1 32495.6 1595.55  33
  -2  -6  -1 31718.8 1248.36  32
  -2  -6  -1 25535.2 1197.17  27
  -2  -6  -1 28839.8 1312.22  25
  -2  -6  -2 2054.78 197.233  12
  -2  -6  -2 1942.75 167.848  11
  -2  -6  -2 2240.72 228.715  16
  -2  -6  -2 2251.53 363.063  33
  -2  -6  -2 2117.33 192.554  32
  -2  -6  -2 1889.35 166.152  27
  -2  -6  -2 2054.15 202.229  26
  -2  -6  -2 1879.13 243.766  25
  -2  -6  -2 2205.44 239.687  21
  -2  -6  -3 398.219 130.707  12
  -2  -6  -3 232.215 191.416  16
  -2  -6  -3 233.131 111.190  11
  -2  -6  -3 447.658 157.132  17
  -2  -6  -3 336.473 104.993  32
  -2  -6  -3 93.3794 215.989  33
  -2  -6  -3 332.920 108.750  27
  -2  -6  -3 137.674 193.471  21
  -2  -6  -3 346.371 170.238  25
  -2  -6  -3 261.417 140.680  26
  -2  -6  -4 1045.60 182.143  12
  -2  -6  -4 914.691 153.929  11
  -2  -6  -4 1066.93 189.392  17
  -2  -6  -4 1255.97 271.084  33
  -2  -6  -4 1043.76 126.893  32
  -2  -6  -4 1338.66 545.436  21
  -2  -6  -4 860.539 204.973  25
  -2  -6  -4 716.864 177.112  26
  -2  -6  -5 199.796 169.190  17
  -2  -6  -5 295.854 130.689  11
  -2  -6  -5 218.681 134.162  24
  -2  -6  -5 327.864 177.127  26
  -2  -6  -5 377.915 366.775  25
  -2  -6  -6 37650.1 1437.40  13
  -2  -6  -6 34382.0 1431.10  11
  -2  -6  -6 29000.1 1426.71  17
  -2  -6  -6 39736.4 1510.55  12
  -2  -6  -6 26897.1 1450.08  24
  -2  -6  -6 37473.4 1538.28  26
  -2  -6  -7 22134.5 942.176  13
  -2  -6  -7 24614.8 1021.88  12
  -2  -6  -7 23388.3 1054.73  26
  -2  -6  -8 4335.62 268.861  13
  -2  -6  -8 5074.46 332.913  12
  -2  -6  -8 4738.11 362.384  26
  -2  -6  -9 126.141 113.427  12
  -2  -6  -9 12.3020 140.860  26
  -2  -6 -10 1003.65 114.764  12
  -2  -7  12 161.178 94.2602  19
  -2  -7  12 57.3176 91.3548   5
   2   7 -12 58.1239 80.1069  37
  -2  -7  11 4185.92 279.960  18
  -2  -7  11 4313.23 266.902   5
   2   7 -11 3842.13 245.039  37
  -2  -7  11 3740.01 316.271  25
  -2  -7  10 1573.22 210.297  18
  -2  -7  10 1654.56 186.589   5
   2   7 -10 1658.72 161.736  37
  -2  -7  10 1417.90 249.292  25
  -2  -7   9 4323.59 309.701   5
  -2  -7   9 4962.92 381.175  18
  -2  -7   9 5214.33 446.104  25
  -2  -7   8 3630.30 334.186  18
  -2  -7   8 3328.65 271.602   5
  -2  -7   8 3279.47 573.794  30
  -2  -7   8 3555.22 398.506  25
  -2  -7   7 20604.1 1077.23  18
  -2  -7   7 21867.1 993.432   5
  -2  -7   7 20855.3 1514.44  30
  -2  -7   7 21712.9 1067.77  21
  -2  -7   7 25384.7 1206.76  25
  -2  -7   6 13794.4 729.548  18
  -2  -7   6 13205.7 680.207  16
  -2  -7   6 11521.2 610.576   5
  -2  -7   6 13881.7 926.001  33
  -2  -7   6 13387.4 610.149  32
  -2  -7   6 11938.9 1061.28  30
  -2  -7   6 10578.2 684.496  21
  -2  -7   6 13483.0 798.774  25
  -2  -7   5 284.703 159.868  16
  -2  -7   5 357.018 186.797  18
  -2  -7   5 359.483 132.787   5
  -2  -7   5 398.030 120.655  32
  -2  -7   5 830.754 278.481  33
  -2  -7   5 589.006 255.718  25
  -2  -7   5 324.334 179.005  21
  -2  -7   4 284.556 165.237  16
  -2  -7   4 18.0171 155.677  18
  -2  -7   4 252.954 125.944  32
  -2  -7   4 131.089 247.062  33
  -2  -7   4 27.3781 152.735  21
  -2  -7   3 52127.3 2267.21  19
  -2  -7   3 52650.4 2290.88  18
  -2  -7   3 50404.7 2285.48  16
  -2  -7   3 54605.8 2223.06  32
  -2  -7   3 56122.6 2615.18  33
  -2  -7   3 56173.8 2740.68  30
  -2  -7   3 54271.6 2304.19  21
  -2  -7   3 53876.4 2369.67  25
  -2  -7   2 24639.8 1151.31  19
  -2  -7   2 24375.9 1178.02  16
  -2  -7   2 26726.8 1477.00  33
  -2  -7   2 25473.6 1118.64  32
  -2  -7   2 25059.4 1190.87  21
  -2  -7   2 24704.1 1113.87  22
  -2  -7   2 25638.1 1243.25  25
  -2  -7   1 11877.4 629.739  19
  -2  -7   1 11961.3 665.617  16
  -2  -7   1 12713.1 715.072  25
  -2  -7   1 11920.6 675.738  21
  -2  -7   1 12267.3 600.816  22
  -2  -7   0 11713.2 580.739  19
  -2  -7   0 10604.4 522.275  12
  -2  -7   0 12510.8 888.590  33
  -2  -7   0 11738.7 565.490  32
  -2  -7   0 11363.6 628.670  21
  -2  -7   0 9406.06 511.260  27
  -2  -7   0 11574.6 660.333  25
  -2  -7   0 10550.7 537.621  22
  -2  -7  -1 6264.24 346.753  11
  -2  -7  -1 6973.84 456.314  16
  -2  -7  -1 6972.26 386.289  12
  -2  -7  -1 8174.07 703.845  33
  -2  -7  -1 8422.89 420.791  32
  -2  -7  -1 6539.34 361.122  27
  -2  -7  -1 6902.17 479.549  25
  -2  -7  -1 6814.04 376.411  22
  -2  -7  -2 1621.79 159.061  11
  -2  -7  -2 1456.56 181.725  12
  -2  -7  -2 1898.11 235.500  16
  -2  -7  -2 2151.98 379.667  33
  -2  -7  -2 1480.83 158.786  27
  -2  -7  -2 1890.86 190.087  32
  -2  -7  -2 1843.21 197.879  26
  -2  -7  -2 1885.72 259.281  25
  -2  -7  -2 1970.03 259.061  21
  -2  -7  -3 7504.29 405.384  11
  -2  -7  -3 8298.47 466.220  17
  -2  -7  -3 7957.03 461.207  12
  -2  -7  -3 8552.96 722.250  33
  -2  -7  -3 7749.54 409.869  27
  -2  -7  -3 8112.79 428.355  32
  -2  -7  -3 8518.55 476.872  26
  -2  -7  -3 8251.70 525.753  25
  -2  -7  -3 7764.81 577.145  21
  -2  -7  -4 20.0204 138.635  12
  -2  -7  -4 95.1024 162.580  17
  -2  -7  -4 8.20415 119.345  11
  -2  -7  -4 7.38172 152.688  26
  -2  -7  -4-80.9140 186.767  25
  -2  -7  -5 19702.3 972.302  17
  -2  -7  -5 21184.3 954.144  11
  -2  -7  -5 23211.6 979.765  13
  -2  -7  -5 23092.4 1023.65  12
  -2  -7  -5 22041.6 1035.09  26
  -2  -7  -5 21327.1 1173.26  25
  -2  -7  -6 2872.75 227.911  13
  -2  -7  -6 2836.98 284.296  26
  -2  -7  -7 16552.3 767.693  13
  -2  -7  -7 18658.0 830.120  12
  -2  -7  -7 16845.0 840.431  26
  -2  -7  -8 3860.04 260.726  12
  -2  -7  -8 3048.85 205.831  13
  -2  -7  -8 3629.98 277.538  26
  -2  -7  -9 2027.56 167.179  12
  -2  -7  -9 1862.10 181.963  26
  -2  -8  12 172.886 72.7288  19
  -2  -8  11 3357.26 222.672  18
   2   8 -11 3149.70 199.217  37
  -2  -8  10 5294.20 338.369  18
   2   8 -10 4718.35 265.384  37
  -2  -8  10 4517.13 352.853  25
  -2  -8   9 13163.6 650.190  18
  -2  -8   9 12666.2 693.218  25
  -2  -8   8 165.502 119.599   5
  -2  -8   8 194.729 166.164  18
  -2  -8   8 80.5592 133.125  21
  -2  -8   8 291.428 202.046  25
  -2  -8   7 7694.67 433.740   5
  -2  -8   7 8255.08 542.356  18
  -2  -8   7 8622.71 525.243  21
  -2  -8   6 1545.36 257.463  18
  -2  -8   6 1677.18 227.229  16
  -2  -8   6 1328.51 167.638   5
  -2  -8   6 1727.44 345.610  33
  -2  -8   6 1482.74 168.478  32
  -2  -8   6 1904.87 318.565  25
  -2  -8   6 1360.14 242.551  21
  -2  -8   5 7790.56 516.180  18
  -2  -8   5 7274.54 489.081  19
  -2  -8   5 7671.80 493.382  16
  -2  -8   5 7750.62 701.811  33
  -2  -8   5 6833.22 403.498  32
  -2  -8   5 6114.97 488.020  21
  -2  -8   5 7438.69 563.804  25
  -2  -8   4 15802.8 822.967  19
  -2  -8   4 15628.1 848.863  18
  -2  -8   4 15671.8 837.351  16
  -2  -8   4 16693.8 1126.02  33
  -2  -8   4 15618.3 752.569  32
  -2  -8   4 15548.3 851.971  21
  -2  -8   3 16767.5 878.898  18
  -2  -8   3 16611.2 847.498  19
  -2  -8   3 15447.9 863.462  16
  -2  -8   3 16766.0 1158.01  33
  -2  -8   3 16375.1 792.895  32
  -2  -8   3 16917.6 887.003  21
  -2  -8   3 17551.2 942.644  25
  -2  -8   2 25044.4 1122.43  19
  -2  -8   2 26897.2 1183.75  16
  -2  -8   2 26950.5 1515.54  33
  -2  -8   2 25199.2 1084.40  32
  -2  -8   2 26949.8 1193.47  21
  -2  -8   2 26754.2 1235.17  25
  -2  -8   1 15976.3 769.930  19
  -2  -8   1 16412.0 831.546  16
  -2  -8   1 16494.4 815.548  18
  -2  -8   1 16933.4 843.594  21
  -2  -8   1 16928.9 869.479  25
  -2  -8   0 7428.21 721.384  33
  -2  -8   0 6627.29 397.815  32
  -2  -8   0 5806.44 334.740  27
  -2  -8   0 7047.97 480.128  21
  -2  -8   0 6999.92 495.034  25
  -2  -8  -1 14442.9 701.495  12
  -2  -8  -1 16411.7 809.389  16
  -2  -8  -1 13887.0 665.290  27
  -2  -8  -1 15942.0 1103.23  33
  -2  -8  -1 15936.2 729.630  32
  -2  -8  -1 15053.2 829.430  25
  -2  -8  -2 13728.4 731.552  16
  -2  -8  -2 11613.5 574.234  11
  -2  -8  -2 12440.7 654.654  17
  -2  -8  -2 12389.1 632.347  12
  -2  -8  -2 13232.8 975.740  33
  -2  -8  -2 12537.3 587.033  27
  -2  -8  -2 14215.5 641.829  32
  -2  -8  -2 13156.9 735.713  25
  -2  -8  -2 13703.7 740.787  21
  -2  -8  -3 490.245 175.728  17
  -2  -8  -3 583.046 147.606  12
  -2  -8  -3 570.528 118.177  11
  -2  -8  -3 685.682 539.637  21
  -2  -8  -3 478.125 157.974  26
  -2  -8  -3 676.680 212.449  25
  -2  -8  -4 41928.4 1711.86  12
  -2  -8  -4 37184.5 1677.00  17
  -2  -8  -4 42252.7 1687.27  13
  -2  -8  -4 38014.2 1706.25  26
  -2  -8  -4 39943.5 1791.03  25
  -2  -8  -5 11679.5 531.369  13
  -2  -8  -5 11997.5 567.972  12
  -2  -8  -6 17667.9 791.433  13
  -2  -8  -6 18591.1 832.075  12
  -2  -8  -6 16798.8 827.066  26
  -2  -8  -7 990.208 128.786  13
  -2  -8  -7 1073.08 157.148  26
  -2  -8  -8 1215.39 132.467  12
  -2  -9  11 4181.73 241.342  19
  -2  -9  10 9381.45 479.955  18
  -2  -9  10 9919.14 496.541  19
  -2  -9   9 7682.93 420.932  18
  -2  -9   9 7056.48 413.294  19
   2   9  -9 6134.21 322.996  37
  -2  -9   9 7133.89 428.303  25
  -2  -9   8 2416.86 255.008  18
  -2  -9   8 2319.07 222.981  21
  -2  -9   8 2372.91 272.155  25
  -2  -9   7 200.446 139.563  16
  -2  -9   7 374.143 178.994  18
  -2  -9   7 439.370 169.892  21
  -2  -9   7 396.071 205.346  25
  -2  -9   6 55.5649 181.844  18
  -2  -9   6 141.495 171.119  19
  -2  -9   6 145.124 145.252  16
  -2  -9   6 202.788 215.509  25
  -2  -9   6 132.938 166.774  21
  -2  -9   5 11190.4 634.004  19
  -2  -9   5 11346.7 666.290  18
  -2  -9   5 11323.3 645.431  16
  -2  -9   5 10788.7 656.181  21
  -2  -9   5 10667.4 690.031  25
  -2  -9   4 2619.46 278.102  19
  -2  -9   4 2435.89 295.783  18
  -2  -9   4 2423.36 290.086  16
  -2  -9   4 2266.85 421.380  33
  -2  -9   4 2090.51 212.264  32
  -2  -9   4 2425.76 301.939  21
  -2  -9   3 6515.72 441.055  19
  -2  -9   3 6675.89 476.425  16
  -2  -9   3 7062.71 708.534  33
  -2  -9   3 6558.57 400.434  32
  -2  -9   3 7138.84 496.953  21
  -2  -9   2 11136.5 615.579  19
  -2  -9   2 11924.6 676.499  16
  -2  -9   2 10776.5 910.955  33
  -2  -9   2 10873.4 581.740  32
  -2  -9   2 11578.2 684.402  21
  -2  -9   2 11545.7 702.890  25
  -2  -9   1 22450.7 1443.94  33
  -2  -9   1 22942.0 1153.28  25
  -2  -9   1 22750.6 1131.98  21
  -2  -9   0 8084.64 518.350  16
  -2  -9   0 7321.45 742.911  33
  -2  -9   0 7358.64 430.411  32
  -2  -9   0 7405.98 528.230  25
  -2  -9  -1 239.752 240.489  16
  -2  -9  -1 314.903 109.153  12
  -2  -9  -1 340.153 182.997  17
  -2  -9  -1 317.661 209.649  25
  -2  -9  -2 848.947 142.156  12
  -2  -9  -2 1040.51 164.027  13
  -2  -9  -2 871.780 185.143  17
  -2  -9  -2 781.579 419.821  21
  -2  -9  -2 793.095 227.901  25
  -2  -9  -3 5548.83 355.671  17
  -2  -9  -3 5945.13 350.954  12
  -2  -9  -3 5824.37 437.621  25
  -2  -9  -4 5819.43 333.796  13
  -2  -9  -4 5602.18 340.687  12
  -2  -9  -5 31117.7 1296.03  13
  -2  -9  -5 30219.3 1312.38  12
  -2  -9  -6 12894.0 590.300  12
  -2  -9  -6 12343.4 571.079  13
  -2  -9  -7 3841.45 221.183  12
  -2 -10  10 1130.94 107.247  19
  -2 -10   9 2421.75 189.214  18
  -2 -10   8 3109.83 247.612  18
  -2 -10   8 3081.37 252.881  25
  -2 -10   7 8157.23 450.022  19
  -2 -10   7 8134.86 465.380  18
  -2 -10   7 7738.77 438.333  21
  -2 -10   7 7093.89 461.656  25
  -2 -10   6 276.089 164.465  16
  -2 -10   6 322.038 145.006  19
  -2 -10   6 313.539 163.192  18
  -2 -10   6 295.033 155.025  21
  -2 -10   6 315.749 180.157  25
  -2 -10   5 3169.36 282.210  16
  -2 -10   5 2914.25 262.206  19
  -2 -10   5 3149.70 298.748  18
  -2 -10   5 2570.07 284.982  21
  -2 -10   5 2948.28 307.700  25
  -2 -10   4 31462.6 1361.09  19
  -2 -10   4 29232.3 1391.92  16
  -2 -10   4 31321.2 1415.32  21
  -2 -10   3 22997.2 1028.21  19
  -2 -10   3 20452.7 1069.71  16
  -2 -10   3 23628.8 1101.37  21
  -2 -10   2 6401.95 335.801  13
  -2 -10   2 7039.69 471.913  16
  -2 -10   2 6913.84 487.344  25
  -2 -10   2 7145.34 474.323  21
  -2 -10   1 2920.67 205.691  13
  -2 -10   1 3556.27 337.695  25
  -2 -10   1 3055.84 313.501  21
  -2 -10   0 505.973 114.364  13
  -2 -10   0 561.733 175.726  17
  -2 -10   0 587.876 316.906  16
  -2 -10   0 340.401 193.236  25
  -2 -10  -1 2592.70 197.854  13
  -2 -10  -1 2292.68 224.565  17
  -2 -10  -1 2622.50 437.386  21
  -2 -10  -1 2228.60 271.756  25
  -2 -10  -2 1628.00 159.501  13
  -2 -10  -2 1366.42 178.137  17
  -2 -10  -2 1506.16 245.390  25
  -2 -10  -3 486.920 472.720  25
  -2 -10  -4 6871.21 350.484  13
  -2 -10  -5 6707.73 305.403  13
  -2 -10  -5 5403.35 287.140  12
  -2 -11   7 513.771 95.8431  19
  -2 -11   7 424.987 83.5330  21
  -2 -11   7 343.178 102.957  25
  -2 -11   6 298.012 94.0504  19
  -2 -11   6 194.786 103.068  21
  -2 -11   6 435.055 127.366  25
  -2 -11   5 906.914 157.483  21
  -2 -11   5 1244.03 179.544  25
  -2 -11   4 8420.42 477.993  21
  -2 -11   3 10196.2 554.967  21
  -2 -11   2 6358.81 402.766  25
  -2 -11   2 5872.87 394.784  21
  -2 -11   1 7489.98 415.648  17
  -2 -11   1 8795.71 511.170  21
  -2 -11   1 8484.50 473.945  25
  -2 -11   0 5048.56 259.972  13
  -2 -11   0 4578.58 284.034  17
  -2 -11  -1 209.566 85.1663  13
  -2 -11  -1 245.723 206.308  25
  -2 -11  -2 449.787 89.8015  13
  -2 -11  -3 2607.98 159.390  13
  -2 -12   4 127.069 70.1247  17
  -2 -12   4 159.291 184.068  21
  -2 -12   4 68.9000 74.6557  25
  -2 -12   3 2384.92 154.359  17
  -2 -12   3 3090.32 293.546  21
  -2 -12   2 5123.20 285.690  25
  -2 -12   1 7826.21 405.268  25
   3 -12   1 1118.92 116.939  16
   3 -12   2 153.584 79.5436  16
   3 -12   3 2541.37 180.419  16
   3 -11  -2 8647.89 416.233  22
   3 -11  -1 6243.43 374.440  16
   3 -11  -1 7183.88 361.397  22
   3 -11   0 939.554 166.914  16
   3 -11   0 1245.09 184.329  15
   3 -11   0 1220.08 149.907  22
   3 -11   1 2312.30 235.976  15
   3 -11   1 2172.36 227.582  16
   3 -11   1 1932.10 204.450  21
   3 -11   2 1327.58 188.618  15
   3 -11   2 1234.42 181.244  21
   3 -11   2 1608.15 164.450  22
   3 -11   3 766.841 166.762  16
   3 -11   3 713.387 162.364  21
   3 -11   4 7179.02 434.544  16
   3 -11   4 8222.69 452.561  21
   3 -11   5 3390.79 247.465  16
   3 -11   6 2789.82 193.744  16
   3 -11   7-17.7540 70.3323  21
   3 -10  -6 1730.52 153.437  14
   3 -10  -6 1557.23 143.160  24
   3 -10  -5 5336.86 314.499  14
   3 -10  -5 4917.91 280.616  23
   3 -10  -5 4939.60 303.778  24
   3 -10  -4 2890.66 238.706  14
   3 -10  -4 2792.26 218.212  23
   3 -10  -4 2603.19 192.715  22
   3 -10  -4 2965.39 237.704  24
   3 -10  -3 817.654 160.355  15
   3 -10  -3 870.004 158.924  14
   3 -10  -3 1098.14 172.958  24
   3 -10  -3 835.017 142.062  22
   3 -10  -3 1103.57 158.870  23
   3 -10  -2 6876.42 437.712  15
   3 -10  -2 5997.24 400.095  16
   3 -10  -2 7126.86 406.744  23
   3 -10  -2 7030.58 421.483  24
   3 -10  -2 6754.75 389.493  22
   3 -10  -1 6953.42 454.628  15
   3 -10  -1 6501.70 432.314  16
   3 -10  -1 5861.17 605.339  25
   3 -10  -1 6133.61 404.155  21
   3 -10  -1 6990.02 397.302  22
   3 -10   0 1456.91 213.855  21
   3 -10   0 1818.87 327.869  25
   3 -10   1 293.511 181.784  15
   3 -10   1 249.040 143.949  22
   3 -10   1 149.690 176.926  25
   3 -10   1 209.585 166.748  21
   3 -10   2-34.4650 167.913  15
   3 -10   2-79.2598 164.354  21
   3 -10   2 267.092 143.571  22
   3 -10   3 5250.99 379.016  15
   3 -10   3 4145.29 321.009  18
   3 -10   3 5217.40 397.083  21
   3 -10   3 5258.98 328.948  22
   3 -10   4 12475.2 677.534  18
   3 -10   4 13751.4 706.895  15
   3 -10   4 13996.6 750.592  21
   3 -10   4 14066.9 656.383  22
   3 -10   5 2111.71 218.911  15
   3 -10   5 1931.17 217.957  18
   3 -10   6 6882.55 420.376  18
   3 -10   6 7441.52 464.667  21
   3 -10   7 586.038 114.570  16
   3 -10   7 712.662 139.575  18
   3 -10   7 699.422 160.305  21
   3 -10   8 4048.41 262.731  18
   3 -10   8 4203.00 281.856  21
   3  -9  -8 1322.02 137.987  14
   3  -9  -8 1078.22 123.513  24
   3  -9  -7 3131.31 234.928  24
   3  -9  -6 547.820 132.394  23
   3  -9  -6 762.173 161.448  24
   3  -9  -5 2873.12 267.001  14
   3  -9  -5 2744.14 236.026  23
   3  -9  -5 2413.36 202.948  22
   3  -9  -5 2773.75 260.510  24
   3  -9  -4 5844.72 406.063  15
   3  -9  -4 7016.65 450.988  14
   3  -9  -4 7571.85 434.698  23
   3  -9  -4 6767.99 399.275  22
   3  -9  -4 7503.10 450.011  24
   3  -9  -3 19366.6 966.838  15
   3  -9  -3 21408.2 980.295  14
   3  -9  -3 17593.4 928.232  16
   3  -9  -3 20483.1 953.361  23
   3  -9  -3 21682.1 976.554  24
   3  -9  -3 19456.2 927.543  22
   3  -9  -2 16732.0 884.355  15
   3  -9  -2 17230.5 860.620  14
   3  -9  -2 16871.8 828.851  22
   3  -9  -2 15583.5 825.783  21
   3  -9  -2 15889.3 960.781  25
   3  -9  -2 18670.5 854.180  23
   3  -9  -2 17869.3 862.935  24
   3  -9  -1 4522.50 389.814  15
   3  -9  -1 4755.61 358.031  14
   3  -9  -1 3856.79 342.054  21
   3  -9  -1 4607.06 351.466  23
   3  -9  -1 4038.70 385.448  25
   3  -9  -1 4759.20 362.573  24
   3  -9  -1 4812.18 343.055  22
   3  -9   0 476.917 207.885  20
   3  -9   0 485.559 185.723  24
   3  -9   0 376.729 178.758  21
   3  -9   0 298.481 176.234  25
   3  -9   1 542.353 148.955  18
   3  -9   1 435.848 202.863  15
   3  -9   1 646.031 228.194  20
   3  -9   1 507.084 173.381  25
   3  -9   1 583.431 209.552  21
   3  -9   1 513.302 172.744  22
   3  -9   2 632.160 201.094  15
   3  -9   2 622.933 177.992  18
   3  -9   2 680.420 214.816  21
   3  -9   2 706.733 171.162  22
   3  -9   2 694.434 168.440  25
   3  -9   3 2988.00 312.071  15
   3  -9   3 2769.71 285.051  18
   3  -9   3 2964.72 327.477  20
   3  -9   3 2831.64 330.897  21
   3  -9   3 2406.56 239.811  25
   3  -9   3 3071.06 266.045  22
   3  -9   4 11110.7 640.579  15
   3  -9   4 10725.9 635.586  18
   3  -9   4 11555.0 700.277  21
   3  -9   4 11599.5 588.661  22
   3  -9   4 10980.1 661.452  20
   3  -9   5 24645.2 1127.20  15
   3  -9   5 23343.4 1141.73  18
   3  -9   5 23616.4 1149.41  20
   3  -9   5 24406.5 1076.47  22
   3  -9   6 20125.3 978.040  15
   3  -9   6 23571.3 1039.48  20
   3  -9   6 21658.1 1085.09  21
   3  -9   7 4556.39 371.872  21
   3  -9   8 1449.93 213.616  21
   3  -9   9 34.5747 113.290  21
   3  -8  -9 2738.17 206.267  14
   3  -8  -9 2571.10 205.362  24
   3  -8  -8 4434.21 301.372  14
   3  -8  -8 4608.43 302.830  24
   3  -8  -7 30.1309 129.417  12
   3  -8  -7 202.008 138.512  14
   3  -8  -7-13.9187 147.341  24
   3  -8  -7-95.0467 125.955  23
   3  -8  -6 10697.1 576.369  24
   3  -8  -6 10187.8 540.826  23
   3  -8  -5 6089.14 428.917  24
   3  -8  -5 5909.74 380.272  22
   3  -8  -5 6069.12 409.138  23
   3  -8  -4 2529.71 270.012  15
   3  -8  -4 3107.23 306.079  14
   3  -8  -4 2708.42 271.713  12
   3  -8  -4 2957.27 268.471  13
   3  -8  -4 3169.45 312.620  24
   3  -8  -4 2712.30 263.768  22
   3  -8  -4 2967.50 287.034  23
   3  -8  -3 6811.97 479.175  15
   3  -8  -3 7713.77 492.046  14
   3  -8  -3 6638.36 423.137  13
   3  -8  -3 7067.25 447.921  12
   3  -8  -3 7620.33 487.568  24
   3  -8  -3 7288.84 454.721  22
   3  -8  -3 8312.96 484.387  23
   3  -8  -3 7074.67 671.492  25
   3  -8  -2 22382.7 1083.59  15
   3  -8  -2 22741.1 1060.09  14
   3  -8  -2 20095.2 972.924  13
   3  -8  -2 20927.4 1005.90  12
   3  -8  -2 23265.2 1062.00  24
   3  -8  -2 21582.6 1022.63  22
   3  -8  -2 20960.0 1034.73  21
   3  -8  -2 21709.9 1081.21  25
   3  -8  -2 22708.5 1048.02  23
   3  -8  -1 17940.3 883.324  13
   3  -8  -1 20459.9 973.061  14
   3  -8  -1 18859.8 1490.91  29
   3  -8  -1 20278.1 986.855  21
   3  -8  -1 19700.8 984.797  25
   3  -8  -1 20934.4 999.059  20
   3  -8  -1 20739.6 976.865  24
   3  -8   0 26825.6 1203.30  14
   3  -8   0 22562.0 1101.01  13
   3  -8   0 28382.9 1192.47  22
   3  -8   0 26820.2 1240.19  21
   3  -8   0 26958.3 1240.31  20
   3  -8   0 25243.9 1202.87  25
   3  -8   0 26802.1 1210.61  24
   3  -8   1 4889.11 365.603   6
   3  -8   1 4388.02 403.875  20
   3  -8   1 4063.93 341.452  18
   3  -8   1 5276.13 362.274  22
   3  -8   1 5441.45 392.963  24
   3  -8   1 5280.07 372.935  23
   3  -8   1 4666.26 404.603  21
   3  -8   1 4308.23 351.718  25
   3  -8   2 22316.5 1076.67  18
   3  -8   2 24334.6 1068.31   6
   3  -8   2 20539.7 1574.36  29
   3  -8   2 20562.2 1040.67  25
   3  -8   2 24414.3 1147.19  21
   3  -8   2 24496.6 1058.90  22
   3  -8   3 6694.93 497.989  20
   3  -8   3 7443.59 458.862   8
   3  -8   3 6109.35 808.063  29
   3  -8   3 7637.51 437.334  22
   3  -8   3 6882.56 514.180  21
   3  -8   4 6797.22 484.726  20
   3  -8   4 6807.89 465.352  15
   3  -8   4 6912.64 453.166   8
   3  -8   4 5524.06 699.104  30
   3  -8   4 6696.43 408.673  22
   3  -8   5 16418.4 825.922  15
   3  -8   5 16378.3 853.493  20
   3  -8   5 15740.6 816.077   6
   3  -8   5 16288.4 822.929   8
   3  -8   5 16487.8 772.025  22
   3  -8   6 12749.4 684.348   8
   3  -8   6 12360.9 670.620   6
   3  -8   6 12770.6 698.040  20
   3  -8   6 11906.1 742.649  21
   3  -8   7 339.240 180.669   6
   3  -8   7 339.562 157.542  20
   3  -8   7 295.044 196.217  21
   3  -8   8 6.62501 165.271   8
   3  -8   8 17.1993 162.593  21
   3  -8   9 238.017 150.053   8
   3  -8   9 276.108 158.351  21
   3  -8  10 122.075 109.854  21
   3  -8  11 574.454 100.503  18
   3  -7 -10 4004.01 261.995  14
   3  -7  -9 6670.14 402.842  14
   3  -7  -9 6982.69 381.519  12
   3  -7  -8 112.282 149.209  12
   3  -7  -8 286.658 136.991  23
   3  -7  -7 203.983 157.444  12
   3  -7  -7 148.859 147.644  23
   3  -7  -6 434.134 171.125  12
   3  -7  -6 359.020 174.395  23
   3  -7  -6 318.539 144.375  22
   3  -7  -5 3433.51 294.738  15
   3  -7  -5 4194.31 317.801  13
   3  -7  -5 3851.41 318.628  22
   3  -7  -5 4024.24 342.232  23
   3  -7  -4 11756.1 669.434  15
   3  -7  -4 12353.3 667.114  22
   3  -7  -4 13682.5 698.791  23
   3  -7  -3 28069.9 1247.57  13
   3  -7  -3 28858.0 1282.03  12
   3  -7  -3 27086.5 1784.26  29
   3  -7  -3 28198.6 1293.20  22
   3  -7  -3 30458.2 1320.01  23
   3  -7  -3 28645.4 1367.65  25
   3  -7  -3 27996.6 1292.75  20
   3  -7  -2 12730.8 670.749  14
   3  -7  -2 11622.8 596.442  13
   3  -7  -2 11584.3 622.634  12
   3  -7  -2 12885.3 1100.38  29
   3  -7  -2 13377.0 665.895  22
   3  -7  -2 11920.4 652.870  21
   3  -7  -2 12639.3 671.816  20
   3  -7  -2 12375.1 688.297  25
   3  -7  -1 18167.0 857.943  14
   3  -7  -1 17677.3 870.852  20
   3  -7  -1 16741.4 810.079  12
   3  -7  -1 16773.4 778.703  13
   3  -7  -1 16789.3 805.359   6
   3  -7  -1 18518.9 1328.58  29
   3  -7  -1 17309.2 864.774  21
   3  -7  -1 16666.9 860.533  25
   3  -7   0 7163.03 424.750   6
   3  -7   0 7580.50 450.195  14
   3  -7   0 7369.77 476.410  20
   3  -7   0 6573.80 372.650  13
   3  -7   0 7347.52 440.160  22
   3  -7   0 7597.02 446.424  23
   3  -7   0 6832.52 468.200  21
   3  -7   0 6431.06 438.732  25
   3  -7   1 710.249 167.617  14
   3  -7   1 876.449 184.758   6
   3  -7   1 624.060 163.394   8
   3  -7   1 550.523 374.886  29
   3  -7   1 499.147 250.247  30
   3  -7   1 409.222 190.726  21
   3  -7   1 777.546 169.119  22
   3  -7   1 827.028 177.919  23
   3  -7   1 588.728 161.555  25
   3  -7   2 14244.8 743.242  20
   3  -7   2 12869.9 682.422   8
   3  -7   2 13247.3 684.802   6
   3  -7   2 12875.9 1104.18  29
   3  -7   2 12487.8 989.431  30
   3  -7   2 14523.4 688.139  22
   3  -7   2 14216.0 701.379  23
   3  -7   2 12178.2 675.562  25
   3  -7   2 14252.1 763.873  21
   3  -7   3 450.666 196.487  20
   3  -7   3 616.233 174.239   8
   3  -7   3 1023.33 404.209  29
   3  -7   3 198.245 265.161  30
   3  -7   3 654.728 153.950  22
   3  -7   4 18378.7 940.058  20
   3  -7   4 19593.6 911.565   8
   3  -7   4 17426.9 881.633   6
   3  -7   4 18568.1 1361.62  29
   3  -7   4 16082.4 1279.80  30
   3  -7   4 19252.6 871.362  22
   3  -7   5 6447.31 432.349  15
   3  -7   5 6781.87 475.960  20
   3  -7   5 6465.48 430.235   6
   3  -7   5 6977.77 448.534   8
   3  -7   5 6495.70 386.188  22
   3  -7   6 7517.14 503.054  20
   3  -7   6 8092.40 481.673   6
   3  -7   7 4150.37 323.387   6
   3  -7   7 3472.55 318.879  20
   3  -7   8 2935.37 292.069   8
   3  -7   8 2582.46 255.887   6
   3  -7   9 1372.62 212.027   8
   3  -7  10 1880.10 205.994   8
   3  -7  10 1348.53 198.494  21
   3  -7  11 2874.22 199.871   8
   3  -7  11 1723.65 180.387  21
   3  -6 -11 1929.90 167.982  14
   3  -6 -11 2194.88 202.443  24
   3  -6 -10 10428.4 524.016  24
   3  -6 -10 7673.60 450.925  23
   3  -6  -9 2384.12 234.909  12
   3  -6  -9 1994.34 236.177  23
   3  -6  -8 3542.41 297.167  12
   3  -6  -8 3716.76 352.896  24
   3  -6  -8 3282.72 324.022  26
   3  -6  -8 3573.99 327.029  23
   3  -6  -7 1796.48 232.679  12
   3  -6  -7 1916.10 277.039  24
   3  -6  -7 1628.97 207.891  22
   3  -6  -7 2020.37 275.394  26
   3  -6  -7 1619.09 258.358  23
   3  -6  -6 5400.67 364.258  13
   3  -6  -6 5575.47 378.513  12
   3  -6  -6 5179.76 414.647  24
   3  -6  -6 4990.14 403.864  23
   3  -6  -6 5366.11 370.130  22
   3  -6  -6 5071.31 404.410  26
   3  -6  -5 10121.0 536.371  13
   3  -6  -5 9999.98 556.483  12
   3  -6  -5 10552.6 568.382  22
   3  -6  -5 10191.2 588.244  26
   3  -6  -5 10720.3 601.269  23
   3  -6  -4 5318.07 666.375  29
   3  -6  -4 6289.12 412.284  22
   3  -6  -4 5693.57 621.210  25
   3  -6  -4 6694.61 430.082  23
   3  -6  -4 6420.29 423.790  26
   3  -6  -3 48794.8 2086.25  13
   3  -6  -3 49198.9 2116.29  12
   3  -6  -3 51768.3 2594.17  29
   3  -6  -3 54076.0 2151.04  22
   3  -6  -3 50318.8 2124.66  20
   3  -6  -3 52038.5 2186.80  25
   3  -6  -2 46990.8 1948.01  20
   3  -6  -2 43417.3 1881.98  13
   3  -6  -2 44860.3 1914.69  12
   3  -6  -2 47852.3 2419.50  29
   3  -6  -2 49430.5 1952.07  22
   3  -6  -2 45072.0 1963.97  25
   3  -6  -1 16855.6 801.048  12
   3  -6  -1 18626.9 844.326  14
   3  -6  -1 16526.7 768.514  13
   3  -6  -1 17915.6 850.740  20
   3  -6  -1 17986.6 1236.71  29
   3  -6  -1 18521.2 841.135  23
   3  -6  -1 16980.0 840.133  25
   3  -6   0 4803.24 333.849  14
   3  -6   0 4514.87 363.015  20
   3  -6   0 4630.38 464.677  30
   3  -6   0 5614.10 347.938  22
   3  -6   0 5230.45 338.121  23
   3  -6   1 2749.96 246.672  14
   3  -6   1 2957.52 233.970   6
   3  -6   1 2309.85 470.541  29
   3  -6   1 2999.12 411.080  30
   3  -6   1 2898.78 240.445  22
   3  -6   1 2920.07 242.427  23
   3  -6   2 4445.64 303.104   6
   3  -6   2 4803.13 311.150   8
   3  -6   2 4256.08 521.778  30
   3  -6   2 4362.25 584.646  29
   3  -6   2 4179.47 297.446  22
   3  -6   2 4388.99 306.205  23
   3  -6   3 19921.3 903.142   8
   3  -6   3 17599.2 1233.76  30
   3  -6   3 18931.9 1275.99  29
   3  -6   3 19106.5 878.234  22
   3  -6   4 3259.39 276.264   8
   3  -6   4 3278.03 266.925   6
   3  -6   4 3130.28 521.952  29
   3  -6   4 3007.88 498.851  30
   3  -6   4 3290.07 246.806  22
   3  -6   5 23281.1 1057.14   6
   3  -6   5 24827.4 1091.17   8
   3  -6   5 19969.6 1472.86  30
   3  -6   5 21420.7 1435.73  29
   3  -6   5 23293.9 1031.32  22
   3  -6   6 1180.63 210.589  20
   3  -6   6 1059.00 200.063   6
   3  -6   7 2617.37 274.214  20
   3  -6   7 2698.97 262.113   6
   3  -6   7 3005.52 298.793   8
   3  -6   8 634.947 141.253   9
   3  -6   8 511.900 312.559  30
   3  -6   8 615.052 199.248   8
   3  -6   8 704.658 172.289   6
   3  -6   9 1419.13 187.334   6
   3  -6   9 1783.54 238.721   8
   3  -6   9 1203.88 164.439   9
   3  -6  10 720.417 169.195   8
   3  -6  11 196.089 119.600   8
   3  -6  11 73.9103 109.485  21
   3  -6  12 4273.34 236.171   8
   3  -5 -12 2519.47 202.270  24
   3  -5 -11 10378.1 526.355  24
   3  -5 -11 8085.07 456.872  23
   3  -5 -10 5650.06 350.988  12
   3  -5 -10 6308.07 431.037  24
   3  -5 -10 5985.57 390.145  26
   3  -5 -10 5051.91 378.104  23
   3  -5  -9 18717.1 877.986  12
   3  -5  -9 18904.5 953.698  24
   3  -5  -9 18711.3 913.049  26
   3  -5  -9 17091.9 919.183  23
   3  -5  -8 14213.9 698.966  12
   3  -5  -8 13368.2 766.486  24
   3  -5  -8 12235.9 748.927  23
   3  -5  -8 13332.8 725.250  26
   3  -5  -7 478.756 161.961  12
   3  -5  -7 379.270 181.517  23
   3  -5  -7 382.517 200.954  24
   3  -5  -7 322.753 176.610  26
   3  -5  -7 398.492 147.828  22
   3  -5  -6 14127.8 680.589  13
   3  -5  -6 13490.6 692.585  12
   3  -5  -6 13290.4 754.077  24
   3  -5  -6 13605.6 709.947  22
   3  -5  -6 14113.0 727.354  26
   3  -5  -6 13642.3 741.250  23
   3  -5  -5 8382.41 480.807  12
   3  -5  -5 9388.31 475.604  13
   3  -5  -5 7668.53 696.546  29
   3  -5  -5 8612.94 532.300  24
   3  -5  -5 9434.70 509.862  22
   3  -5  -5 8423.61 506.747  26
   3  -5  -5 9023.06 534.038  23
   3  -5  -4 8975.26 452.591  13
   3  -5  -4 8472.16 462.465  12
   3  -5  -4 8078.70 725.950  29
   3  -5  -4 9331.28 517.099  24
   3  -5  -4 8228.74 483.152  22
   3  -5  -4 8946.28 496.084  26
   3  -5  -4 7661.66 611.174  25
   3  -5  -3 24121.3 1419.43  29
   3  -5  -3 23922.0 1094.70  24
   3  -5  -3 24142.8 1085.10  26
   3  -5  -2 53445.6 2602.42  29
   3  -5  -1 4675.44 388.573  30
   3  -5   0 661.019 201.494  30
   3  -5   1 2667.74 353.254  30
   3  -5   1 1929.99 401.051  29
   3  -5   2 9337.32 743.502  30
   3  -5   2 10302.2 803.571  29
   3  -5   3 2660.41 420.730  30
   3  -5   3 3544.13 484.278  29
   3  -5   4 14252.4 1090.55  30
   3  -5   4 17900.2 1103.06  29
   3  -5   4 17284.1 777.519   8
   3  -5   4 15388.2 740.215   6
   3  -5   5 23297.3 1416.06  29
   3  -5   5 25121.1 1088.34   6
   3  -5   6 7266.83 387.350   9
   3  -5   6 8612.31 448.216   6
   3  -5   7 4780.68 296.899   9
   3  -5   7 5121.42 679.607  30
  -3   5  -7 4585.84 274.427  37
   3  -5   7 5319.04 379.064   8
   3  -5   7 5026.01 332.905   6
   3  -5   8 74.3060 138.702   9
   3  -5   8 100.044 260.722  30
  -3   5  -8-20.4863 117.110  37
   3  -5   8 96.6196 139.003   6
   3  -5   8 66.2918 172.476   8
   3  -5   9 10969.2 527.793   9
   3  -5   9 12120.6 614.248   8
   3  -5  10 13643.2 614.919   9
   3  -5  10 14608.0 690.254   8
   3  -5  11 2125.97 212.058   8
   3  -5  11 2306.44 188.493   9
   3  -5  12 4063.24 251.012   8
   3  -5  12 4461.41 233.408   9
   3  -4 -13 625.006 105.414  24
   3  -4 -12 5283.89 352.921  24
   3  -4 -11 23301.7 1053.38  24
   3  -4 -11 20928.0 999.245  23
   3  -4 -11 21008.5 980.833  26
   3  -4 -10 2183.11 213.001  12
   3  -4 -10 2833.16 309.420  24
   3  -4 -10 1973.55 255.576  23
   3  -4 -10 2671.28 260.787  26
   3  -4  -9 9873.26 547.136  12
   3  -4  -9 10092.1 633.934  24
   3  -4  -9 10524.1 591.509  26
   3  -4  -8 16645.2 792.310  12
   3  -4  -8 15290.3 866.513  24
   3  -4  -8 15426.1 773.863  22
   3  -4  -8 17287.8 834.875  26
   3  -4  -7 3602.52 284.415  12
   3  -4  -7 3306.17 330.634  24
   3  -4  -7 3717.24 310.462  26
   3  -4  -6 13541.6 647.160  13
   3  -4  -6 13008.9 654.465  12
   3  -4  -6 13361.1 713.674  24
   3  -4  -6 13301.2 686.541  26
   3  -4  -5 58463.2 2442.38  12
   3  -4  -5 61046.7 2430.23  13
   3  -4  -5 54131.6 2686.97  29
   3  -4  -5 62658.4 2502.23  24
   3  -4  -5 57775.2 2466.68  26
   3  -4  -4 13029.3 879.295  29
   3  -4  -3 5678.32 551.124  29
   3  -4  -2 8825.73 666.439  29
   3  -4  -2 5937.46 362.046  30
   3  -4  -1 453.936 161.125  30
   3  -4   0 3478.54 365.098  30
   3  -4   1 5931.73 528.189  30
   3  -4   1 6136.24 591.764  29
   3  -4   2 2950.21 398.191  30
   3  -4   2 3779.92 453.245  29
   3  -4   3 79429.1 3886.22  30
   3  -4   3 100036. 3935.45  29
   3  -4   4 101347. 4370.38  29
   3  -4   5 41075.1 1933.05  29
  -3   4  -5 37734.5 1571.73  37
   3  -4   5 40794.1 1620.92   6
   3  -4   6 5775.63 318.671   9
   3  -4   6 4611.03 653.947  30
  -3   4  -6 6101.15 304.340  37
   3  -4   6 6014.55 385.928   8
  -3   4  -6 5887.31 349.733   3
   3  -4   6 5754.05 340.625   6
   3  -4   7-3.49982 126.559   9
   3  -4   7-180.867 269.019  30
  -3   4  -7 32.0024 108.973  37
   3  -4   7 58.9376 147.526   8
   3  -4   7 50.2692 116.024   6
   3  -4   8 261.248 141.869   9
   3  -4   8 95.6590 287.931  30
  -3   4  -8 52.5938 128.298  37
   3  -4   8 272.662 164.663   8
   3  -4   9 18004.5 810.466   9
  -3   4  -9 17061.6 801.314  37
   3  -4   9 19026.7 887.407   8
  -3   4  -9 18646.7 840.078   1
   3  -4  10 8751.61 438.925   9
  -3   4 -10 6988.47 422.377  37
   3  -4  10 7905.56 483.624   8
  -3   4 -10 8469.56 453.168   1
   3  -4  11 20010.4 856.677   9
  -3   4 -11 20527.6 865.674   1
   3  -4  11 20624.9 894.176   8
   3  -4  12 2263.43 186.944   8
   3  -4  12 2968.38 196.687   9
   3  -4  13 680.641 82.2080   9
   3  -3 -13 1067.50 152.542  24
   3  -3 -12 9395.92 511.379  24
   3  -3 -12 7606.03 464.219  23
   3  -3 -11 9765.96 570.034  24
   3  -3 -11 8456.55 490.919  26
   3  -3 -10 367.117 164.529  26
   3  -3  -9 28.2500 116.112  12
   3  -3  -9 29.8479 149.602  26
   3  -3  -8 6257.56 377.653  12
   3  -3  -8 5953.08 401.971  26
   3  -3  -7 10.4897 108.996  12
   3  -3  -7 181.344 137.715  26
   3  -3  -6 440.941 112.780  12
   3  -3  -6 427.463 133.857  26
   3  -3  -5 20116.8 1089.73  29
   3  -3  -4 30560.5 1523.10  29
   3  -3  -3 101808. 4333.48  29
   3  -3  -2 30800.0 1339.83  30
   3  -3  -2 34350.2 1599.05  29
   3  -3  -1 56211.3 2259.15  30
  -3   3   1 50907.6 2196.42  28
   3  -3   0 86897.0 3471.37  30
  -3   3   0 80366.4 3326.52  28
   3  -3   1 112593. 4733.02  29
   3  -3   2 40785.5 1918.28  29
   3  -3   3 48493.8 2220.67  29
   3  -3   4 13975.2 799.297  29
  -3   3  -4 11673.6 509.520  37
   3  -3   5 38334.1 1878.25  30
  -3   3  -5 33948.1 1397.42  37
   3  -3   5 35037.1 1656.89  29
  -3   3  -6 604.016 112.762  37
   3  -3   6 581.139 304.813  30
  -3   3  -6 764.959 149.696   3
   3  -3   6 618.247 117.834   6
   3  -3   6 567.079 149.010   8
   3  -3   7 491.244 311.860  30
  -3   3  -7 696.773 135.517  37
   3  -3   7 686.466 166.182   8
   3  -3   8 11267.6 552.068   9
  -3   3  -8 11657.8 557.352  37
   3  -3   8 11442.5 611.295   8
   3  -3   9 5200.19 326.087   9
  -3   3  -9 4886.08 325.783  37
   3  -3   9 4690.00 362.514   8
  -3   3  -9 5420.95 365.755   1
   3  -3  10 8010.99 436.568   9
  -3   3 -10 7602.08 440.620  37
  -3   3 -10 8290.66 468.151   1
   3  -3  10 7708.91 472.679   8
   3  -3  11 9943.08 482.909   9
  -3   3 -11 9808.67 501.299   1
   3  -3  11 8797.40 498.348   8
  -3   3 -11 8625.58 482.982  37
   3  -3  12 4320.42 273.359   8
  -3   3 -12 5070.03 292.858  37
   3  -2 -13 3196.48 253.145  24
   3  -2 -13 2413.06 220.246  23
  -3   2  12 673.557 130.476   4
   3  -2 -10 3842.90 271.801  37
   3  -2 -10 3962.31 309.103  26
   3  -2  -9 3261.92 242.038  37
   3  -2  -9 3041.03 271.957  26
   3  -2  -8 2529.30 196.460  37
   3  -2  -8 2529.41 237.775  26
   3  -2  -7 6914.96 344.853  37
   3  -2  -7 6983.34 401.387  26
   3  -2  -5 17552.5 942.753  29
   3  -2  -4 49005.7 2214.77  29
  -3   2   4 49230.8 2035.35  36
   3  -2  -3 44923.6 1884.55  10
   3  -2  -3 47078.0 2103.10  29
  -3   2   3 48527.3 1954.05  36
   3  -2  -2 21069.7 925.729  10
   3  -2  -2 21149.4 1112.26  29
   3  -2  -1 20370.9 911.324  10
   3  -2   0 6874.67 415.838  10
  -3   2   0 7759.18 445.478  28
   3  -2   1 195962. 7480.40  29
  -3   2  -1 177596. 7340.74  28
   3  -2   2 11919.6 724.592  29
   3  -2   3 63315.6 2754.67  29
  -3   2  -4 30893.9 1297.28  37
   3  -2   4 40647.9 1571.82  29
  -3   2  -5 24732.3 1027.35  37
   3  -2   6 1149.37 326.535  30
  -3   2  -6 1473.80 147.950  37
  -3   2  -6 1458.76 179.705   3
  -3   2  -7 2789.38 215.971  37
   3  -2   7 2216.79 435.455  30
   3  -2   7 2477.73 238.289   8
   3  -2   8 438.486 293.339  30
  -3   2  -8 1075.81 173.714  37
   3  -2   8 844.850 180.278   8
  -3   2  -9 619.152 180.721  37
   3  -2   9 169.247 243.865  30
  -3   2  -9 752.577 207.755   1
   3  -2   9 655.913 178.454   8
  -3   2 -10 86.8849 162.874  37
   3  -2  10 134.263 143.431   8
  -3   2 -10 62.1940 178.396   1
  -3   2 -11 17930.1 827.404  37
  -3   2 -11 19029.5 848.654   1
   3  -2  11 16644.1 816.547   8
  -3   2 -12 5047.14 313.962  37
   3  -2  13 5372.42 273.070   9
   3  -1 -14-19.8126 78.1904  24
  -3   1  13 4071.34 245.103   4
   3  -1 -13 3773.10 301.707  24
   3  -1 -12 6028.78 357.976  37
  -3   1  12 7856.18 391.980   4
   3  -1 -11 18883.3 856.876  37
  -3   1  10 8442.37 444.733   9
   3  -1 -10 8395.71 450.011  37
  -3   1   9 8097.59 428.829   9
   3  -1  -9 8544.03 432.041  37
   3  -1  -8 3375.30 221.078  37
   3  -1  -7 8983.07 417.127  37
   3  -1  -6 10801.6 602.191  29
   3  -1  -5 42069.2 1681.34  10
   3  -1  -5 39017.9 1848.19  29
  -3   1   3 4432.13 320.885  36
   3  -1  -2 1560.61 206.191  10
   3  -1  -1 362198. 14256.5  10
  -3   1   0 53828.4 2295.73  28
  -3   1  -1 19302.2 937.518  28
   3  -1   2 35797.9 1538.91  10
   3  -1   4 56248.4 2237.16  29
  -3   1  -4 49685.9 2037.82  37
  -3   1  -5 60147.9 2418.75  37
  -3   1  -6 16399.0 706.333  37
  -3   1  -6 14704.3 730.834   3
   3  -1   7 4667.41 581.793  30
  -3   1  -7 6032.41 345.906  37
  -3   1  -8 22533.2 909.556  37
   3  -1   8 18342.7 911.532   8
  -3   1  -9 9866.58 517.302  37
  -3   1  -9 9620.84 539.966   1
   3  -1   9 8126.37 499.003   8
   3  -1  10 2241.74 229.716   9
  -3   1 -10 2545.45 257.993  37
   3  -1  10 1871.45 225.698   8
  -3   1 -10 2256.56 271.744   1
   3  -1  11 10637.7 503.502   9
  -3   1 -11 10184.1 531.112  37
  -3   1 -11 10877.7 551.600   1
   3  -1  12 4078.96 253.890   9
  -3   1 -12 3510.79 271.189  37
   3  -1  13 2201.10 154.024   9
  -3   0  14 450.957 91.8552   4
   3   0 -14 421.186 100.315  24
   3   0 -13 96.5882 72.6520  37
  -3   0  13 4525.73 218.894   4
  -3   0  12 9331.41 476.892   9
   3   0 -12 9533.82 486.924  37
  -3   0  11 2328.07 222.603   9
   3   0 -11 2171.38 216.139  37
  -3   0  10 24928.2 1125.64   9
   3   0 -10 26733.0 1122.62  37
  -3   0   9 5844.75 346.920   9
   3   0  -9 6053.93 335.984  37
  -3   0   8 3859.77 263.489   9
   3   0  -8 4351.84 250.913  37
   3   0  -7 1962.83 150.452  37
   3   0  -6 1834.44 235.552  35
  -3   0   5 108281. 4435.58  31
  -3   0   3 87596.3 3583.33  36
  -3   0   2 131637. 5299.71  36
  -3   0   0 36405.7 1635.15  28
   3   0   1 55499.6 2383.79  10
  -3   0  -1 61729.8 2481.93  28
   3   0   2 37175.7 1591.27  10
   3   0   3 52013.5 2180.78  10
  -3   0  -4 3127.34 206.841  37
  -3   0  -5 9140.25 445.100  37
  -3   0  -6 7731.28 411.187  37
  -3   0  -7 4024.51 248.544  11
  -3   0  -7 5014.58 315.420  37
  -3   0  -7 4892.89 695.903  35
  -3   0  -8 15544.2 754.776  37
  -3   0  -9 11560.3 568.079  37
  -3   0  -9 10244.8 571.281   1
   3   0  10 14223.6 651.193   9
  -3   0 -10 14876.4 704.082  37
  -3   0 -10 14242.4 713.365   1
   3   0  11 7640.30 384.057   9
  -3   0 -11 6838.71 422.769  37
  -3   0 -11 7851.27 437.511   1
   3   0  12 4381.65 264.051   9
   3   0  13 67.7633 69.8384   9
  -3  -1  14 667.356 85.5866   5
   3   1 -14 498.787 105.384  24
   3   1 -13 3533.55 252.578  37
  -3  -1  13 4705.70 280.171   4
  -3  -1  12 8604.12 447.948   9
   3   1 -12 7735.16 431.571  37
  -3  -1  11 18160.4 815.824   9
   3   1 -11 16681.4 789.712  37
  -3  -1  10 6383.62 397.885   9
   3   1 -10 6778.71 374.586  37
  -3  -1   9 7370.63 418.257   9
   3   1  -9 7369.56 390.670  37
  -3  -1   8 284.921 137.942   9
  -3  -1   6 23537.3 1144.40  30
  -3  -1   5 60867.6 2575.89  31
  -3  -1   5 59546.5 2569.64  30
  -3  -1   4 44110.7 1951.18  31
  -3  -1   3 32445.5 1496.98  31
  -3  -1   2 26104.5 1206.30  36
  -3  -1   1 30163.9 1355.76  36
  -3  -1   0 25684.5 1155.01  35
  -3  -1  -1 16483.7 841.666  36
  -3  -1  -1 17409.9 900.096  31
  -3  -1  -1 17544.6 887.925  35
   3   1   2 63282.1 2594.83  10
  -3  -1  -2 59108.4 2625.49  36
  -3  -1  -2 65784.7 2689.57  31
   3   1   3 65021.2 2549.82  10
  -3  -1  -3 58775.8 2452.85  37
  -3  -1  -3 60411.9 2598.91  36
  -3  -1  -3 65818.4 2644.36  31
   3   1   4 272.412 157.829  10
  -3  -1  -4 321.611 183.274  31
  -3  -1  -4 297.946 122.721  37
  -3  -1  -4 283.704 293.435  35
  -3  -1  -4 454.781 188.424  36
  -3  -1  -5 12427.6 641.986  36
  -3  -1  -5 12939.7 950.892  35
  -3  -1  -6 1261.02 137.435  11
  -3  -1  -6 1496.65 200.215  37
  -3  -1  -6 1583.52 477.232  35
  -3  -1  -7 42.2540 102.060  11
  -3  -1  -7 271.104 188.601  37
  -3  -1  -7 106.992 363.235  35
  -3  -1  -8 6586.56 372.505  11
  -3  -1  -8 8085.76 464.694  37
  -3  -1  -8 6963.73 897.681  35
  -3  -1  -9 18381.3 928.170  12
  -3  -1  -9 24410.3 1002.05  37
   3   1  10 12480.7 575.826   9
  -3  -1 -10 13683.9 647.714  37
   3   1  11 8607.34 438.234   9
   3   1  12 550.492 114.205   9
  -3  -2  14 539.376 105.270   4
  -3  -2  14 313.918 85.9751   5
   3   2 -13 4266.19 291.600  37
  -3  -2  13 5943.80 318.854   4
  -3  -2  12 26161.8 1098.48   9
   3   2 -12 23681.7 1070.62  37
  -3  -2  11 10264.2 538.513   9
   3   2 -11 9688.76 503.988  37
  -3  -2  10 782.826 192.292   9
   3   2 -10 713.473 154.300  37
  -3  -2   9 323.821 165.957   9
   3   2  -9 315.253 126.528  37
  -3  -2   8 3886.40 277.564   9
  -3  -2   7 13650.8 641.010   9
  -3  -2   7 14864.6 867.665  30
  -3  -2   6 10860.1 661.455  31
  -3  -2   6 11635.1 728.398  30
  -3  -2   5 4951.01 411.402  31
  -3  -2   5 4915.95 424.814  30
  -3  -2   4 1095.75 223.060  30
  -3  -2   4 1229.12 272.287  31
  -3  -2   3 518.741 242.584  31
  -3  -2   2 54719.3 2414.86  31
  -3  -2   1 7823.09 559.811  31
  -3  -2   0 20137.4 993.299  35
  -3  -2   0 18774.2 982.171  36
  -3  -2  -1 33336.2 1543.23  31
  -3  -2  -1 33654.6 1536.65  35
  -3  -2  -1 35548.7 1539.56  28
  -3  -2  -2 92479.0 3782.63  31
  -3  -2  -2 84103.0 3702.17  36
  -3  -2  -2 96563.5 3870.44  35
   3   2   3 48535.9 2000.84  10
  -3  -2  -3 47885.3 2044.42  36
  -3  -2  -3 44705.7 1907.17  37
  -3  -2  -3 49298.8 2102.86  31
  -3  -2  -3 48730.2 2260.62  35
   3   2   4 34397.3 1455.24  10
  -3  -2  -4 32334.8 1386.38  37
  -3  -2  -4 33118.2 1499.99  36
  -3  -2  -4 33351.4 1787.77  35
  -3  -2  -5 20735.0 899.387  11
  -3  -2  -5 19971.4 923.853  17
  -3  -2  -5 21696.2 937.963  37
  -3  -2  -6 896.479 147.895  11
  -3  -2  -6 1133.28 218.933  37
  -3  -2  -6 780.403 441.893  35
  -3  -2  -7 14843.0 700.926  11
  -3  -2  -7 16295.1 773.949  37
  -3  -2  -7 15162.5 760.750   1
  -3  -2  -8 14649.8 701.968  11
  -3  -2  -8 16833.1 793.603  37
  -3  -2  -8 13943.2 1287.41  35
  -3  -2  -8 15353.5 772.772   1
  -3  -2  -9 8561.74 492.420   1
  -3  -2  -9 7092.35 432.823  12
  -3  -2 -10 4218.46 322.208   1
   3   2  10 3919.58 256.427   9
   3   2  11 3037.55 212.954   9
   3   2  12 2523.92 155.419   9
  -3  -2 -12 2636.03 209.655  26
  -3  -3  14 2249.51 161.096   5
   3   3 -13 3903.93 255.074  37
   3   3 -12 9542.28 482.375  37
  -3  -3  11 89.9784 178.385   9
   3   3 -11 102.003 131.341  37
  -3  -3  10 1481.37 229.721   9
   3   3 -10 1584.88 188.014  37
  -3  -3   9 62.0307 178.684   9
  -3  -3   8 290.425 163.976   9
  -3  -3   8 336.582 192.807  30
  -3  -3   7 2934.72 234.904   9
  -3  -3   7 3132.80 413.099  30
  -3  -3   6 2394.04 328.055  33
  -3  -3   6 2960.91 381.618  30
  -3  -3   5 65591.1 2800.78  31
  -3  -3   5 61776.1 2846.19  30
  -3  -3   4 59623.5 2565.01  31
  -3  -3   4 55628.5 2576.91  30
  -3  -3   3 24700.0 1284.30  31
  -3  -3   3 25679.8 1294.29  30
  -3  -3   2 2169.99 351.664  31
  -3  -3   1 9195.27 665.063  31
  -3  -3   0 55322.9 2445.31  28
  -3  -3  -1 52542.5 2421.10  31
  -3  -3  -1 55561.0 2394.46  28
  -3  -3  -2 85142.5 3651.33  31
  -3  -3  -2 85694.2 3743.95  35
  -3  -3  -3 37958.2 1953.12  35
  -3  -3  -4 1204.79 234.696  33
  -3  -3  -4 2060.00 424.575  35
  -3  -3  -5 7299.00 376.911  11
  -3  -3  -5 6842.09 398.401  17
  -3  -3  -5 7979.76 795.573  35
  -3  -3  -6 2818.07 221.441  11
  -3  -3  -6 3445.31 637.845  35
  -3  -3  -6 3035.01 262.422   1
  -3  -3  -7 552.010 143.939  11
  -3  -3  -7 353.261 392.990  35
  -3  -3  -7 383.406 185.586   1
  -3  -3  -8 2511.51 275.265   1
  -3  -3  -8 2330.49 245.558  12
  -3  -3  -8 2319.46 216.439  11
  -3  -3  -9 2081.11 246.552   1
  -3  -3  -9 1683.39 198.604  12
   3   3  10 16973.5 753.069   9
  -3  -3 -10 17499.2 780.955  12
   3   3  11 3904.72 215.150   9
  -3  -3 -12 2782.59 196.033  26
  -3  -4  14 918.012 108.857   5
  -3  -4  14 1051.36 105.218   4
  -3  -4  13 3815.69 247.912   5
  -3  -4  13 3906.60 237.942   4
   3   4 -12 5110.03 318.760  37
  -3  -4  12 6155.09 346.002   4
   3   4 -11 8094.44 433.568  37
  -3  -4  11 8487.48 463.288   4
  -3  -4  10 1892.85 251.881   9
  -3  -4   8 1164.64 330.038  30
  -3  -4   7 1813.31 360.440  30
  -3  -4   6 40057.3 1698.81   9
  -3  -4   6 42700.5 1966.59  33
  -3  -4   6 43285.0 2093.55  30
  -3  -4   5 33349.5 1681.93  33
  -3  -4   5 32702.5 1723.65  30
  -3  -4   4 88468.5 3876.75  30
  -3  -4   3 3239.51 409.042  30
  -3  -4   2 4436.31 475.572  31
  -3  -4   1 8156.82 602.186  28
  -3  -4   0 1584.14 352.574  31
  -3  -4   0 1867.79 288.444  28
  -3  -4  -2 33491.3 1720.69  33
  -3  -4  -3 39156.0 1659.22  17
  -3  -4  -3 41626.3 1951.23  33
  -3  -4  -4 25174.9 1096.11  17
  -3  -4  -4 24374.6 1284.23  33
  -3  -4  -5 26253.2 1160.70   1
  -3  -4  -5 26883.6 1147.88  11
  -3  -4  -5 27073.7 1177.81  17
  -3  -4  -6 2429.62 246.752   1
  -3  -4  -6 2969.84 230.888  11
  -3  -4  -7 4750.71 348.768   1
  -3  -4  -7 5206.83 369.605  12
  -3  -4  -7 5039.02 320.888  11
  -3  -4  -8 3075.00 283.791   1
  -3  -4  -8 3357.88 285.750  12
   3   4   9 11170.3 536.044   9
  -3  -4  -9 12957.7 606.840  12
  -3  -4 -10 8684.25 437.713  12
  -3  -4 -11 3229.16 238.081  26
  -3  -5  14 2792.62 163.937   5
  -3  -5  13 3949.21 228.907   4
  -3  -5  12 7528.47 395.346   4
  -3  -5  11 4525.47 300.048   4
  -3  -5  10 6314.06 383.182   4
  -3  -5   9 139.249 251.414  30
  -3  -5   9-30.8355 136.880   4
  -3  -5   8 3589.82 314.699  18
  -3  -5   8 4165.58 566.536  30
  -3  -5   8 3702.31 275.060   4
  -3  -5   7 14115.6 756.891  18
  -3  -5   7 16573.2 1144.49  30
  -3  -5   7 14939.7 696.742   4
  -3  -5   6 44737.6 1910.27  18
  -3  -5   6 48789.8 2165.17  33
  -3  -5   6 46135.1 2323.48  30
  -3  -5   6 42965.9 1829.51   4
  -3  -5   5 8637.96 501.458  18
  -3  -5   5 8816.65 457.570   5
  -3  -5   5 9500.96 719.759  33
  -3  -5   5 8981.58 771.515  30
  -3  -5   4 30021.4 1598.09  33
  -3  -5   4 28989.0 1626.47  30
  -3  -5   3 11409.3 847.037  33
  -3  -5   2 14909.7 989.264  33
  -3  -5   2 13661.1 865.169  28
  -3  -5   1 3458.76 368.430  28
  -3  -5   0 5469.82 583.407  33
  -3  -5   0 5058.55 445.789  28
  -3  -5  -1 10575.8 583.967  16
  -3  -5  -1 11151.2 592.729  21
  -3  -5  -2 35961.1 1614.73  16
  -3  -5  -2 39497.3 1920.97  33
  -3  -5  -2 38174.5 1545.06  27
  -3  -5  -2 35361.7 1619.94  21
  -3  -5  -3 36800.1 1528.32  11
  -3  -5  -3 37347.4 1562.54  17
  -3  -5  -3 36874.9 1523.65  27
  -3  -5  -3 38364.3 1861.04  33
  -3  -5  -3 34275.4 1579.27  25
  -3  -5  -4 77281.7 3092.65  11
  -3  -5  -4 75822.9 3119.56  17
  -3  -5  -4 75524.6 3357.26  33
  -3  -5  -5 652.059 188.310  17
  -3  -5  -6 3975.46 316.049  12
  -3  -5  -6 3116.56 281.884  17
  -3  -5  -7 10197.0 559.435  12
  -3  -5  -7 9672.31 503.273  11
  -3  -5  -7 9544.61 471.659  13
  -3  -5  -8 5406.97 358.890  12
  -3  -5  -9 8327.05 440.886  12
  -3  -5  -9 8102.54 484.791  26
  -3  -5 -10 5904.53 311.859  12
  -3  -6  13 2564.02 173.223   5
  -3  -6  12 4210.07 261.682  19
  -3  -6  12 4711.71 272.107   5
   3   6 -12 3522.65 241.445  37
  -3  -6  12 3387.89 312.590  25
   3   6 -11 4187.85 258.101  37
  -3  -6  11 4093.61 285.686   5
  -3  -6  11 3567.44 247.965   4
  -3  -6  10 9511.76 504.136   4
  -3  -6  10 11177.9 551.813   5
  -3  -6   9 54.0265 142.124  18
  -3  -6   9 84.7922 128.873   4
  -3  -6   9 85.9348 151.090   5
  -3  -6   8 590.394 184.645  18
  -3  -6   8 620.917 169.199   5
  -3  -6   8 585.098 144.937   4
  -3  -6   7 10313.7 611.357  18
  -3  -6   7 11378.7 994.745  30
  -3  -6   7 9786.52 518.788   4
  -3  -6   7 11904.0 576.337   5
  -3  -6   6 41936.0 1857.11  18
  -3  -6   6 41818.9 1787.56   5
  -3  -6   6 42254.6 2095.16  33
  -3  -6   6 42966.5 1771.97  32
  -3  -6   6 41677.3 2300.85  30
  -3  -6   5 59644.4 2515.47  18
  -3  -6   5 60863.9 2500.47  16
  -3  -6   5 58099.1 2439.25   5
  -3  -6   5 63648.9 2834.85  33
  -3  -6   5 61410.1 2977.35  30
  -3  -6   5 57329.5 2498.04  21
  -3  -6   4 12575.3 673.977  19
  -3  -6   4 12569.9 684.646  18
  -3  -6   4 13275.0 680.963  16
  -3  -6   4 12474.1 616.899   5
  -3  -6   4 14361.4 971.152  33
  -3  -6   4 12385.5 676.849  21
  -3  -6   4 14836.8 799.306  25
  -3  -6   3 9146.69 528.960  18
  -3  -6   3 9020.03 526.365  16
  -3  -6   3 9680.49 787.164  33
  -3  -6   3 9206.16 678.737  28
  -3  -6   3 8700.08 525.137  21
  -3  -6   3 10161.4 624.657  25
  -3  -6   2 2298.58 233.550  18
  -3  -6   2 2261.79 235.750  16
  -3  -6   2 2345.81 424.648  33
  -3  -6   2 2131.32 238.331  21
  -3  -6   2 2484.15 299.321  25
  -3  -6   1 13578.9 674.370  19
  -3  -6   1 13242.5 689.159  18
  -3  -6   1 13125.9 697.154  16
  -3  -6   1 13573.9 704.546  21
  -3  -6   1 13953.3 750.760  25
  -3  -6   0 24011.6 1108.22  12
  -3  -6   0 26784.8 1161.52  19
  -3  -6   0 29595.9 1558.48  33
  -3  -6   0 26309.8 1197.33  21
  -3  -6   0 27043.0 1231.15  25
  -3  -6  -1 30510.6 1395.90  12
  -3  -6  -1 33051.2 1461.36  16
  -3  -6  -1 36611.5 1819.62  33
  -3  -6  -1 32976.0 1385.74  27
  -3  -6  -1 33655.0 1477.38  25
  -3  -6  -1 33103.4 1472.51  21
  -3  -6  -2 4308.66 307.647  12
  -3  -6  -2 4320.69 278.198  11
  -3  -6  -2 4383.36 324.502  17
  -3  -6  -2 4244.44 520.087  33
  -3  -6  -2 4864.24 307.195  32
  -3  -6  -2 4534.24 278.846  27
  -3  -6  -2 4511.19 350.889  25
  -3  -6  -3 2963.61 262.896  12
  -3  -6  -3 2902.10 225.621  11
  -3  -6  -3 2846.17 261.567  17
  -3  -6  -3 2377.41 389.183  33
  -3  -6  -3 3047.45 223.060  27
  -3  -6  -3 2816.55 224.963  32
  -3  -6  -3 2900.86 256.370  26
  -3  -6  -3 2778.76 276.546  25
  -3  -6  -4 3224.89 279.130  12
  -3  -6  -4 3136.53 237.931  11
  -3  -6  -4 3189.67 281.964  17
  -3  -6  -4 2868.14 225.929  27
  -3  -6  -4 2991.15 275.068  26
  -3  -6  -4 2624.79 286.526  25
  -3  -6  -5 50.3389 137.160  11
  -3  -6  -5 33.4381 185.784  17
  -3  -6  -5-123.742 167.086  26
  -3  -6  -6-63.4581 149.281  12
  -3  -6  -6 39.4113 112.924  13
  -3  -6  -6 81.9896 134.683  11
  -3  -6  -6 47.4696 169.908  26
  -3  -6  -7 2609.15 198.340  13
  -3  -6  -7 3289.50 270.497  12
  -3  -6  -7 2572.45 275.046  26
  -3  -6  -8 4765.95 305.235  12
  -3  -6  -8 4054.50 323.583  26
  -3  -6  -9 4049.88 250.394  12
  -3  -6  -9 3594.87 269.794  26
  -3  -6 -10 1730.44 127.262  12
  -3  -6 -10 1906.32 154.939  26
  -3  -7  12 6913.17 337.342  19
  -3  -7  12 7020.41 329.848   5
  -3  -7  11 3237.94 246.898  19
  -3  -7  11 3029.50 219.918   5
   3   7 -11 2686.52 197.506  37
  -3  -7  11 2710.32 283.735  25
  -3  -7  10 81.2404 124.272   5
  -3  -7  10 5.79258 124.915  18
  -3  -7  10 129.931 189.957  25
  -3  -7   9 247.727 142.383   5
  -3  -7   9 330.612 149.675  18
  -3  -7   9 309.383 228.731  25
  -3  -7   8 875.302 172.758   5
  -3  -7   8 854.247 197.955  18
  -3  -7   8 823.003 283.100  25
  -3  -7   7 727.248 192.213  18
  -3  -7   7 546.313 161.688   5
  -3  -7   7 559.005 114.726  32
  -3  -7   7 623.423 270.801  25
  -3  -7   6 52565.9 2245.98  18
  -3  -7   6 51915.7 2200.65  16
  -3  -7   6 50707.0 2147.97   5
  -3  -7   6 52982.4 2529.12  33
  -3  -7   6 54956.0 2148.19  32
  -3  -7   6 46423.3 2200.48  21
  -3  -7   5 1718.58 251.222  19
  -3  -7   5 1824.60 252.688  18
  -3  -7   5 2063.59 242.598  16
  -3  -7   5 1826.80 199.974   5
  -3  -7   5 1805.87 372.857  33
  -3  -7   5 2010.44 202.737  32
  -3  -7   5 1900.16 253.259  21
  -3  -7   5 1906.41 341.773  25
  -3  -7   4 4393.02 357.155  18
  -3  -7   4 3837.03 337.396  16
  -3  -7   4 4918.63 570.830  33
  -3  -7   4 4174.11 300.542  32
  -3  -7   4 3600.82 337.294  21
  -3  -7   4 3890.11 423.734  25
  -3  -7   3 947.801 197.500  16
  -3  -7   3 1097.36 208.624  18
  -3  -7   3 863.707 327.676  33
  -3  -7   3 805.065 163.193  32
  -3  -7   3 947.947 208.426  21
  -3  -7   3 1071.05 267.128  25
  -3  -7   2 7128.82 455.204  19
  -3  -7   2 7750.41 484.501  18
  -3  -7   2 7083.49 479.113  16
  -3  -7   2 7842.49 724.505  33
  -3  -7   2 7117.23 434.996  32
  -3  -7   2 7511.05 490.436  21
  -3  -7   2 7877.97 553.484  25
  -3  -7   1 2118.82 234.348  19
  -3  -7   1 2551.18 276.480  16
  -3  -7   1 2127.93 265.306  21
  -3  -7   1 2566.16 310.775  25
  -3  -7   0 8216.84 451.374  12
  -3  -7   0 9203.00 799.868  33
  -3  -7   0 9946.47 512.500  32
  -3  -7   0 9629.41 561.904  21
  -3  -7   0 9984.27 587.759  25
  -3  -7   0 8443.56 461.124  27
  -3  -7  -1 41360.8 1844.10  12
  -3  -7  -1 41543.6 1814.72  11
  -3  -7  -1 45200.4 1943.23  16
  -3  -7  -1 49836.8 2331.91  33
  -3  -7  -1 49427.1 1888.11  32
  -3  -7  -1 43016.5 1828.59  27
  -3  -7  -1 46195.8 1957.58  25
  -3  -7  -1 45601.3 1948.67  21
  -3  -7  -2 19685.2 920.525  12
  -3  -7  -2 18794.7 872.840  11
  -3  -7  -2 19917.1 939.320  17
  -3  -7  -2 21109.2 1286.50  33
  -3  -7  -2 21205.5 921.055  32
  -3  -7  -2 20089.0 885.196  27
  -3  -7  -2 19402.5 981.181  25
  -3  -7  -3 211.278 134.087  12
  -3  -7  -3 344.864 127.616  11
  -3  -7  -3 272.915 180.839  17
  -3  -7  -3 408.868 253.902  33
  -3  -7  -3 272.840 109.786  32
  -3  -7  -3 431.357 656.657  21
  -3  -7  -3 268.155 139.693  26
  -3  -7  -3 390.781 125.873  27
  -3  -7  -3 286.168 173.738  25
  -3  -7  -4 2772.61 254.321  12
  -3  -7  -4 2411.72 211.389  11
  -3  -7  -4 2291.05 264.834  17
  -3  -7  -4 2081.76 238.236  26
  -3  -7  -4 2060.74 295.923  25
  -3  -7  -5 4037.66 267.913  11
  -3  -7  -5 3808.36 268.418  13
  -3  -7  -5 3522.69 293.978  17
  -3  -7  -5 4148.79 306.647  12
  -3  -7  -5 3871.35 309.337  26
  -3  -7  -6 155.707 109.507  13
  -3  -7  -6 143.774 140.751  26
  -3  -7  -7 8555.15 421.849  13
  -3  -7  -7 9514.24 481.713  12
  -3  -7  -7 8408.63 480.512  26
  -3  -7  -8 9801.30 463.175  12
  -3  -7  -8 8375.44 461.490  26
  -3  -7  -9 4985.22 263.068  12
   3   8 -11 831.521 109.468  37
  -3  -8  11 948.171 153.438  25
  -3  -8  10-5.72411 121.187  19
  -3  -8  10-13.8720 108.817  18
  -3  -8  10-32.6865 97.7649   5
   3   8 -10 54.4232 92.3779  37
  -3  -8  10 29.5006 153.211  25
  -3  -8   9 2114.66 196.126   5
  -3  -8   9 2596.35 260.041  19
  -3  -8   9 2773.83 253.866  18
  -3  -8   9 2795.14 318.891  25
  -3  -8   8 1104.28 159.431   5
  -3  -8   8 1332.75 219.648  18
  -3  -8   8 1249.29 215.806  19
  -3  -8   8 1301.90 269.625  25
  -3  -8   7 6865.81 448.758  19
  -3  -8   7 5141.41 416.133  18
  -3  -8   7 5948.57 334.709  32
  -3  -8   7 6031.88 406.874  21
  -3  -8   7 5768.63 504.240  25
  -3  -8   6 1963.03 256.512  19
  -3  -8   6 1891.59 266.667  18
  -3  -8   6 1851.82 234.427  16
  -3  -8   6 1684.78 380.042  33
  -3  -8   6 1939.75 186.303  32
  -3  -8   6 1592.95 233.417  21
  -3  -8   5 2256.23 290.851  18
  -3  -8   5 2037.31 266.609  16
  -3  -8   5 2771.71 438.822  33
  -3  -8   5 2481.06 222.851  32
  -3  -8   5 2407.63 283.702  21
  -3  -8   5 2748.38 371.358  25
  -3  -8   4 3802.70 355.921  18
  -3  -8   4 4115.28 352.343  16
  -3  -8   4 3594.25 533.798  33
  -3  -8   4 4128.06 302.788  32
  -3  -8   4 4023.55 361.398  21
  -3  -8   4 3573.95 412.741  25
  -3  -8   3 242.931 184.601  16
  -3  -8   3 382.797 181.744  19
  -3  -8   3 564.730 194.675  18
  -3  -8   3 500.397 312.988  33
  -3  -8   3 510.393 157.799  32
  -3  -8   3 522.608 195.743  21
  -3  -8   3 588.667 251.003  25
  -3  -8   2 1335.80 237.328  16
  -3  -8   2 1174.77 199.774  19
  -3  -8   2 1312.89 384.940  33
  -3  -8   2 1233.49 189.606  32
  -3  -8   2 824.995 147.976  27
  -3  -8   2 1235.49 232.325  21
  -3  -8   2 1331.57 272.370  25
  -3  -8   1 1474.43 242.024  16
  -3  -8   1 975.989 187.506  19
  -3  -8   1 1181.52 355.474  33
  -3  -8   1 1305.51 245.301  21
  -3  -8   1 1344.82 266.501  25
  -3  -8   1 1132.25 153.309  27
  -3  -8   0 133.135 273.622  33
  -3  -8   0 69.6090 133.761  32
  -3  -8   0 104.595 110.487  27
  -3  -8   0 155.047 187.485  21
  -3  -8   0 124.891 199.350  25
  -3  -8  -1 46628.4 2004.19  11
  -3  -8  -1 48676.6 2093.69  17
  -3  -8  -1 47960.9 2045.42  12
  -3  -8  -1 52854.2 2562.02  33
  -3  -8  -1 53418.9 2083.09  32
  -3  -8  -1 48918.7 2024.59  27
  -3  -8  -1 52806.2 2174.59  25
  -3  -8  -1 51559.7 2171.89  21
  -3  -8  -2 63213.8 2652.01  11
  -3  -8  -2 64303.9 2722.46  17
  -3  -8  -2 63719.0 2698.84  12
  -3  -8  -2 67957.4 3152.78  33
  -3  -8  -2 66701.4 2666.51  27
  -3  -8  -2 68922.9 2703.51  32
  -3  -8  -2 69944.9 2801.41  25
  -3  -8  -3 10276.2 499.714  11
  -3  -8  -3 9826.19 551.168  17
  -3  -8  -3 10936.3 552.057  12
  -3  -8  -3 10624.1 603.536  25
  -3  -8  -4 3247.12 223.983  11
  -3  -8  -4 3466.21 253.479  13
  -3  -8  -4 3009.24 280.252  17
  -3  -8  -4 3530.72 266.801  12
  -3  -8  -5 2377.44 196.105  13
  -3  -8  -5 2601.06 223.071  12
  -3  -8  -6 1116.18 134.121  13
  -3  -8  -6 1054.06 154.624  12
  -3  -8  -7 6353.64 309.902  13
  -3  -8  -8 2837.94 176.955  12
  -3  -9  11 1269.21 112.031  19
  -3  -9  10 239.869 102.178  19
  -3  -9  10 192.903 112.742  25
  -3  -9   9 85.5958 119.267  19
  -3  -9   9 126.676 106.797  18
  -3  -9   9 112.399 147.917  25
  -3  -9   8 3035.49 271.190  19
  -3  -9   8 3420.80 275.116  18
  -3  -9   8 2676.83 298.589  25
  -3  -9   7 2997.30 287.121  19
  -3  -9   7 2705.77 280.023  18
  -3  -9   7 2965.13 254.625  21
  -3  -9   7 2699.40 328.578  25
  -3  -9   6 5444.85 406.374  18
  -3  -9   6 5853.69 414.406  16
  -3  -9   6 5108.41 380.635  21
  -3  -9   5 35487.0 1548.98  18
  -3  -9   5 35709.6 1528.33  16
  -3  -9   5 33476.5 1446.45  32
  -3  -9   5 31050.3 1513.86  21
  -3  -9   4 24230.2 1024.44  19
  -3  -9   4 26143.6 1071.98  18
  -3  -9   4 22943.8 1043.66  16
  -3  -9   4 23053.4 954.624  32
  -3  -9   4 22996.2 1045.30  21
  -3  -9   4 23322.0 1107.53  25
  -3  -9   3 912.366 225.510  16
  -3  -9   3 888.050 188.889  19
  -3  -9   3 780.883 155.344  32
  -3  -9   3 771.868 211.102  21
  -3  -9   3 442.202 108.443  27
  -3  -9   3 750.986 254.282  25
  -3  -9   2 9452.20 501.847  19
  -3  -9   2 8886.58 555.052  16
  -3  -9   2 8205.98 458.365  32
  -3  -9   2 8493.63 576.996  25
  -3  -9   2 8840.70 547.107  21
  -3  -9   1 9162.68 598.865  16
  -3  -9   1 7721.78 415.308  27
  -3  -9   1 9177.80 484.429  32
  -3  -9   1 9285.23 580.917  25
  -3  -9   1 9693.41 569.436  21
  -3  -9   0 14261.9 686.106  27
  -3  -9   0 16910.3 757.378  32
  -3  -9   0 17167.7 852.731  25
  -3  -9   0 16775.7 846.338  21
  -3  -9  -1 12092.3 632.727  17
  -3  -9  -1 11346.3 555.495  27
  -3  -9  -1 13602.0 614.619  32
  -3  -9  -1 13308.1 701.568  25
  -3  -9  -2 11067.9 563.513  17
  -3  -9  -2 10136.5 525.767  12
  -3  -9  -2 11963.6 626.476  25
  -3  -9  -3 2463.39 201.194  13
  -3  -9  -3 1976.58 221.505  17
  -3  -9  -3 1889.66 186.152  12
  -3  -9  -3 1970.04 315.846  25
  -3  -9  -4 2786.64 200.617  13
  -3  -9  -4 2136.53 203.389  17
  -3  -9  -4 2372.98 197.036  12
  -3  -9  -5 3609.16 220.033  13
  -3  -9  -5 3288.79 225.347  12
  -3  -9  -6 1187.96 112.765  13
  -3  -9  -6 1097.16 120.318  12
  -3 -10   9 66.1834 77.3503  19
  -3 -10   9 34.0501 88.4350  25
  -3 -10   8 7154.08 415.744  25
  -3 -10   7 14536.9 733.137  25
  -3 -10   7 14342.1 661.925  21
  -3 -10   6 15606.5 715.275  19
  -3 -10   6 13472.8 696.093  21
  -3 -10   5 5720.05 352.731  19
  -3 -10   5 4373.85 340.399  21
  -3 -10   4 12102.1 596.814  19
  -3 -10   4 10314.4 610.384  21
  -3 -10   4 11575.5 660.643  25
  -3 -10   3 196.900 162.346  21
  -3 -10   3 140.912 189.633  25
  -3 -10   2 165.896 89.6851  13
  -3 -10   2 239.933 176.312  21
  -3 -10   2 138.180 181.830  25
  -3 -10   1 12268.7 614.761  17
  -3 -10   1 11203.2 543.851  13
  -3 -10   1 12529.9 671.499  25
  -3 -10   1 12158.7 675.241  21
  -3 -10   0 7832.58 404.132  13
  -3 -10   0 7936.86 449.038  17
  -3 -10   0 8523.75 501.498  25
  -3 -10   0 8802.73 642.561  21
  -3 -10  -1 12310.4 575.289  13
  -3 -10  -1 12141.0 599.428  17
  -3 -10  -1 13143.6 660.528  25
  -3 -10  -2 6197.50 320.003  13
  -3 -10  -2 5279.36 330.711  17
  -3 -10  -2 6304.63 422.559  25
  -3 -10  -4 2369.51 162.268  13
  -3 -10  -5 123.343 57.7148  13
  -3 -11   7 2717.39 198.143  25
  -3 -11   6 4255.49 277.812  25
  -3 -11   6 3764.51 252.209  21
  -3 -11   5 8492.10 445.016  21
  -3 -11   4 5407.91 348.926  25
  -3 -11   4 5238.06 345.377  21
  -3 -11   3 364.072 223.795  21
  -3 -11   3 268.327 137.503  25
  -3 -11   2 1112.15 159.725  17
  -3 -11   2 1027.27 353.665  21
  -3 -11   2 1277.35 180.079  25
  -3 -11   1 540.747 128.261  17
  -3 -11   1 593.489 147.956  25
  -3 -11   0 8675.05 376.503  13
  -3 -11   0 7416.36 397.764  17
  -3 -11   0 8437.50 445.394  25
  -3 -11  -1 6432.78 288.579  13
  -3 -11  -1 5287.38 290.654  17
  -3 -11  -1 6116.06 416.684  25
  -3 -11  -2 7508.70 341.388  13
   4 -11  -3 1068.39 100.517  22
   4 -11  -2 52.4329 80.5910  22
   4 -11  -1 2869.11 238.840  15
   4 -11  -1 3315.13 214.527  22
   4 -11   0 733.502 139.164  16
   4 -11   1 4367.27 310.423  15
   4 -11   1 4099.86 301.794  16
   4 -11   1 4845.82 273.799  22
   4 -11   2 2584.97 224.525  15
   4 -11   2 2357.22 205.106  21
   4 -11   2 2556.82 187.780  22
   4 -11   3 2616.41 216.213  15
   4 -11   3 2363.73 220.103  16
   4 -11   3 2496.78 211.630  21
   4 -11   4 1495.45 177.935  16
   4 -11   4 2001.41 185.296  21
   4 -11   5 36.1886 85.5904  16
   4 -11   5-76.0468 94.9979  21
   4 -11   6 2048.55 162.050  21
   4 -10  -6 4858.99 268.665  24
   4 -10  -5 5380.87 301.067  23
   4 -10  -5 5617.48 320.266  24
   4 -10  -4 391.970 131.745  24
   4 -10  -4 289.540 96.8784  22
   4 -10  -4 267.872 117.575  23
   4 -10  -3 271.134 123.034  15
   4 -10  -3 303.495 140.667  24
   4 -10  -3 304.291 121.532  22
   4 -10  -3 194.858 127.396  23
   4 -10  -2 629.125 169.163  15
   4 -10  -2 501.455 137.832  22
   4 -10  -1 1021.93 198.893  15
   4 -10   0 13635.7 668.063  22
   4 -10   1 7537.75 496.338  15
   4 -10   1 7437.26 471.466  21
   4 -10   1 8875.55 458.572  22
   4 -10   2 349.439 170.767  15
   4 -10   2 182.684 128.738  22
   4 -10   2 166.211 154.124  21
   4 -10   3 897.645 182.627  15
   4 -10   3 820.928 199.833  20
   4 -10   3 961.986 148.408  22
   4 -10   3 803.508 186.304  21
   4 -10   4 3679.88 296.721  15
   4 -10   4 4208.68 332.260  21
   4 -10   4 3990.20 325.781  20
   4 -10   5 1341.67 163.073  15
   4 -10   5 1281.41 203.997  21
   4 -10   6 86.5928 99.8149  18
   4 -10   7 3004.41 203.349  18
   4 -10   7 2418.93 183.305  16
   4 -10   8 3367.73 221.852  21
   4  -9  -8 538.137 94.4321  14
   4  -9  -7 2761.49 212.806  14
   4  -9  -7 2333.92 181.762  23
   4  -9  -6 8370.57 472.065  14
   4  -9  -6 8418.74 445.398  23
   4  -9  -5 6496.07 382.218  23
   4  -9  -5 5845.82 351.704  22
   4  -9  -4 1763.78 208.660  15
   4  -9  -4 2151.17 211.664  22
   4  -9  -4 2028.70 226.185  23
   4  -9  -3 56.1162 148.523  15
   4  -9  -3 236.957 155.527  14
   4  -9  -3 188.657 143.087  22
   4  -9  -2 306.658 182.395  15
   4  -9  -2 550.358 172.575  14
   4  -9  -2 705.037 176.026  22
   4  -9  -1 3156.25 335.243  15
   4  -9  -1 2968.20 281.840  21
   4  -9  -1 4160.02 317.578  23
   4  -9  -1 3958.06 339.229  20
   4  -9   0 6119.52 407.467  23
   4  -9   0 5258.12 406.061  21
   4  -9   0 6336.69 450.081  20
   4  -9   0 5339.96 511.455  25
   4  -9   0 6211.64 400.184  22
   4  -9   1 14197.3 811.296  15
   4  -9   1 15951.0 826.601  20
   4  -9   1 15812.1 812.263  21
   4  -9   1 16782.2 763.675  22
   4  -9   2 13966.4 788.973  15
   4  -9   2 14535.0 801.692  21
   4  -9   2 14904.4 725.425  22
   4  -9   3 17793.8 863.732   6
   4  -9   3 18428.5 903.671  15
   4  -9   3 15047.6 837.737  18
   4  -9   3 18813.2 936.865  21
   4  -9   3 17968.3 827.073  22
   4  -9   3 17438.6 908.747  20
   4  -9   4 2268.04 265.764  15
   4  -9   4 1916.86 237.380  18
   4  -9   4 2503.43 296.325  20
   4  -9   4 2629.15 311.809  21
   4  -9   4 2595.20 225.222  22
   4  -9   5 71.2530 175.237   6
   4  -9   5 60.5684 134.023  15
   4  -9   5 86.3010 173.517  20
   4  -9   5 171.630 145.047  18
   4  -9   5 9.21213 175.998  21
   4  -9   6 1490.52 212.150  20
   4  -9   7 7409.78 473.483  21
   4  -9   8 5269.69 341.583  18
   4  -9   8 5973.97 373.010  21
   4  -9   9 2052.27 173.665  18
   4  -9   9 1939.23 179.743  21
   4  -8  -9 807.571 119.036  14
   4  -8  -8 3468.41 260.181  14
   4  -8  -8 3213.75 238.331  23
   4  -8  -7 8191.31 479.498  14
   4  -8  -7 8111.72 458.517  23
   4  -8  -6 28374.2 1256.26  14
   4  -8  -6 25570.1 1180.37  22
   4  -8  -6 28084.4 1231.19  23
   4  -8  -5 5557.10 399.786  14
   4  -8  -5 4964.70 357.816  22
   4  -8  -5 5791.13 388.975  23
   4  -8  -4 8491.31 525.523  15
   4  -8  -4 8915.53 518.963  22
   4  -8  -3 882.980 394.403  29
   4  -8  -3 662.052 183.778  22
   4  -8  -2 4587.97 376.092  14
   4  -8  -2 4649.03 721.649  29
   4  -8  -2 4910.78 382.617  20
   4  -8  -2 4239.08 635.039  25
   4  -8  -2 4827.91 370.018  23
   4  -8  -1 7293.65 480.194  14
   4  -8  -1 7422.47 874.979  29
   4  -8  -1 7382.38 464.402  22
   4  -8  -1 7792.43 472.955  23
   4  -8  -1 6726.10 456.945  21
   4  -8  -1 6197.71 522.056  25
   4  -8  -1 7514.82 496.912  20
   4  -8   0 5141.03 361.840   6
   4  -8   0 5171.75 422.264  20
   4  -8   0 5371.06 376.258  22
   4  -8   0 5445.86 385.277  23
   4  -8   0 4772.98 396.453  21
   4  -8   0 4792.70 381.844  25
   4  -8   1 41201.3 1857.15  20
   4  -8   1 41620.4 1784.60   6
   4  -8   1 35122.4 2327.17  29
   4  -8   1 42505.5 1795.75  22
   4  -8   1 42617.7 1810.77  23
   4  -8   1 40000.7 1849.56  21
   4  -8   2 29789.6 1469.39  18
   4  -8   2 34275.3 1480.49   6
   4  -8   2 28607.5 2025.31  29
   4  -8   2 35741.8 1568.09  21
   4  -8   2 35535.5 1478.05  22
   4  -8   3 5908.62 471.401  20
   4  -8   3 6549.74 440.771   6
   4  -8   3 6039.22 418.841   8
   4  -8   3 5773.05 798.844  29
   4  -8   3 4596.78 672.875  30
   4  -8   3 6349.35 495.700  21
   4  -8   3 6899.23 404.516  22
   4  -8   4 485.734 210.354  20
   4  -8   4 445.710 176.192   8
   4  -8   4 610.089 351.711  29
   4  -8   4 120.855 294.144  30
   4  -8   4 410.461 141.554  22
   4  -8   4 629.598 227.494  21
   4  -8   5 996.897 208.031   8
   4  -8   5 1351.83 233.193   6
   4  -8   5 878.348 186.772  15
   4  -8   5 1116.00 229.333  20
   4  -8   5 1037.16 156.662  22
   4  -8   6 2765.96 286.585   8
   4  -8   6 3343.08 296.023   6
   4  -8   6 3150.91 304.381  20
   4  -8   7 7192.63 443.982   8
   4  -8   7 6967.42 432.713   6
   4  -8   7 7367.08 503.570  21
   4  -8   7 6612.71 436.089  20
   4  -8   8 5266.65 395.661  21
   4  -8   9 2014.78 223.384  21
   4  -8  10 427.101 104.780  21
   4  -7 -10 37.5352 79.5297  14
   4  -7 -10-12.7961 74.1717  23
   4  -7  -9 1713.73 189.505  14
   4  -7  -9 1570.25 200.871  24
   4  -7  -9 1370.03 172.195  23
   4  -7  -8 12432.6 671.641  14
   4  -7  -8 13760.0 693.518  24
   4  -7  -8 12636.8 662.881  23
   4  -7  -7 32916.2 1491.42  14
   4  -7  -7 33397.9 1470.92  12
   4  -7  -7 36146.2 1513.80  24
   4  -7  -7 35458.3 1495.53  23
   4  -7  -6 8418.26 532.704  14
   4  -7  -6 8185.94 509.309  12
   4  -7  -6 9389.46 553.666  24
   4  -7  -6 8220.78 499.174  22
   4  -7  -6 8563.97 528.783  23
   4  -7  -5 7584.25 498.521  14
   4  -7  -5 7918.07 483.066  12
   4  -7  -5 8675.98 521.455  24
   4  -7  -5 7982.52 484.282  22
   4  -7  -4 7058.17 477.512  14
   4  -7  -4 6081.53 769.483  29
   4  -7  -4 6999.29 472.953  24
   4  -7  -4 7327.49 465.518  22
   4  -7  -3 4470.75 368.146  14
   4  -7  -3 4181.08 342.226  12
   4  -7  -3 4703.46 675.725  29
   4  -7  -3 4857.89 373.184  24
   4  -7  -3 4780.86 363.436  22
   4  -7  -3 5370.72 379.814  23
   4  -7  -3 4186.23 336.114  20
   4  -7  -2 16517.2 868.117  20
   4  -7  -2 15206.0 1287.93  29
   4  -7  -2 17953.0 877.827  24
   4  -7  -2 17090.6 939.157  25
   4  -7  -2 18647.8 881.739  23
   4  -7  -1 14377.2 739.108  14
   4  -7  -1 13804.0 744.810  20
   4  -7  -1 13431.1 676.293   6
   4  -7  -1 13530.0 1163.55  29
   4  -7  -1 14469.1 727.086  22
   4  -7  -1 15073.7 734.343  23
   4  -7  -1 13296.1 721.067  21
   4  -7  -1 12664.4 719.825  25
   4  -7  -1 13710.8 726.174  24
   4  -7   0 22504.7 1040.63   6
   4  -7   0 23799.8 1097.91  14
   4  -7   0 23575.3 1120.28  20
   4  -7   0 24441.8 1080.53  22
   4  -7   0 20900.2 1053.15  25
   4  -7   0 23648.3 1075.21  23
   4  -7   0 22163.4 1102.08  21
   4  -7   0 23331.2 1090.15  24
   4  -7   1 28693.5 1297.97  20
   4  -7   1 29243.2 1228.13   6
   4  -7   1 25456.3 1206.22   8
   4  -7   1 23931.5 1693.55  29
   4  -7   1 21207.0 1490.03  30
   4  -7   1 28461.4 1241.32  22
   4  -7   1 28827.9 1252.05  23
   4  -7   1 27301.1 1295.81  21
   4  -7   1 27937.1 1269.24  24
   4  -7   2 6410.36 419.389   8
   4  -7   2 7060.30 430.590   6
   4  -7   2 5953.11 764.009  29
   4  -7   2 5462.85 664.964  30
   4  -7   2 7202.10 425.809  22
   4  -7   2 6499.85 487.682  21
   4  -7   2 7267.34 441.245  23
   4  -7   3 422.776 203.593  20
   4  -7   3 333.639 166.994   8
   4  -7   3 361.766 369.409  29
   4  -7   3 434.056 312.961  30
   4  -7   3 421.513 144.581  22
   4  -7   4 583.930 214.281  20
   4  -7   4 611.515 181.173   8
   4  -7   4 454.181 180.737   6
   4  -7   4 254.692 318.903  29
   4  -7   4 250.946 299.377  30
   4  -7   4 416.032 136.777  22
   4  -7   5 3452.29 338.570  20
   4  -7   5 3862.29 317.245   6
   4  -7   5 3551.47 315.132   8
   4  -7   5 3289.85 251.684  22
   4  -7   6 3561.95 340.193  20
   4  -7   6 2949.66 571.182  30
   4  -7   6 3565.04 313.411   6
   4  -7   6 3839.12 327.732   8
   4  -7   7 1208.86 206.268   6
   4  -7   7 1195.27 199.851  20
   4  -7   8 1749.28 220.227   6
   4  -7   9 4719.52 332.818   8
   4  -7  10 735.980 143.999   8
   4  -7  10 486.839 139.429  21
   4  -7  11 950.266 118.740   8
   4  -6 -11-19.9437 64.3047  14
   4  -6 -11 143.786 97.8203  24
   4  -6 -11 72.5666 70.0595  23
   4  -6 -10 1087.54 162.630  14
   4  -6 -10 1328.51 187.676  24
   4  -6 -10 1434.61 176.056  23
   4  -6  -9 1244.04 194.434  14
   4  -6  -9 1193.29 216.787  24
   4  -6  -9 1617.22 214.640  23
   4  -6  -8 27504.7 1206.06  12
   4  -6  -8 28938.8 1264.79  24
   4  -6  -8 28701.6 1247.76  23
   4  -6  -7 4385.41 340.092  12
   4  -6  -7 4457.73 379.836  24
   4  -6  -7 4044.49 328.469  22
   4  -6  -7 4447.72 379.632  23
   4  -6  -6 7155.91 464.012  12
   4  -6  -6 8193.78 516.622  24
   4  -6  -6 7274.54 469.347  22
   4  -6  -5 4082.52 328.176  12
   4  -6  -5 3935.33 553.795  29
   4  -6  -5 4296.20 360.610  24
   4  -6  -5 3888.76 331.778  22
   4  -6  -4 3362.72 305.725  14
   4  -6  -4 3384.51 290.498  12
   4  -6  -4 3718.32 552.341  29
   4  -6  -4 3701.61 323.760  24
   4  -6  -4 3261.70 301.392  22
   4  -6  -4 3854.48 329.600  23
   4  -6  -3 918.295 183.985  14
   4  -6  -3 1175.08 168.290  13
   4  -6  -3 975.446 180.365  20
   4  -6  -3 767.871 379.387  29
   4  -6  -3 1117.24 197.110  24
   4  -6  -3 1164.71 196.408  22
   4  -6  -3 1210.25 200.733  23
   4  -6  -2 5756.83 381.993  14
   4  -6  -2 5547.50 382.509  20
   4  -6  -2 5227.90 356.229  12
   4  -6  -2 5635.88 699.309  29
   4  -6  -2 6058.51 392.264  24
   4  -6  -2 5706.64 379.210  23
   4  -6  -2 4615.88 425.758  25
   4  -6  -1 6282.09 363.173   6
   4  -6  -1 6763.17 431.534  20
   4  -6  -1 6402.87 412.324  24
   4  -6  -1 6886.45 414.748  22
   4  -6  -1 6935.54 414.003  23
   4  -6  -1 5516.75 396.137  25
   4  -6   0 30496.4 1272.85   6
   4  -6   0 29675.7 1310.19  22
   4  -6   0 31097.4 1314.32  23
   4  -6   0 28167.7 1331.30  21
   4  -6   0 30049.7 1323.82  24
   4  -6   1 5280.10 338.353   8
   4  -6   1 5829.82 348.924   6
   4  -6   1 5057.42 566.326  30
   4  -6   1 6794.39 725.324  29
   4  -6   1 6359.51 378.070  22
   4  -6   1 5961.66 370.276  23
   4  -6   1 5238.49 375.478  24
   4  -6   2 13863.7 696.297   8
   4  -6   2 13766.0 685.604   6
   4  -6   2 12525.0 995.092  30
   4  -6   2 14665.9 1123.35  29
   4  -6   2 15436.8 703.725  22
   4  -6   2 14684.8 708.728  23
   4  -6   3 1528.39 200.673   8
   4  -6   3 1718.18 458.491  29
   4  -6   3 1620.14 391.855  30
   4  -6   3 1524.41 181.890  22
   4  -6   4 112.637 146.535   6
   4  -6   4 205.420 155.514   8
   4  -6   4-27.7343 285.020  29
   4  -6   4 266.464 282.108  30
   4  -6   4 131.460 110.234  22
   4  -6   5 4207.07 657.583  30
   4  -6   5 5418.05 652.244  29
   4  -6   5 5805.97 376.280   6
   4  -6   5 5609.00 392.346   8
   4  -6   6 9620.44 568.549   8
   4  -6   6 10052.0 545.251   6
   4  -6   7 144.366 155.143   6
   4  -6   7 29.1216 142.934  20
   4  -6   8 9907.08 551.199   8
   4  -6   8 8634.25 503.266   6
   4  -6   9 5147.20 341.862   6
   4  -6   9 6868.60 407.552   8
   4  -6  10 6460.76 392.192   8
   4  -6  11 101.632 103.495   8
   4  -6  11 123.519 96.0387  21
   4  -5 -12 1718.68 162.397  24
   4  -5 -11 461.105 112.488  14
   4  -5 -11 480.182 155.186  24
   4  -5 -11 671.704 147.007  23
   4  -5 -10 68.9360 160.181  24
   4  -5 -10 111.322 142.710  23
   4  -5  -9 1930.03 225.714  12
   4  -5  -9 2605.46 291.547  24
   4  -5  -9 2495.95 281.761  23
   4  -5  -8 15974.4 749.339  12
   4  -5  -8 14946.8 796.051  24
   4  -5  -8 13036.8 720.629  22
   4  -5  -8 14806.2 761.350  26
   4  -5  -8 13585.6 799.602  23
   4  -5  -7 21427.0 994.646  12
   4  -5  -7 20561.3 1048.35  24
   4  -5  -7 20674.0 1004.38  22
   4  -5  -7 20536.2 1009.96  26
   4  -5  -6 11568.5 627.253  12
   4  -5  -6 11833.6 672.797  24
   4  -5  -6 12327.1 655.366  22
   4  -5  -6 11828.9 651.502  26
   4  -5  -5 76.8468 135.024  12
   4  -5  -5 23.2620 236.912  29
   4  -5  -5-73.6836 161.086  24
   4  -5  -5 83.9932 148.193  22
   4  -5  -5 65.0502 154.933  23
   4  -5  -4 29.7318 117.837  12
   4  -5  -4-75.0052 300.511  29
   4  -5  -4 7.45178 138.687  23
   4  -5  -4 51.9669 140.730  24
   4  -5  -4 66.2243 139.630  22
   4  -5  -3 1438.10 185.964  14
   4  -5  -3 1229.00 183.664   2
   4  -5  -3 1701.69 393.187  29
   4  -5  -3 1358.28 195.947  24
   4  -5  -3 1389.57 193.852  23
   4  -5  -2 1921.77 200.656  14
   4  -5  -2 1789.47 185.011  12
   4  -5  -2 1667.66 195.111   2
   4  -5  -2 1800.15 418.415  29
   4  -5  -2 1627.31 192.603  24
   4  -5  -2 1775.44 202.616  22
   4  -5  -2 1888.98 199.804  23
   4  -5  -1 28407.5 1244.58  14
   4  -5  -1 29919.6 1238.90  22
   4  -5   0 12080.0 802.156  30
   4  -5   1 4652.73 568.371  29
   4  -5   1 4096.56 483.592  30
   4  -5   2 24.3060 286.601  29
   4  -5   2 215.481 232.923  30
   4  -5   2 232.647 128.362   2
   4  -5   2 246.437 115.959   6
   4  -5   3 11128.1 917.645  30
   4  -5   3 14449.5 1006.47  29
   4  -5   3 13213.0 628.639   8
   4  -5   3 11683.7 608.508   2
   4  -5   4 18022.5 1205.86  29
   4  -5   4 18414.5 840.254   6
   4  -5   4 19549.0 878.577   8
   4  -5   5 1203.77 343.688  29
   4  -5   5 1498.04 228.120   8
   4  -5   5 1616.69 202.723   6
  -4   5  -6 30299.1 1344.34   3
   4  -5   6 32172.6 1356.42   6
   4  -5   7 35445.8 1501.66   9
   4  -5   7 38516.7 1558.79   6
   4  -5   8 5674.62 328.937   9
   4  -5   8 3942.93 679.205  30
   4  -5   8 7077.81 435.773   8
   4  -5   8 5358.35 359.610   6
   4  -5   9 6477.66 403.312   8
   4  -5   9 4998.65 314.705   9
   4  -5  10 147.247 141.397   8
   4  -5  10 145.872 116.793   9
   4  -5  11 24.5927 111.149   8
   4  -5  12 281.025 75.9670   8
   4  -4 -12 398.267 133.563  24
   4  -4 -12 239.983 115.477  23
   4  -4 -11 2161.20 244.410  24
   4  -4 -11 2079.01 233.049  23
   4  -4 -10 5484.94 415.120  24
   4  -4 -10 5438.30 412.558  23
   4  -4  -9 492.351 154.282  12
   4  -4  -9 394.554 200.460  24
   4  -4  -9 462.123 170.010  26
   4  -4  -9 418.036 140.648  22
   4  -4  -8 25530.7 1128.26  12
   4  -4  -8 22773.4 1185.83  24
   4  -4  -8 24768.9 1146.80  26
   4  -4  -7 19666.3 938.527  12
   4  -4  -7 19515.2 996.262  24
   4  -4  -7 20463.8 963.218  26
   4  -4  -6 6008.48 382.852  12
   4  -4  -6 5748.04 409.523  24
   4  -4  -6 6215.13 396.881  26
   4  -4  -5 6024.73 376.829  12
   4  -4  -5 5748.15 589.510  29
   4  -4  -5 6623.59 417.725  24
   4  -4  -5 6590.91 400.935  26
   4  -4  -4 2623.40 220.205  12
   4  -4  -4 2651.75 430.305  29
   4  -4  -4 2760.40 241.934  24
   4  -4  -3 4509.41 536.205  29
   4  -4  -2 25704.2 1462.33  29
   4  -4  -1 4015.87 378.220  30
   4  -4   0 226321. 9204.87  30
   4  -4   1 1828.62 331.553  30
   4  -4   1 2086.53 424.808  29
   4  -4   2 4797.91 546.578  30
   4  -4   2 8311.67 673.643  29
   4  -4   3 232.805 223.377  30
   4  -4   3 345.038 259.351  29
   4  -4   4 440.983 264.874  29
   4  -4   4 373.127 125.101   7
   4  -4   4 395.901 136.797   8
   4  -4   4 326.939 116.248   6
   4  -4   5 946.764 158.644   6
  -4   4  -5 1102.39 168.417   3
   4  -4   5 878.643 173.704   8
   4  -4   6 10452.3 996.430  30
  -4   4  -6 12085.7 604.476   3
   4  -4   6 11776.5 582.530   6
   4  -4   7 7676.70 399.372   9
   4  -4   7 6033.10 787.226  30
  -4   4  -7 6891.47 389.559  37
   4  -4   7 8475.37 487.855   8
   4  -4   7 7810.07 426.359   6
   4  -4   8 28026.9 1148.25   9
  -4   4  -8 25392.2 1142.28  37
   4  -4   8 24647.7 1158.00   6
   4  -4   9 4915.15 318.816   9
  -4   4  -9 4755.76 313.423  37
  -4   4  -9 5857.48 360.151   1
   4  -4   9 5706.49 389.254   8
   4  -4  10 7191.70 379.318   9
  -4   4 -10 7774.62 406.777   1
   4  -4  10 7280.30 436.048   8
  -4   4 -11 409.677 122.595   1
   4  -4  11 482.961 131.628   8
   4  -4  11 379.833 127.548   9
   4  -4  12 64.6243 73.9256   8
   4  -4  12-38.7053 80.6680   9
   4  -3 -13 853.037 128.026  24
   4  -3 -13 721.482 116.388  23
   4  -3 -12 906.378 174.941  24
   4  -3 -12 1130.58 184.995  23
   4  -3 -11 9204.71 555.793  24
   4  -3 -10 3849.35 356.656  24
   4  -3 -10 4292.34 308.126  26
   4  -3  -9 1504.96 252.585  24
   4  -3  -9 1438.21 211.654  26
   4  -3  -8 912.396 164.704  12
   4  -3  -8 1109.49 190.437  26
   4  -3  -7 9825.18 522.083  12
   4  -3  -7 9648.91 530.574  26
   4  -3  -6 36126.0 1515.30  12
   4  -3  -6 36519.1 1562.91  24
   4  -3  -6 35807.6 1527.45  26
   4  -3  -5 13457.9 892.154  29
   4  -3  -4 9671.15 745.281  29
   4  -3  -3 30661.7 1620.26  29
   4  -3  -2 3369.48 489.275  29
   4  -3  -2 3462.15 288.791  30
  -4   3   2 3994.83 343.662  28
  -4   3   1 86053.3 3561.14  28
   4  -3   0 167018. 6785.18  29
  -4   3   0 160608. 6529.92  28
   4  -3   1 65852.3 2993.31  29
   4  -3   2 28944.9 1524.72  29
   4  -3   3-207.191 258.604  29
   4  -3   4 5518.65 540.118  29
   4  -3   5 6730.78 700.290  30
   4  -3   5 5810.38 343.740   6
  -4   3  -5 6489.74 370.752   3
   4  -3   6 1384.40 405.791  30
  -4   3  -6 1373.06 155.069  37
   4  -3   6 1430.90 191.962   8
   4  -3   6 1156.84 161.301   6
  -4   3  -6 1555.43 202.123   3
   4  -3   7 33942.0 2122.47  30
  -4   3  -7 39015.8 1597.58  37
   4  -3   7 36530.7 1599.99   6
   4  -3   7 41326.6 1674.84   8
   4  -3   8 23813.0 1018.41   9
  -4   3  -8 22561.1 1024.74  37
   4  -3   8 25152.4 1100.00   8
   4  -3   9 732.485 165.119   9
  -4   3  -9 664.068 163.359  37
   4  -3   9 818.108 188.265   8
   4  -3  10 3000.82 238.961   9
  -4   3 -10 2749.76 240.434  37
  -4   3 -10 3187.28 270.798   1
   4  -3  10 2882.95 271.447   8
   4  -3  11 3.18171 125.957   9
  -4   3 -11 55.8339 119.781  37
  -4   3 -11-8.27567 135.045   1
   4  -3  11 104.904 124.621   8
   4  -3  12 74.5327 75.6685   8
   4  -3  12 87.6328 98.2149   9
   4  -2 -13 7173.28 400.745  24
   4  -2 -13 7407.61 415.119  23
  -4   2  12 96.4161 102.401   4
   4  -2 -12 172.538 142.877  24
  -4   2  11 124.739 124.584   4
   4  -2 -11 316.532 173.200  24
  -4   2  10 16680.1 773.960   4
  -4   2   9 5326.37 329.905   4
   4  -2  -6 16887.0 971.576  29
   4  -2  -5 1078.67 266.865  29
   4  -2  -4 6705.05 377.014  10
   4  -2  -4 6888.15 588.498  29
  -4   2   4 7397.65 457.451  36
   4  -2  -3 160.045 151.138  10
   4  -2  -3 347.307 241.266  29
  -4   2   3 112.198 177.104  36
   4  -2  -2 54351.2 2261.47  10
   4  -2  -1 20357.4 963.942  10
  -4   2   1 21287.4 1059.28  28
   4  -2   0 62905.7 2758.93  10
  -4   2   0 71485.7 2841.60  28
  -4   2  -1 54431.9 2357.66  28
   4  -2   2 72030.3 3178.68  29
   4  -2   3 28081.8 1445.44  29
  -4   2  -4 7931.79 382.387  37
   4  -2   4 8846.36 640.684  29
  -4   2  -5 6937.23 354.958  37
   4  -2   5 6744.86 381.479   7
  -4   2  -5 7114.50 399.638   3
   4  -2   6 47211.9 2454.99  30
  -4   2  -6 49183.2 1969.66  37
   4  -2   6 46552.8 1964.37   6
  -4   2  -6 48759.1 2018.45   3
   4  -2   7 15637.8 1253.42  30
  -4   2  -7 20027.4 837.530  37
   4  -2   7 16547.9 807.429   6
   4  -2   7 19959.8 883.096   8
  -4   2  -8 5726.41 356.759  37
   4  -2   8 5867.30 387.014   8
   4  -2   9 371.567 153.351   9
   4  -2   9 419.304 165.603   8
  -4   2  -9 142.659 169.312  37
  -4   2  -9 357.784 371.118  35
  -4   2 -10 2496.57 255.275   1
   4  -2  10 2140.08 230.789   8
  -4   2 -10 1927.53 223.752  37
   4  -2  11 298.386 127.781   8
  -4   2 -11 333.167 163.583   1
  -4   2 -11 246.345 141.047  37
   4  -2  12 2401.10 165.083   8
  -4   1  13 2159.81 163.508   4
   4  -1 -13 1453.19 185.563  24
  -4   1  12 1294.18 164.543   4
   4  -1 -12 1239.67 202.765  24
  -4   1  11 1168.72 184.556   4
   4  -1 -10 5459.51 321.045  37
   4  -1  -9 14628.7 661.452  37
   4  -1  -8 32979.2 1360.10  37
   4  -1  -7 17724.6 751.577  37
   4  -1  -6 25502.2 1309.44  29
   4  -1  -5 663.488 147.238  10
   4  -1  -4 900.667 190.722  10
  -4   1   4 959.574 218.642  36
   4  -1  -3 36813.4 1649.46  10
  -4   1   3 41196.2 1728.36  36
   4  -1  -2 58069.7 2425.61  10
   4  -1  -1 192.717 182.705  10
  -4   1   0 49386.7 2196.45  28
  -4   1  -1 2393.21 317.239  28
   4  -1   2 51310.3 2189.39  10
   4  -1   3 5858.76 434.283  10
  -4   1  -3 5490.59 286.899  37
   4  -1   4 12250.0 780.022  29
  -4   1  -4 12691.2 571.016  37
  -4   1  -5 29054.3 1225.06  37
  -4   1  -5 30279.3 1266.33   3
   4  -1   5 28100.2 1235.44   7
  -4   1  -6 5527.90 321.750  37
   4  -1   6 4786.95 288.555   6
  -4   1  -6 5416.21 349.665   3
   4  -1   7 10497.3 990.045  30
  -4   1  -7 13870.9 654.660  37
   4  -1   8 2270.43 484.973  30
  -4   1  -8 3633.91 295.912  37
  -4   1  -8 3597.59 721.848  35
   4  -1   8 3591.05 298.048   8
  -4   1  -9 1425.34 222.632  37
  -4   1  -9 1374.72 513.508  35
   4  -1   9 1391.22 222.105   8
  -4   1  -9 1643.43 248.660   1
   4  -1  10 4890.02 314.418   9
  -4   1 -10 4814.48 339.129  37
   4  -1  10 4227.46 320.921   8
  -4   1 -10 5306.23 364.447   1
   4  -1  11 988.139 160.392   9
  -4   1 -11 1017.02 170.581  37
  -4   1 -11 1238.78 198.300   1
   4  -1  11 831.978 141.209   8
   4  -1  12 506.244 112.466   9
  -4   0  14 1024.25 104.221   4
  -4   0  13 1924.92 174.572   4
   4   0 -13 1304.24 175.126  24
   4   0 -12-10.1889 75.9903  37
  -4   0  12 320.041 116.517   5
  -4   0  12 444.069 155.134   4
   4   0 -11 1572.03 178.706  37
  -4   0  11 1719.20 211.639   4
  -4   0  10 179.776 151.017   9
   4   0 -10 48.6077 123.561  37
  -4   0   9 6916.10 397.202   9
   4   0  -9 7266.80 374.912  37
  -4   0   8 9562.89 489.498   9
   4   0  -8 10174.7 468.441  37
  -4   0   6 25921.8 1287.94  31
  -4   0   5 27036.9 1349.96  31
  -4   0   3 3248.20 339.000  36
  -4   0   2 4381.10 383.020  36
  -4   0   1 70762.0 2993.49  36
  -4   0   0 72346.0 3121.34  28
   4   0   1 13719.5 734.513  10
  -4   0  -1 14775.9 831.573  28
   4   0   2 15769.5 803.475  10
   4   0   3 3390.30 325.554  10
  -4   0  -3 3555.92 222.107  37
   4   0   4 562.545 203.135  10
  -4   0  -4 539.984 134.166  37
  -4   0  -4 613.185 228.060  31
  -4   0  -5 174.650 133.298  37
  -4   0  -6 43615.0 1710.20  37
  -4   0  -6 46881.6 1957.39  36
  -4   0  -7 12961.3 613.266  11
  -4   0  -7 14916.8 692.005  37
  -4   0  -7 15600.4 1281.19  35
  -4   0  -8 20146.3 861.375  37
  -4   0  -8 17285.8 1454.48  35
  -4   0  -9 820.521 209.753  37
  -4   0  -9 202.737 424.588  35
   4   0   9 452.228 166.423   8
  -4   0  -9 881.720 225.736   1
   4   0  10 1587.95 195.004   9
  -4   0 -10 1656.65 229.585  37
  -4   0 -10 1912.90 252.153   1
   4   0  10 1211.22 184.501   8
   4   0  11 181.094 128.093   9
   4   0  11 198.811 100.098   8
  -4   0 -11 121.213 160.837   1
   4   0  12 3842.17 221.331   9
  -4  -1  14 2849.00 181.818   4
  -4  -1  13 497.029 113.089   5
  -4  -1  13 668.992 142.237   4
   4   1 -12 215.525 130.887  37
  -4  -1  12 502.189 160.927   4
   4   1 -11 1056.13 160.381  37
  -4  -1  11 1126.61 194.318   4
  -4  -1  10 665.241 183.290   9
   4   1 -10 623.870 143.856  37
  -4  -1   9 20467.4 963.753   9
   4   1  -9 22531.2 938.275  37
  -4  -1   8 27135.2 1169.98   9
  -4  -1   7 5653.89 326.378   9
  -4  -1   6 23051.5 1188.87  31
  -4  -1   5 2097.87 322.714  31
  -4  -1   4 9163.39 630.166  31
  -4  -1   4 7739.78 396.253  34
  -4  -1   3 11897.6 796.345  31
  -4  -1   3 14204.3 772.015  36
  -4  -1   2-102.176 223.825  36
  -4  -1   1 50247.9 2210.64  36
  -4  -1   0 10455.2 590.830  35
  -4  -1  -1 85652.4 3654.61  31
  -4  -1  -1 79486.1 3569.36  36
  -4  -1  -1 85978.3 3602.94  35
  -4  -1  -1 91756.4 3663.11  28
   4   1   2 69053.4 2767.23  10
  -4  -1  -2 73525.8 2921.12  31
  -4  -1  -2 64062.0 2823.22  36
  -4  -1  -2 63010.8 2630.06  34
  -4  -1  -2 65402.6 2915.04  35
   4   1   3 18065.1 854.667  10
  -4  -1  -3 16968.4 954.641  31
  -4  -1  -3 15768.1 727.813  37
  -4  -1  -3 15743.4 905.480  36
  -4  -1  -3 16295.2 1046.16  35
   4   1   4 25731.2 1211.95  10
  -4  -1  -4 26325.7 1300.61  36
  -4  -1  -4 25042.4 1100.89  37
  -4  -1  -4 25830.2 1288.82  31
  -4  -1  -4 27161.7 1532.18  35
  -4  -1  -5 40261.9 1729.11  11
  -4  -1  -5 48010.2 1985.79  36
  -4  -1  -5 44999.1 1777.68  37
  -4  -1  -5 49822.1 2377.58  35
  -4  -1  -5 39938.2 1777.57   3
  -4  -1  -6 29009.9 1192.38  37
  -4  -1  -6 31585.2 1826.86  35
  -4  -1  -7 20264.2 914.708  11
  -4  -1  -7 22292.3 994.690  37
  -4  -1  -8 5753.29 329.694  11
  -4  -1  -8 5657.23 854.972  35
  -4  -1  -8 6150.99 419.227  37
  -4  -1  -9 2081.52 214.205  12
  -4  -1  -9 3140.05 294.134  37
   4   1  10 265.717 143.137   9
   4   1  10 129.076 121.707   8
   4   1  11 889.089 137.769   9
   4   1  12 387.542 86.0086   9
  -4  -2  14 1643.70 131.405   5
  -4  -2  14 2641.03 163.752   4
   4   2 -13 4058.10 255.243  37
  -4  -2  13 4754.03 285.306   4
  -4  -2  13 4350.39 268.013   5
   4   2 -12 313.441 126.632  37
  -4  -2  12 382.134 164.761   4
   4   2 -11 1340.88 172.513  37
  -4  -2  11 1721.73 221.692   4
  -4  -2  10 20104.8 917.374   9
   4   2 -10 19564.7 874.233  37
  -4  -2   9 16035.7 763.701   9
  -4  -2   8 9354.75 492.291   9
  -4  -2   7 6880.56 379.884   9
  -4  -2   6 147.162 196.181  31
  -4  -2   5 1620.70 301.684  31
  -4  -2   5 1367.28 150.898  34
  -4  -2   4 8945.95 636.976  31
  -4  -2   4 7520.59 397.179  34
  -4  -2   3 922.682 310.094  31
  -4  -2   3 689.248 144.194  34
  -4  -2   2 129103. 5257.16  34
  -4  -2   2 152314. 5598.94  31
  -4  -2   1 76556.6 3347.29  31
  -4  -2   0 66249.3 2841.06  36
  -4  -2   0 62689.8 2640.04  34
  -4  -2  -1 3171.75 419.434  31
  -4  -2  -1 2500.97 350.280  36
  -4  -2  -1 3121.72 363.669  35
  -4  -2  -1 3392.41 398.048  28
  -4  -2  -1 2670.05 213.147  34
  -4  -2  -2 7066.62 582.610  31
  -4  -2  -2 6091.07 504.453  36
  -4  -2  -2 7405.41 599.938  35
  -4  -2  -2 6429.95 349.574  34
   4   2   3 17175.0 862.889  10
  -4  -2  -3 15731.6 957.791  31
  -4  -2  -3 16050.7 915.751  36
  -4  -2  -3 16566.7 1082.46  35
   4   2   4 14882.3 751.725  10
  -4  -2  -4 12584.7 604.653  27
  -4  -2  -4 14011.3 824.536  31
  -4  -2  -4 15852.1 834.657  36
  -4  -2  -4 15320.8 1072.68  35
  -4  -2  -5 13942.8 661.653  11
  -4  -2  -5 15126.9 716.551  37
  -4  -2  -6 24342.8 1079.15  11
  -4  -2  -6 26016.9 1146.12  37
  -4  -2  -7 17211.5 782.528  11
  -4  -2  -7 18621.4 1469.23  35
  -4  -2  -8 10772.6 531.238  11
  -4  -2  -8 9435.36 1106.26  35
  -4  -2  -8 11242.6 605.567   1
  -4  -2  -9 5792.40 380.623   1
  -4  -2  -9 4734.72 329.117  12
  -4  -2 -10-10.4455 163.511   1
   4   2  10 80.9063 108.265   8
  -4  -2 -10 100.122 88.1915  12
   4   2  10 90.1798 124.364   9
   4   2  11 300.099 105.886   9
  -4  -2 -12 525.914 91.2725  26
  -4  -3  14 1951.19 139.532   5
  -4  -3  13 1022.16 140.511   5
   4   3 -13 779.814 124.981  37
  -4  -3  12 809.837 164.562   5
   4   3 -12 696.752 137.915  37
   4   3 -11 10359.3 514.671  37
  -4  -3  10-35.0393 165.974   4
   4   3 -10 131.653 128.785  37
  -4  -3   9 13027.0 653.619   4
  -4  -3   8 14300.2 692.320   4
  -4  -3   7 25215.1 1103.13   4
  -4  -3   6 308.814 113.507   4
  -4  -3   6 406.293 235.635  31
  -4  -3   5 10344.0 732.032  31
  -4  -3   4 983.131 328.327  31
  -4  -3   3 11048.7 772.382  31
  -4  -3   3 10484.2 511.360  34
  -4  -3   2 19310.6 1090.25  31
  -4  -3   2 17000.6 777.582  34
  -4  -3   1 370487. 14868.7  28
  -4  -3   0 50025.7 2101.22  28
  -4  -3   0 46705.3 2108.38  31
  -4  -3  -1 20902.6 1218.47  31
  -4  -3  -1 23107.0 1210.86  28
  -4  -3  -2 1836.66 348.561  31
  -4  -3  -2 1548.83 342.858  35
   4   3   3 2752.04 317.062  10
  -4  -3  -3 2875.51 226.109  17
  -4  -3  -3 2803.72 393.605  31
  -4  -3  -3 2920.04 473.775  35
  -4  -3  -3 2827.33 196.693  27
  -4  -3  -4 12822.4 569.293  27
  -4  -3  -4 12621.2 1014.76  35
  -4  -3  -5 15159.6 685.504  11
  -4  -3  -5 14239.5 712.189  17
  -4  -3  -5 15018.6 1196.97  35
  -4  -3  -6 18573.3 836.304  11
  -4  -3  -6 18646.9 1441.37  35
  -4  -3  -7 20141.5 884.081  11
  -4  -3  -7 17743.5 1498.00  35
  -4  -3  -7 19359.2 925.809   1
  -4  -3  -8 5825.02 388.603   1
  -4  -3  -8 5286.96 378.639  12
  -4  -3  -8 6146.55 345.051  11
  -4  -3  -9 1683.63 215.815   1
  -4  -3  -9 1450.82 180.160  12
  -4  -3 -10 155.958 88.5764  12
   4   3  10 19.5598 103.705   9
  -4  -3 -11 2884.63 221.720  26
  -4  -4  14 1403.92 111.769   4
  -4  -4  14 1387.58 112.982   5
  -4  -4  13 3731.83 224.027   4
  -4  -4  13 3492.14 228.937   5
  -4  -4  12 3358.00 248.109   4
  -4  -4  12 3281.79 253.078   5
   4   4 -12 2794.72 217.941  37
  -4  -4  11 5803.78 369.033   5
  -4  -4  11 5600.05 349.314   4
   4   4 -11 4943.21 311.056  37
  -4  -4  10 17904.7 844.560   4
  -4  -4   9 5661.65 367.635   4
  -4  -4   8 7570.73 434.831   4
  -4  -4   7 28968.7 1255.47   4
  -4  -4   6 1603.20 175.117   4
  -4  -4   6 1415.85 330.065  33
  -4  -4   5 1523.38 169.759   5
  -4  -4   4 36210.7 1835.30  31
  -4  -4   3 5796.01 570.592  31
  -4  -4   2 33870.0 1818.71  28
  -4  -4   2 39578.0 1876.42  31
  -4  -4   1 36943.9 1838.86  28
  -4  -4   0 31282.0 1657.17  31
  -4  -4   0 31772.5 1592.51  28
  -4  -4  -1 39638.5 1887.82  28
  -4  -4  -1 37389.9 1925.08  31
  -4  -4  -2 526.241 142.379  17
  -4  -4  -2 264.657 355.583  21
  -4  -4  -2 659.891 121.540  27
   4   4   3 10.4605 193.112  10
  -4  -4  -3 79.0533 220.163  33
  -4  -4  -3 26.9950 96.9253  27
  -4  -4  -4 15724.9 727.633  11
  -4  -4  -4 15301.9 749.436  17
  -4  -4  -4 16112.6 716.934  27
  -4  -4  -5 2183.85 223.295   1
  -4  -4  -5 2799.65 223.816  11
  -4  -4  -5 2512.56 248.338  17
  -4  -4  -6 26758.4 1234.82   1
  -4  -4  -6 29749.5 1227.72  11
  -4  -4  -7 8077.29 470.776   1
  -4  -4  -7 8931.52 511.041  12
  -4  -4  -7 8408.22 448.768  11
  -4  -4  -8 1132.04 185.402   1
  -4  -4  -8 960.563 180.763  12
  -4  -4  -8 1062.22 160.593  11
  -4  -4  -9 671.572 136.305  12
   4   4   9 589.944 117.066   9
  -4  -4 -10 837.964 108.028  12
  -4  -5  13 1214.69 133.329   5
  -4  -5  13 1205.67 121.866   4
  -4  -5  13 926.986 169.185  25
   4   5 -12 157.999 107.889  37
  -4  -5  12 138.008 115.525   4
  -4  -5  12 145.114 124.809   5
  -4  -5  11 7907.60 462.095  19
   4   5 -11 8645.09 435.792  37
  -4  -5  11 9093.08 460.324   4
  -4  -5  10 11581.3 588.347   4
  -4  -5   9 8822.42 485.440   4
  -4  -5   8 6683.13 405.503   4
  -4  -5   8 7503.43 443.030   5
  -4  -5   7 30910.3 1388.44   4
  -4  -5   7 34494.2 1424.78   5
  -4  -5   6 11721.2 635.150  18
  -4  -5   6 11823.5 887.539  33
  -4  -5   6 12701.0 616.056   5
  -4  -5   6 11781.2 582.951   4
  -4  -5   5 6581.36 420.911  19
  -4  -5   5 6589.07 419.378  18
  -4  -5   5 7621.85 701.492  33
  -4  -5   5 6710.18 367.537   4
  -4  -5   5 7133.63 395.999   5
  -4  -5   4 9396.67 525.967  19
  -4  -5   4 9698.15 531.287  18
  -4  -5   4 9757.07 530.298  16
  -4  -5   4 11237.8 871.346  33
  -4  -5   4 9289.41 490.789   5
  -4  -5   3 50234.1 2068.51  19
  -4  -5   3 48640.3 2070.15  18
  -4  -5   3 50500.3 2082.37  16
  -4  -5   3 47074.0 2022.05   5
  -4  -5   3 51881.6 2427.60  28
  -4  -5   2 8441.58 466.805  19
  -4  -5   2 8196.23 469.867  18
  -4  -5   2 8390.15 485.292  16
  -4  -5   2 8603.21 687.130  28
  -4  -5   2 7833.27 530.669  25
  -4  -5   1 3958.81 283.015  19
  -4  -5   1 4038.91 317.911  16
  -4  -5   1 4165.03 456.785  28
  -4  -5   1 3670.63 295.835  21
  -4  -5   0 19914.5 1291.37  33
  -4  -5   0 21962.9 1137.66  28
  -4  -5   0 18115.9 909.007  21
  -4  -5  -1 2065.65 412.024  33
  -4  -5  -1 1876.77 272.209  21
  -4  -5  -2 275.305 275.829  33
  -4  -5  -2-61.6031 402.809  21
  -4  -5  -3 1028.19 309.190  33
  -4  -5  -4 12244.1 625.486  17
  -4  -5  -4 11696.3 576.228  27
  -4  -5  -5 18798.1 898.799  17
  -4  -5  -6 13108.3 680.780  12
  -4  -5  -6 12382.0 612.760  11
  -4  -5  -7 22439.1 1016.36  12
  -4  -5  -7 21033.8 952.785  11
  -4  -5  -8 1793.22 197.988  12
  -4  -5  -9 1620.88 159.978  12
  -4  -5  -9 1736.10 196.988  26
  -4  -5 -10 50.9294 58.4222  12
  -4  -5 -10 134.252 85.9844  26
  -4  -6  12 281.965 164.320  25
  -4  -6  11 3339.52 254.127  19
  -4  -6  11 3129.92 227.464   4
  -4  -6  11 3583.39 257.997   5
  -4  -6  10 6619.34 392.752  19
  -4  -6  10 5927.90 370.469   5
  -4  -6   9 15308.8 769.092   4
  -4  -6   9 16998.2 816.686   5
  -4  -6   8 163.759 138.585  18
  -4  -6   8 18.4993 131.935   4
  -4  -6   8 132.553 152.996   5
  -4  -6   7 13575.8 707.109  19
  -4  -6   7 11758.4 674.070  18
  -4  -6   7 12652.9 612.141  32
  -4  -6   7 12079.8 609.760   4
  -4  -6   7 13713.6 660.818   5
  -4  -6   6 477.795 175.687  19
  -4  -6   6 605.667 175.804  18
  -4  -6   6 469.849 255.391  33
  -4  -6   6 648.774 162.928   5
  -4  -6   6 260.230 129.114   4
  -4  -6   5 14788.4 763.706  19
  -4  -6   5 14819.3 765.949  18
  -4  -6   5 14496.0 756.889  16
  -4  -6   5 14924.7 715.334   5
  -4  -6   5 14821.9 1065.49  33
  -4  -6   4 7978.02 482.235  19
  -4  -6   4 8092.70 488.014  18
  -4  -6   4 7888.18 487.449  16
  -4  -6   4 8534.15 786.648  33
  -4  -6   4 7492.58 697.758  28
  -4  -6   4 7183.94 458.571  21
  -4  -6   4 8358.66 593.835  25
  -4  -6   3 13759.7 705.666  19
  -4  -6   3 14549.9 720.690  18
  -4  -6   3 12982.1 713.530  16
  -4  -6   3 14180.0 1056.20  33
  -4  -6   3 13468.1 944.991  28
  -4  -6   3 12936.5 702.361  21
  -4  -6   3 14216.5 808.092  25
  -4  -6   2 21038.1 989.564  19
  -4  -6   2 21007.7 1014.94  16
  -4  -6   2 22492.4 1402.93  33
  -4  -6   2 20662.1 1193.17  28
  -4  -6   2 20564.6 1000.50  21
  -4  -6   2 21677.7 1086.48  25
  -4  -6   1 29389.0 1327.47  16
  -4  -6   1 29032.0 1476.34  28
  -4  -6   1 27982.5 1349.96  25
  -4  -6   1 28851.0 1313.61  21
  -4  -6   0 14471.3 1061.44  33
  -4  -6   0 12947.3 714.954  25
  -4  -6   0 12448.9 691.791  21
  -4  -6  -1 26882.0 1572.14  33
  -4  -6  -1 26852.2 1128.00  27
  -4  -6  -1 25182.6 1194.77  25
  -4  -6  -1 23671.7 1209.59  21
  -4  -6  -2 27346.0 1147.42  27
  -4  -6  -2 27314.3 1567.89  33
  -4  -6  -2 25468.8 1202.92  25
  -4  -6  -2 24867.8 1332.00  21
  -4  -6  -3 1054.79 166.321  11
  -4  -6  -3 763.194 197.562  17
  -4  -6  -3 499.438 271.757  33
  -4  -6  -3 578.668 132.371  32
  -4  -6  -3 870.369 145.326  27
  -4  -6  -3 685.089 149.445  26
  -4  -6  -4 32147.9 1359.74  11
  -4  -6  -4 31180.2 1399.61  17
  -4  -6  -4 29030.0 1390.07  26
  -4  -6  -5 6849.44 372.130  11
  -4  -6  -5 6206.42 409.544  26
  -4  -6  -6 14660.6 656.849  13
  -4  -6  -6 13481.4 720.282  26
  -4  -6  -7 3513.84 214.431  13
  -4  -6  -7 3185.92 286.064  26
  -4  -6  -8 7185.33 377.988  12
  -4  -6  -8 6248.09 382.118  26
  -4  -6  -9 245.860 84.9837  12
  -4  -6  -9 264.053 92.3420  26
  -4  -7  12 983.500 155.939  25
  -4  -7  11 3099.56 223.800  19
  -4  -7  11 3006.58 215.875   5
   4   7 -11 2666.72 195.263  37
  -4  -7  11 3217.90 300.702  25
  -4  -7  10 7660.53 428.388   5
  -4  -7  10 8315.60 464.753  19
  -4  -7  10 7930.87 547.909  25
  -4  -7   9 3090.43 258.409   5
  -4  -7   9 3501.51 295.648  19
  -4  -7   9 3132.49 262.797  18
  -4  -7   8 2491.05 238.997   5
  -4  -7   8 2037.42 258.098  19
  -4  -7   8 2173.58 245.121  18
  -4  -7   7 1430.86 235.385  19
  -4  -7   7 1115.09 207.054  18
  -4  -7   7 1358.19 197.731   5
  -4  -7   7 1326.20 155.133  32
  -4  -7   7 1301.35 311.103  25
  -4  -7   6 14245.8 759.865  19
  -4  -7   6 14075.5 749.781  18
  -4  -7   6 13690.3 687.651   5
  -4  -7   6 13023.0 993.884  33
  -4  -7   6 13833.6 683.962  32
  -4  -7   6 14789.2 885.514  25
  -4  -7   5 3881.28 336.685  19
  -4  -7   5 3447.02 332.606  18
  -4  -7   5 3952.22 365.415  16
  -4  -7   5 4366.97 537.356  33
  -4  -7   5 3828.49 290.653  32
  -4  -7   5 3460.81 314.253  21
  -4  -7   5 3547.53 430.451  25
  -4  -7   4 7680.71 488.051  19
  -4  -7   4 7871.37 496.820  18
  -4  -7   4 7838.96 510.060  16
  -4  -7   4 7699.35 757.795  33
  -4  -7   4 7153.69 479.482  21
  -4  -7   4 7692.52 589.048  25
  -4  -7   3 23797.0 1105.43  19
  -4  -7   3 24044.8 1120.56  18
  -4  -7   3 22203.1 1121.28  16
  -4  -7   3 24512.1 1507.29  33
  -4  -7   3 21853.4 1105.37  21
  -4  -7   3 24727.2 1217.18  25
  -4  -7   2 16040.3 847.625  16
  -4  -7   2 15263.6 1155.16  33
  -4  -7   2 16152.2 889.552  25
  -4  -7   2 15578.7 819.464  21
  -4  -7   1 10654.8 574.906  19
  -4  -7   1 9965.18 650.847  16
  -4  -7   1 9953.45 887.173  33
  -4  -7   1 9829.34 625.519  25
  -4  -7   1 9781.94 596.759  21
  -4  -7   0 10500.9 552.669  12
  -4  -7   0 11707.4 576.585  27
  -4  -7   0 11838.1 670.999  25
  -4  -7   0 11708.1 664.326  21
  -4  -7  -1 4583.43 316.953  12
  -4  -7  -1 4745.70 305.000  11
  -4  -7  -1 5110.39 605.658  33
  -4  -7  -1 5056.57 343.324  32
  -4  -7  -1 5104.17 315.301  27
  -4  -7  -1 4897.35 380.762  25
  -4  -7  -1 4407.69 509.041  21
  -4  -7  -2 316.616 137.142  12
  -4  -7  -2 222.893 133.131  11
  -4  -7  -2 212.756 265.414  33
  -4  -7  -2 195.274 124.085  32
  -4  -7  -2 130.592 119.413  27
  -4  -7  -2 150.297 158.417  25
  -4  -7  -3 16748.4 787.475  12
  -4  -7  -3 16247.5 788.783  17
  -4  -7  -3 15948.6 735.140  11
  -4  -7  -3 14973.7 734.902  32
  -4  -7  -3 17033.1 742.589  27
  -4  -7  -3 15256.3 795.517  25
  -4  -7  -4 22870.9 975.816  12
  -4  -7  -4 22282.1 921.489  11
  -4  -7  -4 20461.1 956.485  17
  -4  -7  -5 43435.6 1657.24  11
  -4  -7  -5 35761.6 1670.06  17
  -4  -7  -5 44753.2 1715.37  12
  -4  -7  -5 35591.9 1668.50  26
  -4  -7  -6 15079.1 672.414  11
  -4  -7  -6 14518.7 660.669  13
  -4  -7  -7 2669.62 164.850  13
  -4  -7  -8 771.067 106.911  12
  -4  -8  11 2433.43 172.662  19
  -4  -8  11 2106.29 210.770  25
  -4  -8  10 7002.13 389.198  19
  -4  -8  10 6582.46 446.441  25
  -4  -8   9 16209.5 765.121  19
  -4  -8   9 14637.2 728.880  18
  -4  -8   9 16187.2 853.552  25
  -4  -8   8 5042.92 370.534  19
  -4  -8   8 5353.59 362.168  18
  -4  -8   7 2905.12 289.509  19
  -4  -8   7 2484.86 272.111  18
  -4  -8   7 2869.86 212.722  32
  -4  -8   7 3211.91 388.286  25
  -4  -8   6 13923.3 711.621  19
  -4  -8   6 12018.8 692.156  18
  -4  -8   6 12949.5 624.861  32
  -4  -8   6 12948.3 799.110  25
  -4  -8   6 11845.9 657.329  21
  -4  -8   5 6968.64 470.662  19
  -4  -8   5 6736.10 476.362  18
  -4  -8   5 7264.88 710.181  33
  -4  -8   5 6694.77 405.002  32
  -4  -8   5 5914.08 434.799  21
  -4  -8   5 7057.45 567.039  25
  -4  -8   4 8015.53 576.543  16
  -4  -8   4 7462.47 745.480  33
  -4  -8   4 8147.19 462.259  32
  -4  -8   4 8013.18 595.123  25
  -4  -8   4 7349.08 493.632  21
  -4  -8   3 7153.80 564.124  16
  -4  -8   3 7236.57 741.769  33
  -4  -8   3 7337.33 451.357  32
  -4  -8   3 7412.26 552.140  25
  -4  -8   3 7715.99 496.424  21
  -4  -8   2 20906.1 959.793  19
  -4  -8   2 20002.9 1046.12  16
  -4  -8   2 17359.2 881.447  27
  -4  -8   2 21656.8 1053.47  25
  -4  -8   2 20669.2 991.463  21
  -4  -8   1 19465.3 880.508  11
  -4  -8   1 20952.6 1366.07  33
  -4  -8   1 21519.7 971.022  32
  -4  -8   1 19801.3 915.172  27
  -4  -8   1 21937.2 1057.08  25
  -4  -8   1 21476.0 1030.07  21
  -4  -8   0 855.986 132.413  11
  -4  -8   0 742.159 316.759  33
  -4  -8   0 1172.75 175.887  32
  -4  -8   0 1200.98 333.298  21
  -4  -8   0 1023.11 148.703  27
  -4  -8   0 904.431 220.507  25
  -4  -8  -1 1718.80 162.662  11
  -4  -8  -1 1533.18 171.324  12
  -4  -8  -1 1541.75 189.366  32
  -4  -8  -1 1745.00 175.386  27
  -4  -8  -1 1367.63 612.830  21
  -4  -8  -1 1554.56 235.286  25
  -4  -8  -2 9064.30 446.328  11
  -4  -8  -2 8675.04 505.680  17
  -4  -8  -2 8220.45 467.570  12
  -4  -8  -2 9400.65 474.547  32
  -4  -8  -2 9502.93 457.556  27
  -4  -8  -2 8847.13 525.984  25
  -4  -8  -3 2979.62 208.343  11
  -4  -8  -3 2719.18 273.839  17
  -4  -8  -3 2817.66 230.190  12
  -4  -8  -3 2625.18 289.741  25
  -4  -8  -4 7574.70 386.643  11
  -4  -8  -4 7863.27 406.879  13
  -4  -8  -4 6999.11 422.474  17
  -4  -8  -4 8058.49 424.293  12
  -4  -8  -5 8749.44 429.641  13
  -4  -8  -5 8799.15 456.627  12
  -4  -8  -6 7529.23 360.154  13
  -4  -8  -6 7546.61 389.817  12
  -4  -8  -7 9208.82 429.625  12
  -4  -9  10 377.161 89.1018  19
  -4  -9  10 312.048 112.094  25
  -4  -9   9 1778.82 174.496  19
  -4  -9   9 1472.14 206.269  25
  -4  -9   8 11430.7 588.052  19
  -4  -9   7 4582.92 331.677  19
  -4  -9   6 576.865 171.896  19
  -4  -9   6 570.627 116.360  32
  -4  -9   6 532.221 143.195  21
  -4  -9   6 628.857 225.547  25
  -4  -9   5 4521.40 288.924  32
  -4  -9   5 4148.77 404.615  25
  -4  -9   5 3790.84 321.281  21
  -4  -9   4 26904.8 1052.20  32
  -4  -9   4 27091.1 1191.45  25
  -4  -9   4 24024.4 1098.62  21
  -4  -9   3 21952.9 931.085  32
  -4  -9   3 22181.7 1045.90  25
  -4  -9   3 22243.9 997.083  21
  -4  -9   2 6307.89 354.874  27
  -4  -9   2 7421.13 481.625  21
  -4  -9   2 7847.58 507.970  25
  -4  -9   1 3152.21 221.914  27
  -4  -9   1 4021.68 277.177  32
  -4  -9   1 3980.15 346.692  25
  -4  -9   1 3598.84 408.048  21
  -4  -9   0 4639.60 300.804  32
  -4  -9   0 4259.32 259.201  27
  -4  -9   0 4868.57 366.264  25
  -4  -9   0 4646.58 635.472  21
  -4  -9  -1 741.090 184.090  17
  -4  -9  -1 635.622 122.508  32
  -4  -9  -1 657.071 108.393  27
  -4  -9  -1 490.575 170.246  25
  -4  -9  -2 456.372 177.247  17
  -4  -9  -2 399.656 157.450  25
  -4  -9  -3 3905.87 242.994  13
  -4  -9  -3 3204.50 261.604  17
  -4  -9  -4 11750.7 516.186  13
  -4  -9  -4 10489.3 510.214  12
  -4  -9  -5 1201.31 110.991  13
  -4  -9  -5 968.956 107.397  12
  -4 -10   9 1904.60 163.217  25
  -4 -10   8 3595.07 233.234  19
  -4 -10   7 158.352 106.149  19
  -4 -10   6 433.552 167.573  25
  -4 -10   5 1308.40 201.742  21
  -4 -10   5 1139.74 213.938  25
  -4 -10   4 4593.11 347.984  25
  -4 -10   4 3623.38 323.086  21
  -4 -10   3 10166.3 576.953  25
  -4 -10   3 9722.90 588.270  21
  -4 -10   2 6295.74 337.268  13
  -4 -10   2 7245.47 409.750  17
  -4 -10   2 7891.96 457.476  25
  -4 -10   2 7482.77 557.079  21
  -4 -10   1 19694.5 860.152  13
  -4 -10   1 20637.5 953.105  25
  -4 -10   1 20711.9 1088.32  21
  -4 -10   0 4245.70 242.073  13
  -4 -10   0 3702.25 276.190  17
  -4 -10   0 3955.65 295.332  25
  -4 -10  -1 56.3030 91.4434  13
  -4 -10  -1 25.7976 133.746  17
  -4 -10  -1 4.80759 134.733  25
  -4 -10  -2 1017.02 148.510  17
  -4 -10  -3 1602.80 129.111  13
  -4 -10  -4 2032.12 126.634  13
  -4 -11   6 331.316 84.9596  17
  -4 -11   6 587.644 114.696  25
  -4 -11   5 762.119 116.605  17
  -4 -11   5 741.707 135.467  25
  -4 -11   4 1051.99 138.668  17
  -4 -11   4 1170.32 154.775  25
  -4 -11   3 3252.54 225.676  17
  -4 -11   3 3883.27 256.333  25
  -4 -11   2 3313.08 233.329  25
  -4 -11   1 4998.37 280.841  17
  -4 -11   1 5583.13 303.842  25
  -4 -11   0 8545.51 358.783  13
  -4 -11   0 7850.95 379.642  17
  -4 -11   0 7681.58 420.064  25
   5 -11  -2 2118.62 148.724  22
   5 -11  -1 3546.84 243.067  15
   5 -11   0 276.745 97.6588  16
   5 -11   0 485.878 99.4326  22
   5 -11   1 266.686 109.780  16
   5 -11   1 359.016 119.564  15
   5 -11   1 299.453 89.3764  22
   5 -11   2 337.905 107.601  16
   5 -11   2 409.758 112.890  15
   5 -11   3 902.146 126.642  15
   5 -11   4 1623.24 154.051  16
   5 -10  -5 99.4704 64.2871  22
   5 -10  -5 81.5420 82.8965  23
   5 -10  -4 3353.78 215.650  22
   5 -10  -3 8405.97 481.587  15
   5 -10  -3 10224.6 475.331  22
   5 -10  -2 12710.6 676.480  15
   5 -10  -2 14353.6 661.037  23
   5 -10  -1 4666.72 350.924  15
   5 -10  -1 4966.73 312.138  22
   5 -10   0 7296.00 405.284  22
   5 -10   1 849.935 191.232  15
   5 -10   1 1023.71 150.597  22
   5 -10   2 10752.8 590.970  15
   5 -10   2 9629.21 557.195  21
   5 -10   3 6086.61 395.118  15
   5 -10   3 6954.83 430.392  20
   5 -10   3 5829.28 392.956  21
   5 -10   3 6734.54 348.456  22
   5 -10   4 4575.45 311.844  15
   5 -10   4 5586.51 357.925  20
   5 -10   4 5046.80 344.090  21
   5 -10   5 3394.51 225.905  15
   5 -10   5 4051.68 284.352  21
   5 -10   6 4400.32 294.349  21
   5 -10   7 373.154 94.3727  21
   5  -9  -7 564.524 114.617  24
   5  -9  -7 482.822 102.777  23
   5  -9  -6 1824.58 183.984  14
   5  -9  -6 1525.83 167.161  23
   5  -9  -6 1218.35 134.629  22
   5  -9  -6 1751.73 183.241  24
   5  -9  -5 5594.26 364.631  14
   5  -9  -5 5646.19 332.078  22
   5  -9  -5 5668.16 362.472  24
   5  -9  -4 9417.68 483.715  22
   5  -9  -4 9675.21 509.394  24
   5  -9  -3 18208.6 935.607  15
   5  -9  -3 19740.6 913.520  22
   5  -9  -3 20217.3 927.612  23
   5  -9  -3 20060.0 941.765  24
   5  -9  -2 8993.00 565.754  15
   5  -9  -2 10266.6 543.049  23
   5  -9  -2 9475.87 553.379  24
   5  -9  -1 5986.65 449.651  15
   5  -9  -1 6495.60 411.067  22
   5  -9  -1 6322.92 434.157  20
   5  -9  -1 6725.44 419.899  23
   5  -9   0 252.992 183.490  20
   5  -9   0 321.711 163.061  22
   5  -9   0 533.162 171.139  23
   5  -9   1 2308.31 263.343  21
   5  -9   1 2859.53 309.017  20
   5  -9   1 3062.76 256.411  22
   5  -9   2 3958.88 316.805   6
   5  -9   2 3439.29 330.975  15
   5  -9   2 3614.64 328.169  21
   5  -9   2 3863.28 287.784  22
   5  -9   3 182.513 167.278   6
   5  -9   3 248.432 166.931  15
   5  -9   3 242.534 189.515  20
   5  -9   3 92.7479 165.191  21
   5  -9   3 65.5606 113.332  22
   5  -9   4 7345.97 459.584  15
   5  -9   4 8363.41 502.336  20
   5  -9   4 7850.00 497.441  21
   5  -9   4 7099.95 393.039  22
   5  -9   5 5609.25 366.750  15
   5  -9   5 6879.46 428.430  20
   5  -9   5 6010.99 424.945  21
   5  -9   6 3789.74 276.579  20
   5  -9   6 3341.51 289.964  21
   5  -9   7 862.489 137.131  18
   5  -9   8 448.295 94.2478  18
   5  -9   8 465.133 121.838  21
   5  -8  -9 1836.25 151.490  24
   5  -8  -8 1067.67 141.393  14
   5  -8  -8 911.737 144.740  24
   5  -8  -8 836.522 135.193  23
   5  -8  -7 266.592 131.822  14
   5  -8  -7 175.097 144.592  24
   5  -8  -7 258.883 132.038  23
   5  -8  -6 360.561 149.624  14
   5  -8  -6 398.503 163.286  24
   5  -8  -6 269.399 132.806  22
   5  -8  -5 10380.2 598.231  14
   5  -8  -5 10650.2 598.588  24
   5  -8  -5 10837.0 578.485  22
   5  -8  -4 1726.56 241.536  15
   5  -8  -4 2487.50 266.799  14
   5  -8  -4 2394.98 257.406  22
   5  -8  -4 2394.61 260.227  23
   5  -8  -4 2629.46 269.579  24
   5  -8  -3 9891.07 584.618  14
   5  -8  -3 10375.2 581.106  23
   5  -8  -3 9277.35 569.190  24
   5  -8  -2 14136.1 720.614  22
   5  -8  -2 13912.5 718.546  23
   5  -8  -2 13302.3 725.017  24
   5  -8  -2 12964.3 723.995  20
   5  -8  -1 6879.95 473.225  20
   5  -8  -1 7084.37 448.569  22
   5  -8  -1 6494.08 439.065  23
   5  -8  -1 6929.84 456.253  24
   5  -8   0 2873.39 271.725   6
   5  -8   0 2895.90 324.971  20
   5  -8   0 3401.70 294.282  22
   5  -8   0 3281.86 290.445  23
   5  -8   0 2630.39 278.763  21
   5  -8   0 2929.02 301.680  24
   5  -8   1 246.018 204.499  20
   5  -8   1 313.078 172.694   6
   5  -8   1 186.347 376.421  29
   5  -8   1 305.032 182.460  21
   5  -8   1 532.212 173.250  22
   5  -8   1 392.909 160.589  23
   5  -8   2 167.698 180.813   6
   5  -8   2-144.954 369.098  29
   5  -8   2 123.804 171.526  21
   5  -8   2 159.578 145.186  22
   5  -8   3 5028.77 354.321   8
   5  -8   3 5117.27 377.156   6
   5  -8   3 5176.69 425.168  20
   5  -8   3 4690.17 415.947  21
   5  -8   3 5461.24 340.325  22
   5  -8   4 6162.90 415.711   8
   5  -8   4 7088.28 489.159  20
   5  -8   4 6906.70 385.898  22
   5  -8   4 7026.22 496.751  21
   5  -8   5 13323.6 683.575   6
   5  -8   5 13660.2 677.957   8
   5  -8   5 11717.2 664.075  15
   5  -8   5 13640.8 726.506  20
   5  -8   5 13336.9 747.981  21
   5  -8   6 1755.39 229.056   6
   5  -8   6 1853.16 220.756   8
   5  -8   6 1942.85 239.579  20
   5  -8   6 1812.74 261.754  21
   5  -8   7 3288.63 265.788   8
   5  -8   7 3401.83 271.268   6
   5  -8   7 2930.39 261.127  20
   5  -8   8 86.1881 123.383   8
   5  -8   8 123.890 132.823  21
   5  -8   9 576.490 126.692  21
   5  -7 -10 485.550 101.833  24
   5  -7 -10 422.013 88.9719  23
   5  -7  -9 895.193 139.386  14
   5  -7  -9 1126.06 160.314  24
   5  -7  -9 883.564 148.341  23
   5  -7  -8 2527.03 237.056  14
   5  -7  -8 2595.83 251.087  24
   5  -7  -8 2863.12 252.259  23
   5  -7  -7 6352.12 413.129  14
   5  -7  -7 6416.27 419.353  24
   5  -7  -7 5676.46 380.244  22
   5  -7  -6 280.052 158.894  14
   5  -7  -6 353.331 178.898  24
   5  -7  -6 215.016 150.527  22
   5  -7  -5 2735.77 286.634  14
   5  -7  -5 2915.34 300.324  24
   5  -7  -5 2762.70 282.978  22
   5  -7  -5 2905.01 298.310  23
   5  -7  -4 4396.43 359.104  14
   5  -7  -4 4298.20 358.841  24
   5  -7  -4 4500.67 361.128  22
   5  -7  -4 4185.04 349.709  23
   5  -7  -3 16827.8 848.925  14
   5  -7  -3 15204.2 1289.53  29
   5  -7  -3 15942.4 836.203  24
   5  -7  -3 17762.2 849.881  23
   5  -7  -3 15109.5 804.027  20
   5  -7  -2 26232.2 1253.60  14
   5  -7  -2 27286.4 1244.16  20
   5  -7  -2 27700.2 1250.31  22
   5  -7  -2 27990.1 1245.62  23
   5  -7  -2 25674.2 1236.96  24
   5  -7  -1 19146.9 939.326  20
   5  -7  -1 17427.9 854.917   6
   5  -7  -1 17424.7 1402.27  29
   5  -7  -1 19799.0 924.493  22
   5  -7  -1 18351.2 905.188  23
   5  -7  -1 18586.5 915.841  24
   5  -7   0 4509.06 319.091   6
   5  -7   0 3810.30 366.366  20
   5  -7   0 4660.36 349.198  22
   5  -7   0 4495.88 338.109  23
   5  -7   0 3506.52 339.103  21
   5  -7   0 4075.18 352.934  24
   5  -7   1 227.348 204.061  20
   5  -7   1 241.839 164.346   6
   5  -7   1 354.516 357.998  29
   5  -7   1 207.688 168.442  21
   5  -7   1 345.676 160.361  22
   5  -7   1 396.941 160.381  23
   5  -7   2 17013.4 856.767   8
   5  -7   2 18788.8 871.551   6
   5  -7   2 16269.4 1356.50  29
   5  -7   2 18912.8 871.888  22
   5  -7   2 20195.4 895.818  23
   5  -7   3 8650.56 492.138   8
   5  -7   3 7688.60 870.782  29
   5  -7   3 8732.29 467.574  22
   5  -7   4 7322.99 509.972  20
   5  -7   4 7269.80 450.212   8
   5  -7   4 5493.06 742.451  30
   5  -7   4 6625.51 798.274  29
   5  -7   4 7034.06 396.538  22
   5  -7   5 9042.53 535.519   8
   5  -7   5 9248.50 531.420   6
   5  -7   5 9440.46 587.580  20
   5  -7   6 2565.79 258.408   6
   5  -7   6 2407.74 260.501   8
   5  -7   6 2183.23 270.868  20
   5  -7   7 406.405 162.232   6
   5  -7   7 310.224 167.418   8
   5  -7   7 308.193 154.112  20
   5  -7   8 940.401 163.702   6
   5  -7  10 917.967 128.607   8
   5  -7  10 647.517 123.959  21
   5  -6 -11 4363.46 235.085  24
   5  -6 -11 3127.11 217.927  23
   5  -6 -10 2112.14 177.904  14
   5  -6 -10 2298.89 211.850  24
   5  -6 -10 2217.98 207.162  23
   5  -6  -9 11446.3 606.678  14
   5  -6  -9 12241.7 637.569  24
   5  -6  -9 12491.6 640.973  23
   5  -6  -8 20092.8 969.468  14
   5  -6  -8 22127.1 1001.25  24
   5  -6  -8 19257.0 936.214  22
   5  -6  -7 658.937 175.086  14
   5  -6  -7 740.341 200.010  24
   5  -6  -7 711.584 181.706  22
   5  -6  -6 4029.53 336.816  14
   5  -6  -6 4008.69 350.277  24
   5  -6  -6 3609.23 328.175  22
   5  -6  -6 3681.59 347.654  23
   5  -6  -5 21774.9 1021.52  14
   5  -6  -5 20252.5 1010.78  24
   5  -6  -5 21581.6 1013.85  22
   5  -6  -5 20914.5 1028.61  23
   5  -6  -4 19537.6 957.384  14
   5  -6  -4 19646.9 954.565  24
   5  -6  -4 19778.9 961.621  23
   5  -6  -3 19910.5 964.663  14
   5  -6  -3 18146.1 925.230  20
   5  -6  -3 18219.6 1389.76  29
   5  -6  -3 20940.6 968.407  24
   5  -6  -3 20202.6 959.952  23
   5  -6  -2 1118.99 195.170  14
   5  -6  -2 799.218 185.961  20
   5  -6  -2 1253.42 214.039   2
   5  -6  -2 1152.82 434.276  29
   5  -6  -2 988.380 195.250  24
   5  -6  -2 1069.22 202.481  22
   5  -6  -2 1207.92 203.195  23
   5  -6  -1 146.589 118.570   6
   5  -6  -1 119.054 142.552  14
   5  -6  -1 154.778 151.523  24
   5  -6  -1 91.0055 141.057  22
   5  -6  -1 41.8532 137.313  23
   5  -6   0 925.889 160.972   6
   5  -6   0 892.128 196.801   2
   5  -6   0 1044.54 190.393  24
   5  -6   0 887.955 181.976  22
   5  -6   0 959.908 174.360  23
   5  -6   0 769.025 178.321  21
   5  -6   1 679.646 187.290   2
   5  -6   1 637.044 152.935   6
   5  -6   1 511.631 351.692  29
   5  -6   1 523.221 244.974  30
   5  -6   1 481.615 163.766  24
   5  -6   1 580.999 155.858  22
   5  -6   1 793.171 161.627  23
   5  -6   2 630.852 187.180   2
   5  -6   2 836.599 163.040   8
   5  -6   2 639.929 163.414   6
   5  -6   2 345.716 348.444  29
   5  -6   2 747.059 285.986  30
   5  -6   2 721.159 152.854  22
   5  -6   2 520.981 150.840  23
   5  -6   3 14889.0 730.219   8
   5  -6   3 11870.2 1076.56  30
   5  -6   3 14660.6 1183.72  29
   5  -6   3 14864.5 701.219  22
   5  -6   4 11775.7 1163.60  30
   5  -6   4 13732.1 1200.29  29
   5  -6   4 17771.0 823.415   6
   5  -6   4 18641.3 845.139   8
   5  -6   5 15291.2 741.652   6
   5  -6   5 15451.9 761.522   8
   5  -6   6 7117.36 449.536   8
   5  -6   6 6925.21 432.703   6
   5  -6   7 126.566 170.718   8
   5  -6   7 136.549 151.420   6
   5  -6   7 119.273 143.948  20
   5  -6   8 144.742 142.757   6
   5  -6   9 8955.47 480.518   6
   5  -6   9 11093.5 543.412   8
   5  -6  10 3653.41 260.433   8
   5  -6  11 6456.80 324.826   8
   5  -5 -11 9116.78 479.599  24
   5  -5 -11 9118.88 482.734  23
   5  -5 -10 5831.20 375.263  24
   5  -5 -10 5982.82 385.495  23
   5  -5  -9 8129.46 458.866  14
   5  -5  -9 8609.54 503.712  24
   5  -5  -8 1727.28 216.682  14
   5  -5  -8 1614.76 242.418  24
   5  -5  -8 1305.36 215.175  22
   5  -5  -7 4357.82 345.694  14
   5  -5  -7 4142.90 359.601  24
   5  -5  -7 4533.71 362.345  22
   5  -5  -7 3931.16 377.184  23
   5  -5  -6 3034.54 285.276  14
   5  -5  -6 3167.43 306.992  24
   5  -5  -6 3135.08 305.934  22
   5  -5  -6 2795.14 316.701  23
   5  -5  -5 19861.2 964.210  14
   5  -5  -5 21148.4 984.242  24
   5  -5  -5 20288.3 976.182  22
   5  -5  -5 19497.3 984.647  23
   5  -5  -4 19177.2 932.918  14
   5  -5  -4 19293.5 901.957   2
   5  -5  -4 16939.0 1294.23  29
   5  -5  -4 19741.3 941.606  24
   5  -5  -4 19831.5 951.669  23
   5  -5  -3 26705.6 1202.60  14
   5  -5  -3 22843.5 1162.63  20
   5  -5  -3 28009.4 1180.90   2
   5  -5  -3 24192.0 1608.49  29
   5  -5  -3 26971.3 1200.29  24
   5  -5  -3 26582.4 1212.08  22
   5  -5  -3 28096.5 1216.41  23
   5  -5  -2 625.991 155.424  14
   5  -5  -2 491.891 161.237   2
   5  -5  -2 694.107 373.970  29
   5  -5  -2 540.328 149.866  24
   5  -5  -2 387.859 154.263  22
   5  -5  -2 563.978 157.476  23
   5  -5  -1 4596.09 271.923   6
   5  -5  -1 4577.92 326.791  14
   5  -5  -1 4392.65 318.174  22
   5  -5  -1 4374.42 303.140  23
   5  -5  -1 3853.36 299.952  24
   5  -5   0 7005.31 424.522   2
   5  -5   0 7938.39 399.625   6
   5  -5   0 7151.94 429.004  22
   5  -5   0 7620.31 420.449  23
   5  -5   0 7624.52 441.353  24
   5  -5   1 133.623 114.380   6
   5  -5   1-10.6613 134.382   2
   5  -5   1 63.5538 203.881  30
   5  -5   1 140.012 332.241  29
   5  -5   1 90.0648 128.698  24
   5  -5   1 39.1845 112.509  22
   5  -5   1 43.6162 108.063  23
   5  -5   2 4058.11 284.714   8
   5  -5   2 4123.90 280.477   6
   5  -5   2 3681.82 252.424   7
   5  -5   2 4162.66 300.219   2
   5  -5   2 4179.01 529.220  30
   5  -5   2 4613.24 613.485  29
   5  -5   2 4128.83 281.452  22
   5  -5   2 3921.29 279.003  23
   5  -5   3 34821.9 2099.56  30
   5  -5   3 38531.3 2182.60  29
   5  -5   3 39558.3 1685.26   7
   5  -5   3 39944.2 1715.61   2
  -5   5  -3 42764.9 1715.66   3
   5  -5   3 41809.5 1730.12   8
   5  -5   4 18787.1 1381.81  30
   5  -5   4 17071.8 1324.66  29
   5  -5   4 21836.4 977.192   8
   5  -5   4 19822.9 940.900   2
   5  -5   4 21139.6 946.150   6
  -5   5  -4 21665.6 946.689   3
   5  -5   5 25116.2 1135.36   8
  -5   5  -5 25026.3 1100.33   3
   5  -5   5 24490.0 1099.91   6
  -5   5  -6 10.7385 144.916   3
   5  -5   6 127.390 152.869   6
   5  -5   6 206.848 174.236   8
   5  -5   7 2557.31 236.958   6
   5  -5   7 2221.68 188.984   9
   5  -5   8 5764.36 344.498   6
   5  -5   8 4860.62 293.210   9
  -5   5  -9 122.900 124.397   1
   5  -5   9-3.87780 110.744   6
   5  -5   9 173.771 153.681   8
   5  -5  10 12252.1 605.956   8
   5  -5  11 4816.94 282.525   8
   5  -4 -12 1477.25 160.265  24
   5  -4 -12 1967.29 182.997  23
   5  -4 -11 2067.29 224.183  24
   5  -4 -11 2361.46 247.498  23
   5  -4 -10 956.596 195.918  24
   5  -4  -9 1292.67 188.263  14
   5  -4  -9 1399.26 230.051  24
   5  -4  -9 1274.62 202.518  22
   5  -4  -8 4073.07 357.691  24
   5  -4  -7 2339.51 280.282  24
   5  -4  -6 7638.33 490.945  24
   5  -4  -5 4384.67 322.567  14
   5  -4  -5 4439.75 296.758   2
   5  -4  -5 3587.24 528.269  29
   5  -4  -5 4487.77 334.068  24
   5  -4  -5 4274.13 346.530  23
   5  -4  -4 13363.1 687.167  14
   5  -4  -4 14573.6 663.635   2
   5  -4  -4 12552.2 997.640  29
   5  -4  -4 13402.5 688.410  24
   5  -4  -4 13410.0 702.485  23
   5  -4  -3 22734.5 1034.77  14
   5  -4  -3 23807.1 1009.79   2
   5  -4  -3 22410.5 1404.08  29
   5  -4  -3 20870.8 1019.55  24
   5  -4  -3 22954.9 1039.99  23
   5  -4  -2 68881.6 2934.35  14
   5  -4  -2 64357.1 3328.05  29
   5  -4  -2 75035.8 2909.72   2
   5  -4  -1 13248.4 842.658  30
   5  -4   0 3754.44 432.089  30
   5  -4   0 3870.50 554.634  29
   5  -4   1 91244.0 4344.76  30
   5  -4   1 98963.7 4002.81   2
   5  -4   2 12303.2 909.855  29
   5  -4   2 11040.3 547.780   2
   5  -4   3 18601.0 1267.83  30
   5  -4   3 19508.1 1274.90  29
   5  -4   3 19867.1 879.363   7
   5  -4   3 19987.9 885.683   6
  -5   4  -3 20635.9 908.459   3
   5  -4   3 18753.9 890.271   2
   5  -4   3 20779.9 912.657   8
   5  -4   4 14422.1 1160.67  30
   5  -4   4 16412.9 1147.00  29
   5  -4   4 17343.0 788.229   6
   5  -4   4 17264.1 816.687   8
   5  -4   4 16848.7 784.767   7
  -5   4  -4 17838.5 810.016   3
   5  -4   5 9225.51 499.442   6
   5  -4   5 9967.10 538.684   8
  -5   4  -5 9777.02 522.175   3
  -5   4  -6 1364.49 208.920   3
   5  -4   6 1390.55 183.746   6
   5  -4   7 3021.49 232.328   9
   5  -4   7 3212.45 589.471  30
   5  -4   7 3463.21 265.915   6
   5  -4   8 1430.36 222.752   8
   5  -4   8 994.048 168.829   6
   5  -4   8 1282.92 166.401   9
  -5   4  -9 497.016 162.039   1
   5  -4   9 740.433 183.074   8
   5  -4   9 601.570 140.125   9
  -5   4 -10 526.406 143.492   1
   5  -4  10 755.393 160.530   8
   5  -4  10 671.593 129.773   9
   5  -4  11 10050.4 495.617   8
  -5   4 -11 10361.4 459.631   1
   5  -4  11 9998.08 449.682   9
   5  -3 -13 2350.49 185.947  23
   5  -3 -12 3115.83 256.225  24
   5  -3 -12 3920.59 286.824  23
   5  -3 -11 16557.7 815.037  24
   5  -3 -10 1643.70 242.313  24
   5  -3  -9 3036.22 305.622  24
   5  -3  -8 611.507 188.843  24
   5  -3  -7 5932.54 422.469  24
   5  -3  -6 7033.17 676.574  29
   5  -3  -6 9220.78 512.252  24
   5  -3  -5 24466.3 1121.66  14
   5  -3  -5 26707.6 1144.36  24
   5  -3  -4 3865.96 538.783  29
   5  -3  -3 19181.7 1287.92  29
  -5   3   3 21720.8 1100.72  36
  -5   3   2 1902.95 286.068  28
   5  -3  -2 1308.96 232.527  30
   5  -3  -2 1945.57 417.536  29
  -5   3   1 98581.7 4118.97  28
   5  -3   0 1719.27 394.919  29
  -5   3   0 1636.45 254.440  28
   5  -3   1 24766.6 1436.82  29
   5  -3   2 12272.1 907.027  29
   5  -3   3 14736.8 1017.03  29
  -5   3  -3 15070.5 697.874   3
   5  -3   3 13942.2 666.220   7
   5  -3   3 14761.3 669.741   6
   5  -3   4 28990.3 1644.34  29
   5  -3   4 31255.2 1290.91   6
   5  -3   4 31691.0 1321.31   8
  -5   3  -4 31078.9 1322.09   3
   5  -3   4 28033.0 1288.06   7
   5  -3   5 36363.5 1564.24   6
   5  -3   5 38740.6 1606.91   8
  -5   3  -5 37094.4 1599.92   3
   5  -3   6 1714.17 459.053  30
   5  -3   6 1877.41 196.782   6
  -5   3  -6 2037.29 233.978   3
   5  -3   7 3431.86 580.302  30
   5  -3   7 3579.86 261.719   6
   5  -3   7 3870.95 319.848   8
   5  -3   8 3894.95 266.706   9
  -5   3  -8 3688.65 272.873  37
   5  -3   8 3794.56 265.518   6
   5  -3   8 4372.21 333.639   8
   5  -3   9 1569.11 222.271   8
   5  -3   9 1301.68 173.290   9
  -5   3 -10 1508.45 191.865   1
   5  -3  10 1207.42 183.410   8
   5  -3  10 1224.79 158.925   9
  -5   3 -11 7838.32 378.004   1
   5  -3  11 6503.16 379.760   8
   5  -3  11 7263.28 352.890   9
   5  -2 -13 602.942 102.312  24
   5  -2 -13 1088.42 149.627  23
  -5   2  12 10746.6 485.112   4
   5  -2 -12 10181.5 548.400  24
  -5   2  11 4579.93 288.390   4
   5  -2 -11 4874.31 350.442  24
  -5   2  10 11356.2 567.372   4
   5  -2 -10 11803.7 650.344  24
  -5   2   9 292.855 132.334   4
   5  -2  -9 212.405 155.983  24
  -5   2   8 906.776 156.111   4
   5  -2  -8 525.153 174.139  24
  -5   2   7 90.1434 110.884   4
   5  -2  -7 90.4138 129.829  24
  -5   2   6 3772.50 242.868   4
   5  -2  -6 3268.57 440.542  29
   5  -2  -6 3728.33 286.534  24
   5  -2  -5 61445.0 2889.56  29
   5  -2  -4 22108.7 1013.16  10
   5  -2  -4 19412.9 1272.02  29
  -5   2   4 22795.2 1125.11  36
   5  -2  -3 8383.46 510.306  10
  -5   2   3 10166.6 629.136  36
   5  -2  -2 32429.2 1422.86  10
  -5   2   2 30006.2 1547.69  28
   5  -2  -1 45276.8 1960.64  10
  -5   2   1 44830.7 2080.12  28
   5  -2   0 1622.23 281.015  10
  -5   2   0 1883.24 300.178  28
  -5   2  -1 20852.3 1108.99  28
   5  -2   2 17938.4 1110.25  29
   5  -2   3 20875.7 1247.75  29
   5  -2   4 16076.6 1056.94  29
   5  -2   4 17300.2 745.461   6
   5  -2   4 15651.0 748.208   7
  -5   2  -4 16501.1 777.865   3
  -5   2  -5 25571.7 1152.24  37
   5  -2   5 28378.8 1168.84   6
   5  -2   5 26892.4 1183.21   7
  -5   2  -5 28524.5 1215.27   3
   5  -2   6 18974.3 1429.97  30
  -5   2  -6 21499.5 961.083  37
   5  -2   6 21634.8 960.122   6
  -5   2  -6 22868.2 1016.81   3
   5  -2   7 345.169 293.188  30
  -5   2  -7 501.758 166.174  37
   5  -2   7 457.200 176.684   8
   5  -2   7 319.152 130.308   6
  -5   2  -8 29472.3 1256.16  37
   5  -2   8 31543.3 1307.36   8
   5  -2   9 6504.87 364.731   9
  -5   2  -9 6273.81 386.545  37
   5  -2   9 6514.41 414.523   8
   5  -2  10 2630.07 243.901   8
  -5   2 -10 2899.33 254.948   1
   5  -2  10 2717.82 215.316   9
  -5   2 -11 2086.37 192.363   1
   5  -2  11 1963.88 176.277   8
   5  -2  11 1944.52 168.853   9
   5  -2  12 3074.71 170.394   9
  -5   1  13 2223.35 160.147   4
  -5   1  12 1954.62 180.234   4
   5  -1 -12 1506.89 190.034  24
  -5   1  11 10443.6 512.062   4
   5  -1 -11 8931.84 544.806  24
  -5   1  10 11724.5 572.618   4
   5  -1 -10 10122.6 606.323  24
  -5   1   9 12676.7 627.783   4
  -5   1   8 291.234 133.803   4
  -5   1   7 197.967 120.993   4
   5  -1  -6 12177.1 891.411  29
  -5   1   6 13441.5 615.790   4
   5  -1  -5 45174.4 1935.22  10
   5  -1  -4 37189.1 1707.13  10
  -5   1   4 42317.8 1827.31  36
   5  -1  -3 76066.9 3278.59  10
  -5   1   3 83654.4 3389.85  36
   5  -1  -2 51052.8 2192.87  10
  -5   1   2 50655.0 2284.49  36
   5  -1  -1 3473.23 339.592  10
  -5   1   1 3250.29 401.090  28
  -5   1   0 9982.05 689.252  28
  -5   1  -1 44057.1 2049.45  28
   5  -1   2 76585.9 3226.98  10
   5  -1   3 44340.1 1986.72  10
   5  -1   4 3891.38 486.355  29
  -5   1  -4 4942.33 287.094  37
   5  -1   4 4642.73 283.345   6
  -5   1  -4 4916.36 319.135   3
   5  -1   4 4615.04 294.578   7
  -5   1  -5 2961.12 230.194  37
  -5   1  -5 2703.54 255.688   3
   5  -1   5 2427.17 208.755   6
   5  -1   5 2688.81 231.438   7
  -5   1  -6 1284.27 191.413  37
  -5   1  -6 1123.44 204.667   3
   5  -1   6 715.614 143.607   6
   5  -1   6 1104.57 185.671   7
   5  -1   7 512.908 312.129  30
  -5   1  -7 1232.17 204.804  37
  -5   1  -7 1420.58 485.930  35
   5  -1   7 842.250 138.550   6
   5  -1   8 1817.05 438.074  30
  -5   1  -8 2289.32 250.283  37
  -5   1  -8 1700.31 568.052  35
   5  -1   8 2183.48 246.586   8
  -5   1  -9 6747.23 420.135  37
   5  -1   9 7080.53 433.684   8
  -5   1 -10 7154.19 414.452   1
   5  -1  10 6381.81 389.167   8
   5  -1  11 11380.6 579.751   8
  -5   1 -11 14220.4 608.576   1
   5  -1  12 432.941 80.8688   9
  -5   0  13 7511.09 379.511   4
  -5   0  12 25086.1 1093.79   4
  -5   0  11 9173.65 463.116   4
  -5   0  11 7136.25 415.104   5
  -5   0  10 1995.05 227.587   4
  -5   0  10 1961.20 197.532   5
   5   0  -9 1011.90 135.804  37
  -5   0   9 1477.48 194.864   4
  -5   0   9 1121.92 163.766   5
   5   0  -8 885.544 117.625  37
  -5   0   8 883.151 141.113   5
  -5   0   8 1007.12 172.645   4
  -5   0   7 2367.32 208.457   4
  -5   0   7 2228.27 187.975   5
  -5   0   6 9420.14 714.966  31
  -5   0   6 9821.78 482.786   4
  -5   0   5 33021.4 1681.14  31
  -5   0   4 59820.6 2642.78  36
  -5   0   3 10988.0 711.498  36
  -5   0   2 8628.06 616.997  36
  -5   0   1 44105.4 1984.82  28
  -5   0   1 37904.3 1864.14  36
  -5   0   0 4204.25 453.951  28
  -5   0   0 3320.79 409.068  36
   5   0   1 380.161 219.634  10
  -5   0  -1 672.934 251.416  28
   5   0   2 30698.0 1432.24  10
   5   0   3 13202.4 763.030  10
  -5   0  -3 13863.0 896.308  31
  -5   0  -4 19458.4 1076.87  31
  -5   0  -4 18428.0 806.707  37
   5   0   4 17149.0 795.623   7
  -5   0  -4 17103.4 822.033   3
  -5   0  -5 17922.7 806.289  37
  -5   0  -5 20155.5 1101.22  36
  -5   0  -5 20710.3 1361.98  35
   5   0   5 16484.9 768.669   6
   5   0   5 16482.0 786.838   7
  -5   0  -6 3111.24 277.493  37
  -5   0  -6 3213.59 624.444  35
   5   0   6 2508.61 216.630   6
   5   0   6 2989.65 247.873   7
  -5   0  -7 4538.66 347.252  37
  -5   0  -7 4022.00 690.226  35
  -5   0  -8 9173.41 1068.56  35
   5   0   9 14305.1 702.906   8
   5   0  10 6018.18 329.424   9
   5   0  10 5525.74 348.464   8
   5   0  11 1252.69 137.184   9
  -5   0 -11 1582.49 169.278   1
  -5  -1  14 1079.45 104.533   4
  -5  -1  13 4288.11 262.169   5
  -5  -1  13 6787.92 314.634   4
  -5  -1  12 15767.1 686.016   4
  -5  -1  12 12975.5 650.059   5
   5   1 -11 373.739 114.318  37
  -5  -1  11 300.817 161.188   4
  -5  -1  11 277.530 133.124   5
  -5  -1  10 3742.16 288.258   4
  -5  -1  10 3440.41 262.222   5
   5   1  -9 604.024 129.361  37
  -5  -1   9 723.867 171.771   4
  -5  -1   8 1533.48 197.430   4
  -5  -1   7 23863.8 1042.83   5
  -5  -1   7 23605.8 1047.27   4
  -5  -1   6 5910.01 338.604   4
  -5  -1   6 5722.59 331.541   5
  -5  -1   5 10276.2 745.243  31
  -5  -1   5 9327.51 476.538  34
  -5  -1   4 17.4285 264.133  31
  -5  -1   4 59.4093 125.966  34
  -5  -1   3 3686.47 476.630  31
  -5  -1   3 3829.10 421.442  36
  -5  -1   2 22573.9 1306.99  31
  -5  -1   2 23771.5 1229.24  36
  -5  -1   1 10215.3 701.641  36
  -5  -1   0 16558.3 860.746  35
   5   1   1 23031.4 1136.00  10
  -5  -1  -1 26107.5 1332.33  31
  -5  -1  -1 22176.0 1202.26  36
  -5  -1  -1 23714.7 1196.49  35
  -5  -1  -1 21593.4 984.793  34
   5   1   2 44323.2 1888.77  10
  -5  -1  -2 44508.7 2068.97  31
  -5  -1  -2 37739.2 1949.64  36
  -5  -1  -2 44844.1 2063.41  35
  -5  -1  -2 40733.5 1729.41  34
   5   1   3 52504.6 2268.83  10
  -5  -1  -3 55759.2 2459.67  31
  -5  -1  -3 52286.8 2386.45  36
  -5  -1  -3 50576.4 2514.44  35
  -5  -1  -3 50380.2 2114.01  34
   5   1   4 19504.5 962.959  10
  -5  -1  -4 16344.4 751.999  27
  -5  -1  -4 18617.4 1058.03  31
  -5  -1  -4 19984.5 1077.97  36
  -5  -1  -4 21219.0 1301.70  35
  -5  -1  -4 17440.5 819.010   3
   5   1   4 17535.9 788.590   7
  -5  -1  -5 17802.5 799.154  11
  -5  -1  -5 20095.1 1101.28  36
  -5  -1  -5 20454.7 1393.23  35
  -5  -1  -5 18136.2 860.413   3
   5   1   5 17682.9 817.022   7
  -5  -1  -6 127.360 112.646  11
  -5  -1  -6-364.913 403.473  35
  -5  -1  -7 2852.42 212.874  11
  -5  -1  -7 2280.69 576.795  35
  -5  -1  -8 7944.85 404.324  11
  -5  -1  -9 3827.39 276.294  12
   5   1   9 4023.37 296.917   8
  -5  -1  -9 4782.69 339.204   1
   5   1  10 12700.3 577.816   9
  -5  -1 -10 14066.7 630.780   1
   5   1  11 1426.27 133.443   9
  -5  -2  14 3419.73 195.067   4
  -5  -2  13 5202.30 284.278   4
  -5  -2  13 4054.30 254.406   5
  -5  -2  12 2553.16 223.834   4
  -5  -2  12 2193.80 203.206   5
   5   2 -11 437.912 129.730  37
  -5  -2  11 715.135 166.396   5
  -5  -2  11 699.257 188.497   4
   5   2 -10 46.1545 115.703  37
  -5  -2  10 124.009 171.644   4
  -5  -2  10 99.6405 144.058   5
  -5  -2   9 17.3414 154.974   4
  -5  -2   9 87.3824 147.274   5
  -5  -2   8 166.527 149.207   4
  -5  -2   8 290.314 140.553   5
  -5  -2   7 2500.93 221.558   5
  -5  -2   6 23889.9 1295.37  31
  -5  -2   6 22443.2 999.775   5
  -5  -2   5 43297.3 1868.16  31
  -5  -2   5 33252.4 1456.36  34
  -5  -2   4 100634. 3860.08  31
  -5  -2   4 82443.8 3430.74  34
  -5  -2   3 3489.76 477.922  31
  -5  -2   3 3009.85 239.728  34
  -5  -2   2 18101.8 1078.93  31
  -5  -2   2 15865.2 748.120  34
  -5  -2   0 3775.44 493.536  31
  -5  -2   0 3862.39 432.937  36
  -5  -2   0 3337.51 256.299  34
  -5  -2  -1 44225.7 2058.70  31
  -5  -2  -1 38518.0 1914.91  36
  -5  -2  -1 41543.0 1937.70  35
  -5  -2  -1 39716.3 1682.25  34
   5   2   2 60815.6 2551.26  10
  -5  -2  -2 62455.2 2745.43  31
  -5  -2  -2 54015.3 2611.54  36
  -5  -2  -2 60436.5 2729.43  35
  -5  -2  -2 56878.5 2375.07  34
   5   2   3 74251.9 2943.88  10
  -5  -2  -3 71098.7 2770.38  17
  -5  -2  -3 66230.0 2729.07  27
  -5  -2  -3 73578.3 3117.53  31
  -5  -2  -3 72420.3 3053.50  36
  -5  -2  -3 71408.7 3229.34  35
  -5  -2  -3 62446.0 2762.48   3
  -5  -2  -4 17976.3 819.130  17
   5   2   4 18906.3 959.666  10
  -5  -2  -4 16568.3 1034.90  31
  -5  -2  -4 19829.0 1066.48  36
  -5  -2  -4 17096.0 767.972  27
  -5  -2  -4 18429.6 1275.75  35
  -5  -2  -4 16855.4 816.302   3
  -5  -2  -5 2541.40 207.343  11
  -5  -2  -5 2641.18 537.968  35
  -5  -2  -6 154.855 122.773  11
  -5  -2  -6 74.5852 336.706  35
  -5  -2  -7 3670.21 252.799  11
  -5  -2  -7 2703.76 616.864  35
  -5  -2  -8 504.417 124.935  11
  -5  -2  -8 352.716 182.575   1
  -5  -2  -9 3899.50 278.937  12
   5   2   9 4034.97 281.130   8
   5   2  10 9588.37 412.652   9
  -5  -2 -10 6794.02 386.667  12
  -5  -2 -10 11024.1 462.322   1
   5   2  10 7902.56 411.987   8
   5   2  11 3972.12 205.795   9
  -5  -3  13 1146.23 139.400   5
  -5  -3  12 8779.55 429.858   5
   5   3 -12 7007.28 381.216  37
  -5  -3  11 14170.7 654.812   5
   5   3 -11 11972.6 588.675  37
  -5  -3  10 4000.59 307.247   5
   5   3 -10 3659.34 253.019  37
  -5  -3   9 681.686 188.158   4
  -5  -3   9 647.768 176.865   5
  -5  -3   8 1594.92 209.453   4
  -5  -3   8 1733.83 209.741   5
  -5  -3   7 7711.06 442.021   4
  -5  -3   7 8273.54 452.952   5
  -5  -3   6 38810.4 1664.24   4
  -5  -3   6 39921.0 1675.36   5
  -5  -3   6 42299.0 2017.22  31
  -5  -3   5 22936.9 1005.30   5
  -5  -3   5 22169.6 993.400   4
  -5  -3   5 25273.6 1363.16  31
  -5  -3   4 29891.3 1302.32   5
  -5  -3   4 30442.5 1315.93  34
  -5  -3   3 18952.9 1098.68  31
  -5  -3   3 15147.6 731.199  34
  -5  -3   2 7971.77 697.642  31
  -5  -3   2 7714.47 693.185  28
  -5  -3   2 7237.60 409.790  34
  -5  -3   1 1106.07 323.168  28
  -5  -3   0 21491.3 1176.03  28
  -5  -3   0 20601.3 1196.47  31
  -5  -3   0 17515.1 840.388  34
  -5  -3  -1 30781.2 1711.80  31
  -5  -3  -1 34225.3 1711.80  28
   5   3   2 33546.0 1585.01  10
  -5  -3  -2 33462.6 1402.21  17
  -5  -3  -2 32336.3 1737.64  31
  -5  -3  -2 32403.8 1380.42  27
   5   3   3 25790.4 1204.01  10
  -5  -3  -3 24994.2 1035.68  17
  -5  -3  -3 23561.1 997.764  27
  -5  -3  -3 24231.2 1357.62  31
  -5  -3  -3 23395.1 1452.45  35
  -5  -3  -3 20197.9 1005.59   3
  -5  -3  -4 46969.4 1946.85  17
  -5  -3  -4 43312.7 2452.10  35
  -5  -3  -4 46227.7 1902.17  27
  -5  -3  -5 8287.68 440.310  11
  -5  -3  -5 7952.16 894.012  35
  -5  -3  -6 316.271 137.012  11
  -5  -3  -7 6676.93 370.139  11
  -5  -3  -7 6468.01 412.776   1
  -5  -3  -8 3874.47 294.767  12
  -5  -3  -8 4033.38 257.044  11
  -5  -3  -8 3701.63 296.912   1
  -5  -3  -9 2455.40 206.652  12
  -5  -3  -9 2694.24 228.765   1
   5   3  10 2865.49 167.996   9
  -5  -3 -10 2159.22 157.318  12
  -5  -4  13 2217.90 165.926   4
  -5  -4  13 1880.37 163.641   5
  -5  -4  12 5115.73 298.424   4
  -5  -4  12 5173.16 302.055   5
   5   4 -11 3556.84 251.404  37
  -5  -4  11 4419.00 300.493   4
  -5  -4  11 4478.34 308.967   5
  -5  -4  10 20456.8 934.102   5
  -5  -4  10 19139.5 911.630   4
  -5  -4   9 58.3167 160.279   5
  -5  -4   9 213.457 166.635   4
  -5  -4   8 305.121 135.946  19
  -5  -4   8 274.144 155.181   4
  -5  -4   8 322.489 167.502   5
  -5  -4   7 33019.7 1533.85  19
  -5  -4   7 35298.3 1515.75   4
  -5  -4   7 37803.0 1539.04   5
  -5  -4   6 43958.3 1975.92  19
  -5  -4   6 46389.6 1952.01   4
  -5  -4   6 50353.8 1977.06   5
  -5  -4   5 25651.2 1146.52  19
  -5  -4   5 24772.2 1107.73   4
  -5  -4   4 13471.0 679.278  19
  -5  -4   4 13834.0 646.987   4
  -5  -4   3 9347.16 504.675  19
  -5  -4   3 10675.1 839.647  31
  -5  -4   2 9207.32 495.788  19
  -5  -4   2 9470.55 791.329  28
  -5  -4   2 10846.8 839.912  31
  -5  -4   1 5967.00 603.223  28
  -5  -4   0 25865.2 1062.48  17
  -5  -4   0 25345.6 1452.61  31
  -5  -4   0 26298.5 1390.99  28
  -5  -4  -1 31809.4 1375.43  17
  -5  -4  -1 33477.7 1780.24  31
  -5  -4  -2 9064.73 489.136  17
  -5  -4  -2 9060.73 462.017  27
   5   4   3 4332.08 420.599  10
  -5  -4  -3 5602.31 345.963  17
  -5  -4  -3 4904.02 295.472  27
  -5  -4  -4 17715.3 813.071  11
  -5  -4  -4 17608.6 795.552  27
  -5  -4  -5 2707.05 242.960   1
  -5  -4  -5 3018.27 240.891  11
  -5  -4  -6 3521.48 277.486   1
  -5  -4  -6 3858.09 266.946  11
  -5  -4  -7 3764.89 285.512   1
  -5  -4  -7 4422.51 329.799  12
  -5  -4  -7 4210.52 276.424  11
  -5  -4  -8 14000.7 684.087  12
   5   4   9 8881.99 387.670   9
  -5  -4  -9 9371.71 429.621  12
  -5  -4 -10 2863.74 204.249  26
  -5  -5  13 3566.95 197.834   4
  -5  -5  13 3848.28 216.297   5
  -5  -5  12 7478.06 359.919   4
  -5  -5  12 7749.97 381.629   5
  -5  -5  11 5762.23 332.998   4
  -5  -5  11 6062.23 353.519   5
  -5  -5  10 1272.14 171.861  19
  -5  -5  10 1377.11 186.943   4
  -5  -5  10 1390.14 205.772   5
  -5  -5   9 336.269 144.269  19
  -5  -5   9 218.269 155.106   4
  -5  -5   8 573.306 158.540  19
  -5  -5   8 744.873 168.253   4
  -5  -5   7 5422.05 381.102  19
  -5  -5   7 5633.86 356.525   4
  -5  -5   6 76785.9 3185.41  19
  -5  -5   6 68517.8 3555.15  33
  -5  -5   6 76749.5 3130.86   4
  -5  -5   6 79669.8 3160.05   5
  -5  -5   5 15268.9 752.784  19
  -5  -5   5 14338.5 735.050  18
  -5  -5   5 14668.5 1122.79  33
  -5  -5   5 14693.7 697.673   4
  -5  -5   5 15167.8 721.642   5
  -5  -5   4 5575.75 375.108  19
  -5  -5   4 5325.13 370.757  18
  -5  -5   4 6055.25 339.913   4
  -5  -5   4 6072.59 671.582  28
  -5  -5   3 103.752 119.817  19
  -5  -5   3 172.382 119.392   4
  -5  -5   3 24.7530 291.787  28
  -5  -5   3 148.586 190.051  25
  -5  -5   2 372.803 133.720  19
  -5  -5   2 286.090 116.526   4
  -5  -5   2 729.759 299.649  28
  -5  -5   2 353.224 142.049  21
  -5  -5   2 473.516 191.709  25
  -5  -5   1 3397.55 230.086   4
  -5  -5   1 3303.43 449.071  28
  -5  -5   1 3368.96 313.668  25
  -5  -5   1 3151.67 312.120  21
  -5  -5   0 294.714 150.483  17
  -5  -5   0 218.423 244.908  28
  -5  -5   0 125.583 325.147  21
  -5  -5  -1 42793.0 1845.24  17
  -5  -5  -1 41262.5 2317.48  33
  -5  -5  -1 44828.6 1831.65  27
  -5  -5  -2 39494.7 1656.03  17
  -5  -5  -2 33991.8 2049.68  33
  -5  -5  -2 38705.1 1622.29  27
  -5  -5  -3 3901.50 550.056  33
  -5  -5  -3 5260.84 314.110  27
  -5  -5  -4 215.793 122.827  27
  -5  -5  -5 50.7313 136.666  11
  -5  -5  -5 52.8050 169.587  17
  -5  -5  -6 265.089 158.211  12
  -5  -5  -6 158.158 135.667  11
  -5  -5  -7 2869.04 252.824  12
  -5  -5  -7 2901.32 216.890  11
  -5  -5  -8 2846.50 218.134  12
  -5  -5  -8 2539.28 228.554  26
  -5  -5  -9 4135.76 228.617  12
  -5  -5  -9 3694.33 240.057  26
   5   6 -13 9018.56 409.533   7
  -5  -6  12 16388.4 809.415  25
   5   6 -11 412.920 107.090  37
  -5  -6  10 3215.36 248.073  19
  -5  -6  10 2953.32 227.908   4
  -5  -6   9 8524.45 473.505   4
  -5  -6   9 9364.45 515.960   5
  -5  -6   8 721.865 177.470  19
  -5  -6   8 652.782 150.829   4
  -5  -6   8 844.333 184.901   5
  -5  -6   7 679.679 179.551  19
  -5  -6   7 567.841 151.919  18
  -5  -6   7 703.837 185.334   5
  -5  -6   7 495.252 149.980   4
  -5  -6   6 810.798 185.978  19
  -5  -6   6 591.098 170.510  18
  -5  -6   6 655.524 151.487   4
  -5  -6   6 814.195 182.735   5
  -5  -6   6 752.896 323.403  33
  -5  -6   5 186.558 149.016  19
  -5  -6   5 202.365 141.872  18
  -5  -6   5 161.743 122.935   4
  -5  -6   5 54.9664 279.982  28
  -5  -6   5 193.289 298.355  33
  -5  -6   5 199.793 244.644  25
  -5  -6   4 15241.3 778.160  19
  -5  -6   4 15386.4 1176.90  33
  -5  -6   4 14086.0 1074.81  28
  -5  -6   4 16239.1 918.869  25
  -5  -6   3 15841.6 764.200  19
  -5  -6   3 14043.3 1155.60  33
  -5  -6   3 14892.6 1040.12  28
  -5  -6   3 14882.0 848.907  25
  -5  -6   3 13940.6 741.928  21
  -5  -6   2 5108.11 362.679  19
  -5  -6   2 5553.73 693.982  33
  -5  -6   2 4751.55 533.719  28
  -5  -6   2 5376.35 435.690  25
  -5  -6   2 5047.70 373.911  21
  -5  -6   1 3875.00 607.856  33
  -5  -6   1 3698.82 345.171  25
  -5  -6   1 3785.21 367.944  21
  -5  -6   0 14443.7 699.253  17
  -5  -6   0 14490.7 1135.09  33
  -5  -6   0 13048.8 712.941  25
  -5  -6   0 12649.5 813.345  21
  -5  -6  -1 47688.2 1990.60  17
  -5  -6  -1 43355.3 2447.15  33
  -5  -6  -2 22771.2 1020.63  17
  -5  -6  -2 18783.9 1362.86  33
  -5  -6  -3 336.373 149.664  11
  -5  -6  -3 313.290 116.774  32
  -5  -6  -4 12566.5 609.464  12
  -5  -6  -4 12484.0 549.388  11
  -5  -6  -5 723.774 170.662  12
  -5  -6  -5 510.454 143.603  26
  -5  -6  -6 330.413 94.7271  13
  -5  -6  -7 12070.9 586.651  12
  -5  -6  -8 6015.91 318.873  12
  -5  -7  12 899.397 138.919  25
  -5  -7  11 953.665 108.276  19
  -5  -7  11 1032.70 197.297  25
  -5  -7  10 1484.02 163.926  19
  -5  -7   9 153.002 127.530  19
  -5  -7   9 109.855 206.155  25
  -5  -7   8 2354.61 250.369  19
  -5  -7   8 2281.61 352.639  25
  -5  -7   7 8327.34 495.166  19
  -5  -7   7 7165.98 416.352  32
  -5  -7   7 8665.97 619.003  25
  -5  -7   6 6121.05 421.247  19
  -5  -7   6 5023.92 607.363  33
  -5  -7   6 5754.37 362.731  32
  -5  -7   6 6173.36 530.196  25
  -5  -7   5 24583.1 1114.79  19
  -5  -7   5 23648.7 1232.19  25
  -5  -7   4 3667.64 308.256  19
  -5  -7   4 2338.97 493.978  33
  -5  -7   4 3306.03 393.640  25
  -5  -7   4 2853.78 282.669  21
  -5  -7   3 178.989 159.115  19
  -5  -7   3 88.4077 315.920  33
  -5  -7   3 263.590 165.459  21
  -5  -7   3 334.500 230.347  25
  -5  -7   2 184.341 212.329  21
  -5  -7   2 293.807 199.130  25
  -5  -7   1 354.885 306.735  33
  -5  -7   1 411.946 155.358  27
  -5  -7   1 346.386 335.610  21
  -5  -7   1 103.127 177.624  25
  -5  -7   0 4365.37 313.978  12
  -5  -7   0 5932.63 389.941  17
  -5  -7   0 5334.96 671.268  33
  -5  -7   0 6244.28 353.041  27
  -5  -7   0 5491.03 398.743  25
  -5  -7   0 5456.12 656.526  21
  -5  -7  -1 31742.1 1511.56  12
  -5  -7  -1 36763.7 1507.47  11
  -5  -7  -1 36583.9 1554.66  17
  -5  -7  -1 30520.4 1960.33  33
  -5  -7  -1 36476.0 1551.48  32
  -5  -7  -1 38984.7 1520.32  27
  -5  -7  -1 34170.6 1558.42  25
  -5  -7  -2 30678.3 1443.34  12
  -5  -7  -2 34353.7 1421.10  11
  -5  -7  -2 32571.0 1438.44  32
  -5  -7  -2 35724.6 1424.69  27
  -5  -7  -3 13533.6 681.435  12
  -5  -7  -3 14726.3 650.544  11
  -5  -7  -3 15309.8 653.091  27
  -5  -7  -4 4057.54 297.323  12
  -5  -7  -4 4263.15 265.550  11
  -5  -7  -4 3504.55 300.100  17
  -5  -7  -5 349.187 128.084  12
  -5  -7  -5 300.853 104.620  13
  -5  -7  -5 273.287 116.743  11
  -5  -7  -6 1288.11 116.873  13
  -5  -7  -6 1395.53 158.186  12
  -5  -8  11 2062.70 193.133  25
   5   8 -10 134.750 102.418   7
  -5  -8  10 87.5771 81.2069  19
  -5  -8   9 487.617 128.711  19
  -5  -8   9 385.355 187.892  25
  -5  -8   8 3002.75 255.376  19
  -5  -8   8 2857.16 330.630  25
  -5  -8   7 2935.85 262.187  19
  -5  -8   7 2541.31 201.478  32
  -5  -8   7 3009.03 349.936  25
  -5  -8   6 28933.6 1279.05  19
  -5  -8   6 27188.2 1211.90  32
  -5  -8   6 27838.2 1366.52  25
  -5  -8   5 35420.2 1466.77  19
  -5  -8   5 32100.3 1408.27  32
  -5  -8   5 33871.2 1557.71  25
  -5  -8   5 29682.2 1415.34  21
  -5  -8   4 26200.2 1146.04  19
  -5  -8   4 25145.3 1110.28  32
  -5  -8   4 24355.1 1222.40  25
  -5  -8   4 21761.9 1115.26  21
  -5  -8   3 3667.19 293.083  32
  -5  -8   3 3386.58 356.519  25
  -5  -8   3 3177.45 335.387  21
  -5  -8   2 2876.85 245.862  27
  -5  -8   2 2978.53 329.952  25
  -5  -8   2 3073.70 415.764  21
  -5  -8   1 20680.9 909.343  11
  -5  -8   1 21308.9 985.990  17
  -5  -8   1 21481.2 982.934  32
  -5  -8   1 20574.1 934.382  27
  -5  -8   1 21601.9 1031.67  25
  -5  -8   1 20176.5 1118.03  21
  -5  -8   0 13053.2 606.819  11
  -5  -8   0 12852.5 672.540  17
  -5  -8   0 13481.0 666.226  32
  -5  -8   0 13642.0 626.934  27
  -5  -8   0 12461.8 690.412  25
  -5  -8  -1 12905.5 607.763  11
  -5  -8  -1 13194.2 650.214  32
  -5  -8  -1 14282.0 625.630  27
  -5  -8  -1 12616.0 668.150  25
  -5  -8  -2 4461.89 256.258  11
  -5  -8  -2 3900.38 258.935  32
  -5  -8  -2 4507.74 261.217  27
  -5  -8  -3 4248.68 239.876  11
  -5  -8  -3 3345.76 285.613  17
  -5  -8  -3 3641.84 254.875  12
  -5  -8  -4 4017.82 225.265  11
  -5  -8  -4 3633.52 231.987  13
  -5  -8  -4 3345.73 240.983  12
  -5  -8  -5 2472.01 161.332  13
  -5  -8  -5 2285.97 177.823  12
  -5  -8  -6 160.570 73.4181  12
  -5  -9   9 1626.74 149.248  19
  -5  -9   8 6061.17 339.016  19
  -5  -9   8 5215.70 380.938  25
  -5  -9   7 14210.3 690.213  19
  -5  -9   7 14277.9 751.833  25
  -5  -9   6 6550.52 386.307  19
  -5  -9   6 5545.20 328.096  32
  -5  -9   6 6628.45 446.724  25
  -5  -9   5 8957.70 427.301  32
  -5  -9   5 8322.38 487.112  21
  -5  -9   5 9312.61 532.696  25
  -5  -9   4 7770.56 400.121  32
  -5  -9   4 5813.32 352.646  27
  -5  -9   4 7848.47 483.638  25
  -5  -9   4 6604.79 496.717  21
  -5  -9   3 899.748 152.247  32
  -5  -9   3 1031.30 400.963  21
  -5  -9   3 768.869 127.371  27
  -5  -9   3 750.221 213.941  25
  -5  -9   2 3179.12 273.771  17
  -5  -9   2 2751.65 550.042  21
  -5  -9   2 2878.68 204.533  27
  -5  -9   2 3197.97 297.449  25
  -5  -9   1 4461.47 314.019  17
  -5  -9   1 3821.54 276.676  32
  -5  -9   1 4079.41 245.885  27
  -5  -9   1 3970.26 320.183  25
  -5  -9   0 10624.0 544.659  17
  -5  -9   0 10151.8 518.059  32
  -5  -9   0 10754.2 489.906  27
  -5  -9   0 10083.0 549.987  25
  -5  -9  -1 6007.98 329.990  32
  -5  -9  -1 6090.66 352.829  25
  -5  -9  -2 9042.19 469.681  17
  -5  -9  -3 8576.37 371.771  13
  -5  -9  -3 6138.99 375.145  17
  -5  -9  -4 1855.86 132.677  13
  -5 -10   8 1335.43 145.966  25
  -5 -10   7 5667.14 295.395  17
  -5 -10   7 6910.62 368.254  25
  -5 -10   6 3338.29 223.253  17
  -5 -10   6 3978.45 282.401  25
  -5 -10   5 4741.93 296.693  17
  -5 -10   5 5645.24 353.319  25
  -5 -10   4 2039.55 189.929  17
  -5 -10   4 1765.14 209.181  25
  -5 -10   3 32.5881 131.733  17
  -5 -10   3 125.453 82.4794  32
  -5 -10   3 162.163 131.446  25
  -5 -10   2 537.308 88.1585  13
  -5 -10   2 522.729 144.939  17
  -5 -10   2 501.793 139.840  25
  -5 -10   1 439.302 90.0255  13
  -5 -10   1 457.773 144.139  17
  -5 -10   1 517.493 123.492  25
  -5 -10   0 4962.70 250.075  13
  -5 -10   0 4024.31 266.690  25
  -5 -10  -1 4747.67 237.140  13
  -5 -10  -1 3908.14 253.682  17
  -5 -11   4 427.295 81.1417  17
  -5 -11   3 422.217 88.0237  17
  -5 -11   2 81.9829 77.1057  17
   6 -11  -1 1346.17 105.523  22
   6 -11   0 4130.59 216.242  22
   6 -11   1 2776.63 194.291  15
   6 -11   2 526.926 90.6833  16
   6 -11   2 972.413 106.420  15
   6 -10  -4 1913.74 146.215  22
   6 -10  -3 135.836 92.4160  15
   6 -10  -2 640.281 145.376  15
   6 -10  -2 985.360 131.672  22
   6 -10  -1 3249.67 275.815  15
   6 -10  -1 4161.95 251.417  22
   6 -10   0 3619.18 237.836  22
   6 -10   1 9972.71 554.943  15
   6 -10   1 10851.6 505.339  22
   6 -10   2 6735.24 397.344  15
   6 -10   2 6383.71 339.868  22
   6 -10   2 7225.35 411.037  20
   6 -10   3 2003.37 192.126  15
   6 -10   4 877.939 118.975  15
   6 -10   4 1206.81 162.104  20
   6 -10   5 42.5575 71.1121  21
   6  -9  -7 6445.19 321.330  24
   6  -9  -6 5928.84 316.344  24
   6  -9  -6 5126.47 282.568  22
   6  -9  -5 6524.23 368.374  22
   6  -9  -5 7465.57 386.728  23
   6  -9  -5 6932.21 390.338  24
   6  -9  -4 2112.00 212.553  15
   6  -9  -4 2674.27 227.083  22
   6  -9  -4 2980.88 231.924  23
   6  -9  -4 2934.12 244.453  24
   6  -9  -3 78.0438 139.491  15
   6  -9  -3 84.7948 137.295  24
   6  -9  -3 244.115 134.542  23
   6  -9  -2 6039.55 421.895  15
   6  -9  -2 6088.36 378.773  22
   6  -9  -2 6677.54 393.636  23
   6  -9  -1 642.977 178.033  20
   6  -9  -1 1138.98 174.801  22
   6  -9  -1 1105.91 173.999  23
   6  -9   0 7359.03 480.019  20
   6  -9   0 8133.97 444.746  22
   6  -9   1 26281.3 1194.01  20
   6  -9   1 24938.8 1118.06  22
   6  -9   2 7822.52 442.033   6
   6  -9   2 7302.90 405.033  22
   6  -9   3 332.827 160.254   6
   6  -9   3 307.413 149.447  15
   6  -9   3 407.187 181.265  20
   6  -9   3 455.298 157.637  21
   6  -9   3 458.904 108.739  22
   6  -9   4 1468.23 202.841   6
   6  -9   4 1409.24 186.171  15
   6  -9   4 1674.81 223.411  20
   6  -9   4 1539.30 204.892  21
   6  -9   5 77.1262 138.747  20
   6  -9   5 177.519 127.923  21
   6  -9   6 2108.24 191.383  20
   6  -9   6 1759.36 194.615  21
   6  -9   7 2539.64 207.693  21
   6  -8  -8 18010.0 789.943  24
   6  -8  -7 4006.71 263.639  22
   6  -8  -7 5139.14 301.348  24
   6  -8  -6 2460.15 231.196  14
   6  -8  -6 2413.87 220.738  22
   6  -8  -6 2653.11 235.141  23
   6  -8  -6 2778.06 239.104  24
   6  -8  -5 2144.51 231.987  14
   6  -8  -5 2272.07 236.645  22
   6  -8  -5 2439.80 237.605  23
   6  -8  -5 2242.49 237.469  24
   6  -8  -4 4962.77 364.447  14
   6  -8  -4 4832.93 347.697  23
   6  -8  -4 4758.70 350.017  24
   6  -8  -3 2222.05 254.670  22
   6  -8  -3 2055.71 242.387  23
   6  -8  -3 2107.85 245.243  24
   6  -8  -2 2824.79 274.770  22
   6  -8  -2 2876.31 266.878  23
   6  -8  -2 2298.68 258.797  20
   6  -8  -2 2901.37 282.630  24
   6  -8  -1 4308.55 316.022   6
   6  -8  -1 5005.51 388.961  20
   6  -8  -1 5713.21 374.838  22
   6  -8  -1 5617.21 369.574  23
   6  -8   0 20166.3 971.950   6
   6  -8   0 21280.5 1054.54  20
   6  -8   0 22100.8 1002.13  22
   6  -8   0 22232.3 1006.60  23
   6  -8   1 10879.9 576.495   6
   6  -8   1 11685.4 652.682  20
   6  -8   1 11752.1 579.739  22
   6  -8   2 6572.39 411.387   6
   6  -8   2 5440.51 423.626  21
   6  -8   2 6379.35 375.242  22
   6  -8   3 1052.93 197.628   6
   6  -8   3 1032.18 236.266  20
   6  -8   3 901.822 207.562  21
   6  -8   3 993.528 146.608  22
   6  -8   4 384.376 139.491   8
   6  -8   4 518.610 190.162  20
   6  -8   4 532.357 187.893  21
   6  -8   5 5200.32 359.306   6
   6  -8   5 5432.71 335.543   8
   6  -8   5 4509.49 324.213  15
   6  -8   5 5792.93 393.107  20
   6  -8   5 5365.75 393.020  21
   6  -8   6 3542.22 266.748   8
   6  -8   6 3900.79 288.874   6
   6  -8   6 3602.66 294.854  20
   6  -8   6 3636.62 311.912  21
   6  -8   7 237.942 124.743   6
   6  -8   7 126.442 111.019   8
   6  -8   7 139.562 104.530  20
   6  -8   7 116.335 126.305  21
   6  -8   8 1594.95 150.920   8
   6  -7  -9 2379.01 188.532  24
   6  -7  -8 6953.81 386.447  14
   6  -7  -8 7567.85 400.293  24
   6  -7  -7 2905.29 254.838  14
   6  -7  -7 2674.34 251.024  24
   6  -7  -7 2953.82 251.075  22
   6  -7  -7 2699.62 262.946  23
   6  -7  -6 4367.71 339.005  14
   6  -7  -6 4598.12 346.071  24
   6  -7  -6 5083.19 351.968  22
   6  -7  -6 4457.00 346.992  23
   6  -7  -5 1320.02 214.713  14
   6  -7  -5 1663.38 223.012  24
   6  -7  -5 1364.46 219.774  22
   6  -7  -5 1522.83 226.734  23
   6  -7  -4 3698.20 328.907  14
   6  -7  -4 4029.79 332.906  23
   6  -7  -4 3583.21 315.340  24
   6  -7  -3 104.252 164.747  14
   6  -7  -3 143.464 135.133  20
   6  -7  -3 104.881 315.636  29
   6  -7  -3 15.9701 156.420  24
   6  -7  -3 126.128 167.989  22
   6  -7  -3 203.299 155.377  23
   6  -7  -2 460.121 187.051  20
   6  -7  -2 290.573 393.414  29
   6  -7  -2 926.260 202.160  24
   6  -7  -2 850.195 198.993  22
   6  -7  -2 883.197 195.171  23
   6  -7  -1 21744.1 1017.62   6
   6  -7  -1 22200.4 1103.47  20
   6  -7  -1 24415.6 1089.16  22
   6  -7  -1 23641.9 1072.57  23
   6  -7  -1 22185.4 1080.10  24
   6  -7   0 4763.26 344.993   6
   6  -7   0 5088.32 412.243  20
   6  -7   0 5317.30 375.767  22
   6  -7   0 5330.84 364.800  23
   6  -7   1 712.719 226.641  20
   6  -7   1 1014.64 189.327   6
   6  -7   1 685.619 415.330  29
   6  -7   1 673.214 188.549  21
   6  -7   1 1088.37 186.295  22
   6  -7   1 1035.04 182.265  23
   6  -7   2 2919.57 270.530   6
   6  -7   2 2227.53 518.542  29
   6  -7   2 2652.08 238.823  22
   6  -7   2 2524.99 297.023  21
   6  -7   3 4172.48 319.973   6
   6  -7   3 3896.52 295.806   8
   6  -7   3 3705.11 265.112  22
   6  -7   4 1266.54 194.247   8
   6  -7   5 2618.02 258.894   6
   6  -7   5 2088.30 233.096   8
   6  -7   5 2291.19 280.635  20
   6  -7   6 4859.28 328.750   6
   6  -7   6 3970.74 313.721   8
   6  -7   6 4394.85 342.714  20
   6  -7   7 8157.11 439.478   8
   6  -7   7 7513.80 428.619   6
   6  -7   7 6840.83 433.088  20
   6  -7   8 4812.41 302.641   6
   6  -7   8 5259.12 317.660   8
   6  -7   9 3615.70 222.796   8
   6  -7   9 2512.46 228.953  21
   6  -6 -10 303.291 104.172  24
   6  -6  -9 1827.93 173.706  14
   6  -6  -9 1593.52 190.897  24
   6  -6  -8 12071.3 620.027  14
   6  -6  -8 11889.1 632.692  24
   6  -6  -8 11779.5 619.809  22
   6  -6  -8 12902.4 655.205  23
   6  -6  -7 30407.4 1376.01  14
   6  -6  -7 30218.0 1381.56  24
   6  -6  -7 32037.7 1387.10  22
   6  -6  -7 30256.1 1401.85  23
   6  -6  -6 9749.47 563.957  14
   6  -6  -6 9585.82 564.477  24
   6  -6  -6 9734.06 570.671  22
   6  -6  -6 9632.08 577.649  23
   6  -6  -5 466.534 172.715  14
   6  -6  -5 178.360 277.830  29
   6  -6  -5 272.107 170.910  24
   6  -6  -5 655.766 191.464  23
   6  -6  -4 3860.43 327.562  14
   6  -6  -4 3540.71 594.104  29
   6  -6  -4 3602.18 316.021  24
   6  -6  -4 3537.85 322.795  23
   6  -6  -3 3334.85 306.945  14
   6  -6  -3 3191.83 288.192  20
   6  -6  -3 3449.62 310.273   2
   6  -6  -3 2968.02 588.814  29
   6  -6  -3 3357.21 301.738  24
   6  -6  -3 3602.62 325.682  22
   6  -6  -3 3259.22 300.852  23
   6  -6  -2 6525.85 454.203  14
   6  -6  -2 6240.30 443.150  20
   6  -6  -2 6946.89 452.766   2
   6  -6  -2 6288.35 820.691  29
   6  -6  -2 7025.69 451.577  22
   6  -6  -2 7558.38 446.652  23
   6  -6  -2 6619.75 435.145  24
   6  -6  -1 6773.95 412.975   6
   6  -6  -1 7702.65 469.282  22
   6  -6  -1 7927.32 456.859  23
   6  -6  -1 7335.95 459.928  24
   6  -6   0 55269.3 2207.50   6
   6  -6   0 53600.1 2250.60   2
   6  -6   0 52772.1 2245.27  22
   6  -6   0 51786.8 2232.28  23
   6  -6   0 51504.0 2257.15  24
   6  -6   1 183.859 185.876   2
   6  -6   1 5.47242 145.835   6
   6  -6   1 34.5798 349.049  29
   6  -6   1 84.4929 138.538  22
   6  -6   1 246.936 134.777  23
   6  -6   2 782.466 202.476   2
  -6   6  -2 1060.59 185.209   3
   6  -6   2 991.965 170.268   8
   6  -6   2 942.697 182.181   6
   6  -6   2 941.007 425.606  29
   6  -6   2 677.284 306.058  30
   6  -6   2 796.560 155.133  22
   6  -6   3 414.186 337.195  29
   6  -6   3 413.174 317.667  30
  -6   6  -3 789.217 167.068   3
   6  -6   3 947.575 179.585   8
   6  -6   4 1737.15 465.449  29
   6  -6   4 1284.66 437.197  30
  -6   6  -4 3460.15 253.494   3
   6  -6   4 2585.77 266.739   8
   6  -6   4 2720.84 265.835   6
  -6   6  -5 222.987 141.464   3
   6  -6   5 47.0958 164.712   6
   6  -6   5 200.111 154.994   8
   6  -6   6 13310.0 680.788   6
   6  -6   6 14050.1 702.798   8
   6  -6   7 10771.7 559.274   6
   6  -6   7 11072.4 578.297   8
   6  -6   7 10105.4 579.975  20
   6  -6   8 12634.4 601.103   8
   6  -6   8 10793.0 561.477   6
   6  -6   9 1354.51 136.234   6
   6  -6  10 495.691 96.3607   8
   6  -6  10 222.738 99.6237  21
   6  -5 -11 1791.00 155.193  24
   6  -5 -10 1483.10 178.721  24
   6  -5  -9 175.632 106.974  14
   6  -5  -9 70.3963 135.588  24
   6  -5  -9 92.5496 130.763  22
   6  -5  -9 185.149 166.309  23
   6  -5  -8 4421.70 325.902  14
   6  -5  -8 4236.97 339.366  24
   6  -5  -8 4590.43 347.546  22
   6  -5  -8 4537.08 368.516  23
   6  -5  -7 14794.8 766.476  14
   6  -5  -7 14526.5 779.905  24
   6  -5  -7 15747.0 801.802  22
   6  -5  -7 15967.4 815.846  23
   6  -5  -6 25240.9 1209.32  14
   6  -5  -6 25868.8 1219.62  24
   6  -5  -6 28011.3 1245.31  22
   6  -5  -6 26131.6 1244.41  23
   6  -5  -5 3412.86 302.459  14
   6  -5  -5 3309.98 283.598   2
   6  -5  -5 2617.98 534.350  29
   6  -5  -5 3448.84 305.538  24
   6  -5  -5 3260.83 313.522  23
   6  -5  -4 542.703 166.429  14
   6  -5  -4 518.539 177.909   2
   6  -5  -4 286.573 347.128  29
   6  -5  -4 547.085 164.745  24
   6  -5  -4 321.628 176.641  22
   6  -5  -4 358.799 174.184  23
   6  -5  -3 18986.2 914.594  14
   6  -5  -3 18441.6 884.703   2
   6  -5  -3 16212.8 1324.57  29
   6  -5  -3 18150.5 894.105  24
   6  -5  -3 17995.7 918.034  22
   6  -5  -3 19850.5 914.040  23
   6  -5  -2 4067.55 325.994  14
   6  -5  -2 4415.65 327.866   2
   6  -5  -2 3274.39 611.196  29
   6  -5  -2 4261.16 344.795  22
   6  -5  -2 4073.68 308.969  23
   6  -5  -2 4476.40 320.655  24
   6  -5  -1 24080.6 991.722   6
   6  -5  -1 21961.5 1045.46  22
   6  -5  -1 21436.7 1022.63  23
   6  -5  -1 21682.2 1032.78  24
   6  -5   0 51187.4 1974.48   6
   6  -5   0 51883.6 2016.12   2
   6  -5   0 47218.2 2553.51  29
   6  -5   0 45550.1 2003.38  22
   6  -5   0 46550.1 1995.66  23
   6  -5   0 46958.5 2018.55  24
   6  -5   1 6153.20 359.218   6
   6  -5   1 5477.93 335.707   7
   6  -5   1 6329.38 393.092   2
   6  -5   1 4763.93 610.627  30
   6  -5   1 5221.35 719.021  29
   6  -5   1 5710.01 363.879  22
   6  -5   1 5986.08 360.398  23
   6  -5   2 7668.47 428.585   8
   6  -5   2 7276.36 420.900   6
   6  -5   2 6962.09 399.748   7
   6  -5   2 8401.96 454.836   2
   6  -5   2 7074.85 818.307  29
   6  -5   3 444.156 163.741   2
  -6   5  -3 347.546 163.825   3
   6  -5   3 416.727 153.024   8
   6  -5   3 274.107 145.363   7
   6  -5   3 119.320 322.507  29
   6  -5   3 230.997 248.894  30
   6  -5   4 391.731 160.135   2
  -6   5  -4 630.858 171.095   3
   6  -5   4 498.286 158.832   6
   6  -5   4 290.213 153.806   8
   6  -5   4 28.0998 313.406  29
   6  -5   4 218.565 282.291  30
   6  -5   5 4209.06 333.580   8
   6  -5   5 3781.23 305.852   6
  -6   5  -5 4727.47 319.198   3
   6  -5   6 2397.94 238.212   6
   6  -5   6 1950.65 248.815   8
  -6   5  -6 1959.48 225.908   3
   6  -5   7 10285.7 555.985   6
   6  -5   7 11760.5 606.546   8
   6  -5   8 8871.18 468.758   6
   6  -5   9 2293.67 183.714   6
  -6   5  -9 2828.11 195.068   1
   6  -5  10 6936.04 371.548   8
   6  -4 -11 860.727 139.491  24
   6  -4 -10 16638.2 810.757  24
   6  -4 -10 15789.2 786.006  22
   6  -4  -9 5607.16 399.547  24
   6  -4  -9 5901.72 404.265  22
   6  -4  -9 6480.04 447.461  23
   6  -4  -8 4240.33 321.604  14
   6  -4  -8 4689.80 355.120  24
   6  -4  -8 4862.19 392.907  23
   6  -4  -7 4543.52 335.579  14
   6  -4  -7 4700.87 356.522  24
   6  -4  -7 4601.14 392.271  23
   6  -4  -6 6375.91 407.934   2
   6  -4  -6 7653.30 452.804  14
   6  -4  -6 7711.15 459.649  24
   6  -4  -6 7082.31 485.858  23
   6  -4  -5 6596.51 415.124  14
   6  -4  -5 6453.78 394.429   2
   6  -4  -5 5486.57 699.530  29
   6  -4  -5 6486.43 415.326  24
   6  -4  -5 6331.25 443.733  23
   6  -4  -4 863.377 162.932  14
   6  -4  -4 849.833 179.267   2
   6  -4  -4 353.529 337.142  29
   6  -4  -4 942.805 170.305  24
   6  -4  -4 928.239 182.192  23
   6  -4  -3 2935.41 254.718  14
   6  -4  -3 2504.00 244.336   2
   6  -4  -3 2548.64 513.334  29
  -6   4   3 3070.16 399.512  36
   6  -4  -3 2747.40 242.344  24
   6  -4  -3 2680.08 250.782  23
   6  -4  -2 6371.20 402.991  14
   6  -4  -2 6302.34 383.464   2
   6  -4  -2 6096.24 736.133  29
   6  -4  -2 6270.95 377.128  24
   6  -4  -2 5908.48 373.273  23
   6  -4  -1 8999.12 434.452   7
   6  -4  -1 8770.16 437.361   6
   6  -4  -1 8526.68 476.512  22
   6  -4  -1 9063.80 467.909  23
   6  -4  -1 8300.89 464.514  24
   6  -4   0 53403.4 2069.56   2
   6  -4   0 53857.4 2037.47   6
   6  -4   0 49611.8 2024.80   7
   6  -4   0 42715.3 2346.43  30
   6  -4   0 49642.2 2592.13  29
   6  -4   0 46384.7 2066.31  22
   6  -4   0 44903.8 2059.29  24
   6  -4   1 44702.4 2489.42  30
   6  -4   1 54753.9 2680.71  29
   6  -4   1 50440.6 2110.06   6
   6  -4   1 55791.0 2140.44   2
   6  -4   1 49634.3 2100.95   7
   6  -4   2 21744.7 1461.65  30
   6  -4   2 24250.4 1574.84  29
   6  -4   2 26201.5 1085.22   6
   6  -4   2 25078.9 1094.38   8
   6  -4   2 24085.9 1071.94   7
   6  -4   2 24014.9 1093.73   2
   6  -4   3 4704.71 638.900  30
   6  -4   3 5122.75 656.815  29
  -6   4  -3 6107.03 373.725   3
   6  -4   3 5533.01 338.240   7
   6  -4   3 5326.66 353.501   8
   6  -4   3 4771.01 342.695   2
   6  -4   4 5017.89 688.562  30
   6  -4   4 4406.91 621.151  29
   6  -4   4 5628.67 362.885   6
   6  -4   4 5984.44 388.320   8
   6  -4   4 5289.80 349.378   2
   6  -4   4 6634.83 369.794   7
  -6   4  -4 6093.63 385.132   3
   6  -4   5 4466.90 660.059  30
   6  -4   5 4801.55 341.738   6
   6  -4   5 5336.11 371.238   8
  -6   4  -5 5839.04 371.904   3
   6  -4   6 29635.9 1253.30   8
  -6   4  -6 27000.7 1221.78   3
   6  -4   6 25806.8 1192.78   6
   6  -4   7 22114.6 940.339   6
   6  -4   7 19857.4 889.311   9
   6  -4   8 2282.24 209.716   6
   6  -4   8 2475.60 190.643   9
   6  -4   9 271.542 141.005   8
  -6   4  -9 230.806 136.213   1
   6  -4   9 352.400 108.258   9
  -6   4 -10 1970.02 163.698   1
   6  -4  10 2002.78 184.837   8
   6  -4  11 26.5798 63.8869   8
   6  -3 -11 279.855 119.350  24
   6  -3 -11 407.568 163.657  23
   6  -3 -10 3288.35 276.546  24
   6  -3  -9 8551.38 511.142  24
   6  -3  -8 24798.3 1151.44  24
   6  -3  -7 9177.24 531.685  24
   6  -3  -6 9875.71 511.372   2
   6  -3  -6 10729.3 559.074  24
   6  -3  -5 508.878 139.955  14
   6  -3  -5 683.773 157.623   2
   6  -3  -5 507.489 334.030  29
   6  -3  -5 701.353 148.668  24
   6  -3  -4 1772.07 186.512  14
   6  -3  -4 1558.14 439.309  29
   6  -3  -4 1340.54 190.224  23
   6  -3  -3 2370.72 211.322  14
  -6   3   3 2071.05 335.777  28
   6  -3  -3 2026.14 479.671  29
  -6   3   3 2582.60 376.043  36
   6  -3  -3 2048.33 211.436  23
  -6   3   2 32255.2 1604.46  28
  -6   3   1 12958.7 801.094  28
   6  -3   0 88170.7 4007.85  29
   6  -3   0 89544.0 3461.09   6
   6  -3   0 82668.4 3461.86   7
   6  -3   1 9364.87 870.732  29
   6  -3   1 8753.28 460.919   6
   6  -3   1 9079.05 458.035   7
   6  -3   2 17738.1 1218.55  29
   6  -3   2 17382.8 785.553   8
   6  -3   2 16526.2 773.947   7
   6  -3   3 2385.87 473.915  29
   6  -3   3 2446.32 222.094   2
  -6   3  -3 2937.62 261.715   3
   6  -3   3 2636.27 226.770   6
   6  -3   3 2901.09 234.601   7
   6  -3   3 2682.54 236.872   8
   6  -3   4 924.070 349.416  29
   6  -3   4 1410.31 191.473   8
   6  -3   4 1105.20 174.636   6
  -6   3  -4 1535.27 216.346   3
  -6   3  -5 18004.0 841.884   3
   6  -3   5 16015.5 796.503   6
   6  -3   5 18221.1 844.187   8
   6  -3   6 9965.14 529.929   6
   6  -3   6 11278.6 592.245   8
  -6   3  -6 10761.4 578.348   3
   6  -3   7 8357.82 449.073   6
   6  -3   8 2584.42 256.710   8
   6  -3   8 2251.77 192.843   9
   6  -3   9-5.42019 140.352   8
   6  -3   9 40.6074 112.211   9
  -6   3 -10 995.111 148.554   1
   6  -3  10 962.043 149.529   8
   6  -3  10 863.021 117.537   9
  -6   3 -11 1542.90 119.340   1
   6  -3  11 1250.27 125.524   8
   6  -2 -12 202.155 132.603  23
  -6   2  11-26.0557 104.707   4
   6  -2 -11-4.96375 108.719  24
  -6   2  10 317.273 130.428   4
   6  -2 -10 391.659 143.483  24
  -6   2   9 9498.09 481.381   4
   6  -2  -9 8690.67 520.502  24
  -6   2   8 21845.8 954.904   4
   6  -2  -8 20633.2 1000.05  24
  -6   2   7 32969.6 1401.36   4
  -6   2   6 24703.0 1067.79   4
   6  -2  -6 25665.6 1077.37   7
   6  -2  -5 4976.86 631.907  29
   6  -2  -5 5405.16 317.281   7
  -6   2   5 5319.75 307.957   4
   6  -2  -4 23848.9 1088.16  10
   6  -2  -4 19985.1 1383.65  29
  -6   2   4 25895.5 1256.77  36
  -6   2   4 21223.9 955.797   4
   6  -2  -3 32907.1 1522.88  10
  -6   2   3 30814.9 1707.07  28
  -6   2   3 36548.1 1692.29  36
   6  -2  -2 9648.68 605.148  10
  -6   2   2 9164.52 719.199  28
  -6   2   2 10140.3 722.266  36
   6  -2  -1 5680.23 452.851  10
  -6   2   1 5691.08 531.938  28
   6  -2   0 4304.13 411.369  10
  -6   2   0 4874.35 470.828  28
   6  -2   1 12475.5 622.191   7
   6  -2   1 14193.9 625.177   6
   6  -2   2 1230.07 377.327  29
   6  -2   3 1968.65 442.283  29
  -6   2  -3 2538.67 247.185   3
   6  -2   3 2469.33 214.912   6
   6  -2   4 4236.57 280.386   6
   6  -2   4 4095.18 291.451   7
  -6   2  -4 4241.24 317.149   3
   6  -2   5 3213.77 259.634   6
   6  -2   5 3339.69 281.787   7
  -6   2  -5 4077.23 318.639   3
   6  -2   6 4510.68 695.032  30
   6  -2   6 5445.84 352.386   6
   6  -2   7 601.887 323.696  30
  -6   2  -7 801.714 418.723  35
   6  -2   7 673.975 145.597   6
   6  -2   8 5553.72 339.325   6
   6  -2   8 7640.06 432.972   8
   6  -2   9 1393.79 199.565   8
   6  -2   9 1387.82 162.801   9
   6  -2  10 2246.59 203.855   8
  -6   2 -10 2608.82 217.346   1
   6  -2  10 2438.25 182.531   9
   6  -2  11 130.594 79.6432   8
  -6   2 -11 298.791 93.0445   1
   6  -2  11 245.413 79.8865   9
   6  -1 -13 4938.37 310.423  23
  -6   1  12 445.002 114.413   4
  -6   1  11 1067.59 161.396   4
  -6   1  10 7031.55 404.076   4
   6  -1  -9 18508.9 845.591   7
  -6   1   9 18076.0 847.037   4
  -6   1   8 10237.8 530.733   4
  -6   1   7 231.701 134.062   4
  -6   1   6 12186.2 888.501  31
  -6   1   6 11365.3 556.728   4
   6  -1  -6 12023.9 577.623   7
   6  -1  -5 264.212 178.745  10
   6  -1  -5 200.383 138.134   7
  -6   1   5 157.932 116.242   4
   6  -1  -4 336.626 211.753  10
  -6   1   4 381.419 114.242   4
   6  -1  -3 3607.59 361.743  10
  -6   1   3 4281.03 458.559  36
   6  -1  -2 3208.80 349.549  10
  -6   1   2 2757.53 437.381  28
  -6   1   2 3916.20 444.125  36
   6  -1  -1 110600. 4572.39  10
  -6   1   1 111432. 4760.60  28
  -6   1   1 109222. 4706.02  36
  -6   1   0 29132.4 1526.20  28
  -6   1  -1 1908.81 340.679  28
   6  -1   2 2081.56 325.622  10
   6  -1   2 2234.44 202.615   7
   6  -1   3 1657.65 179.171   6
   6  -1   3 1673.70 194.412   7
  -6   1  -4 40.9419 273.087  31
   6  -1   4 177.739 146.988   7
   6  -1   4 267.274 127.847   6
   6  -1   5 3283.95 257.030   6
  -6   1  -5 3926.01 315.219   3
   6  -1   5 3534.18 279.335   7
  -6   1  -6 15175.4 1082.62  36
  -6   1  -6 15411.2 1323.05  35
   6  -1   6 15210.6 730.092   6
  -6   1  -6 17240.5 806.736   3
  -6   1  -7 18720.5 1591.14  35
   6  -1   7 20581.9 929.273   6
   6  -1   8 11086.7 595.965   8
  -6   1  -9 2465.19 250.807   1
   6  -1   9 1980.88 222.942   8
  -6   1 -10 242.090 140.151   1
   6  -1  10 105.650 111.877   8
   6  -1  11 972.294 106.691   8
  -6   1 -11 1567.99 132.194   1
  -6   0  13 396.929 97.7172   4
  -6   0  12 109.316 123.942   4
  -6   0  11 584.661 153.965   4
  -6   0  10 3460.24 277.695   4
  -6   0   9 9157.12 477.005   4
  -6   0   9 7500.23 429.908   5
  -6   0   8 12774.9 616.871   4
  -6   0   8 11622.3 585.990   5
  -6   0   7 17195.2 781.247   4
  -6   0   7 16235.9 758.473   5
   6   0  -6 2432.36 308.435  10
  -6   0   6 2673.54 430.200  31
  -6   0   6 1937.25 213.566  34
  -6   0   6 2427.78 209.346   4
  -6   0   6 2051.36 181.922   5
   6   0  -5 88.9144 212.841  10
  -6   0   5-64.9545 285.688  31
  -6   0   5-8.41268 111.299   4
  -6   0   4 10244.0 722.809  36
  -6   0   4 8812.94 454.580   4
   6   0  -4 9250.21 474.106   7
  -6   0   3 1886.03 357.209  36
   6   0  -2 33682.0 1598.70  10
  -6   0   2 32172.9 1767.32  28
  -6   0   2 35342.7 1714.30  36
  -6   0   1 30880.6 1614.23  28
  -6   0   1 28473.0 1526.21  36
  -6   0   0 46079.7 2231.75  28
   6   0   1 34407.4 1539.94  10
  -6   0  -1 36187.6 1709.54  28
  -6   0  -1 31730.3 1336.49   4
   6   0   1 30040.2 1337.76   7
   6   0   2 21076.8 1086.04  10
  -6   0  -2 22746.1 1308.02  31
  -6   0  -2 19918.9 1201.48  36
  -6   0  -2 18701.4 1188.14  35
  -6   0  -2 19849.0 920.047   3
   6   0   2 20231.8 900.664   7
   6   0   3 13110.4 794.275  10
  -6   0  -3 14235.2 974.671  31
  -6   0  -3 13636.5 934.815  36
  -6   0  -3 11649.6 949.955  35
  -6   0  -3 12840.1 630.444  34
  -6   0  -3 12802.1 648.397   3
   6   0   3 12874.2 621.547   7
  -6   0  -4 17011.1 1087.11  31
  -6   0  -4 17385.9 1099.51  36
  -6   0  -4 15827.7 1213.05  35
  -6   0  -4 15225.2 754.375  34
   6   0   4 17561.6 764.367   6
   6   0   4 16411.6 767.176   7
  -6   0  -4 16815.1 802.082   3
  -6   0  -5 22101.8 1292.45  36
  -6   0  -5 22329.4 1540.54  35
   6   0   5 21291.4 932.849   6
   6   0   5 20339.2 945.088   7
  -6   0  -5 20644.6 982.940   3
  -6   0  -6 28485.8 1896.63  35
   6   0   6 26767.9 1167.08   6
  -6   0  -6 27660.9 1242.62   3
  -6   0  -7 11779.9 1153.45  35
   6   0   7 10606.2 518.096   6
   6   0   8 4672.27 341.237   8
   6   0   9 3593.93 276.465   8
   6   0  10 131.042 105.193   9
   6   0  10-3.53321 102.371   8
   6   0  11 739.501 90.6094   9
  -6  -1  13 970.699 126.592   4
  -6  -1  12 529.208 145.081   4
  -6  -1  12 340.943 104.105   5
  -6  -1  11 15990.2 698.257   4
  -6  -1  11 12813.0 652.825   5
  -6  -1  10 4080.04 302.092   4
  -6  -1  10 3772.17 274.577   5
  -6  -1   9 12137.9 600.174   4
  -6  -1   9 10756.2 571.890   5
  -6  -1   8 4846.79 332.971   4
  -6  -1   8 4560.20 308.987   5
  -6  -1   7 10342.2 531.946   4
  -6  -1   7 10065.4 519.453   5
  -6  -1   6 1692.30 379.518  31
  -6  -1   6 1488.36 193.580  34
  -6  -1   6 1706.62 187.029   4
  -6  -1   6 1446.95 170.179   5
  -6  -1   5 44.5276 296.878  31
  -6  -1   5 69.6392 148.164  34
  -6  -1   5 67.3346 103.574   5
  -6  -1   5-48.3369 118.258   4
  -6  -1   4 111.611 288.336  31
  -6  -1   4 241.396 156.468  34
  -6  -1   4 231.781 117.807   4
  -6  -1   3 41953.3 2057.38  31
  -6  -1   3 43755.7 1972.01  36
  -6  -1   3 37194.9 1644.78  34
  -6  -1   2 27481.7 1539.95  31
  -6  -1   2 28592.5 1530.94  28
  -6  -1   2 29502.8 1444.40  36
  -6  -1   2 23780.3 1129.05  34
  -6  -1   1 141941. 5754.63  28
  -6  -1   1 126945. 5610.88  36
  -6  -1   0 30967.5 1676.90  31
  -6  -1   0 29158.6 1282.77  34
   6   1   1 18129.9 966.319  10
  -6  -1  -1 16955.6 1141.37  31
  -6  -1  -1 16702.5 1055.02  36
  -6  -1  -1 17818.7 804.961  34
   6   1   1 16306.1 769.548   7
   6   1   2 3160.78 378.798  10
  -6  -1  -2 3897.27 525.826  31
  -6  -1  -2 2174.22 417.148  36
  -6  -1  -2 2888.52 419.649  35
  -6  -1  -2 3139.67 267.494  34
  -6  -1  -2 2956.16 247.919   3
   6   1   2 2966.80 236.947   7
   6   1   3 7472.31 564.574  10
  -6  -1  -3 6640.19 353.645  27
  -6  -1  -3 8670.78 735.775  31
  -6  -1  -3 7584.77 668.618  36
  -6  -1  -3 7224.02 715.442  35
  -6  -1  -3 7470.97 417.160  34
   6   1   3 7767.79 407.313   7
  -6  -1  -3 7258.02 427.136   3
   6   1   4 5056.15 478.195  10
  -6  -1  -4 5980.03 597.768  36
  -6  -1  -4 4955.08 660.744  35
   6   1   4 5622.53 339.088   7
  -6  -1  -4 5338.02 363.594   3
  -6  -1  -5 9280.57 466.713  11
  -6  -1  -5 9922.65 973.025  35
   6   1   5 8948.11 477.657   6
   6   1   5 9340.27 493.402   7
  -6  -1  -5 10165.8 540.934   3
  -6  -1  -6 25300.3 1072.18  11
  -6  -1  -6 26125.5 1806.60  35
   6   1   6 24720.9 1078.68   6
  -6  -1  -7 19752.1 855.705  11
  -6  -1  -8 4184.21 325.524   1
  -6  -1  -9 105.455 91.3724  12
  -6  -1  -9 299.316 157.221   1
   6   1   9 230.984 124.816   8
   6   1  10 101.170 94.7500   9
   6   1  10 47.1012 87.9207   8
  -6  -1 -10 101.667 117.960   1
  -6  -2  13 484.341 111.846   4
  -6  -2  12 9191.15 446.519   4
  -6  -2  12 7603.11 413.792   5
  -6  -2  11 3557.30 273.916   4
  -6  -2  11 3075.91 246.962   5
  -6  -2  10 7288.75 402.502   4
  -6  -2  10 6338.49 374.676   5
  -6  -2   9 8920.43 493.946   4
  -6  -2   9 8353.70 477.816   5
  -6  -2   8 10253.6 549.889   4
  -6  -2   8 10301.7 545.627   5
  -6  -2   7 12444.7 622.134   4
  -6  -2   7 12270.2 616.467   5
  -6  -2   6 706.337 321.883  31
  -6  -2   6 757.803 173.909  34
  -6  -2   6 643.683 150.358   5
  -6  -2   5 395.939 312.378  31
  -6  -2   5 346.649 161.259  34
  -6  -2   5 234.150 120.763   5
  -6  -2   4 4561.14 321.557  34
  -6  -2   4 4220.13 282.259   5
  -6  -2   3 5114.21 622.519  31
  -6  -2   3 4291.38 314.418  34
   6   2  -3 4585.77 296.034   7
  -6  -2   3 3924.24 271.737   4
  -6  -2   2 51667.4 2141.01  34
   6   2  -2 51453.4 2114.02   7
  -6  -2   2 49695.6 2102.15   4
  -6  -2   1 80398.0 3247.80   4
   6   2  -1 80668.4 3250.92   7
  -6  -2   0 36731.4 1823.84  36
  -6  -2   0 36569.2 1523.10  34
  -6  -2   0 35026.0 1485.95   4
   6   2   0 33704.5 1482.60   7
   6   2   1 23975.0 1232.57  10
  -6  -2  -1 25497.5 1014.54  17
  -6  -2  -1 20562.5 1007.02   3
  -6  -2  -1 22812.1 1008.45   4
   6   2   1 22754.4 1006.84   7
  -6  -2  -1 24867.3 1448.29  31
  -6  -2  -1 21560.6 1299.81  36
  -6  -2  -1 23931.1 1043.76  34
   6   2   2 3098.46 390.346  10
  -6  -2  -2 3623.12 256.098  17
   6   2   2 3391.52 249.003   7
  -6  -2  -2 3192.92 254.296   3
  -6  -2  -2 3674.81 524.194  31
  -6  -2  -2 2988.43 463.078  36
  -6  -2  -2 2824.20 443.828  35
  -6  -2  -2 3328.57 274.734  34
  -6  -2  -2 3215.23 217.860  27
   6   2   3 439.103 242.150  10
  -6  -2  -3 491.824 156.394  17
  -6  -2  -3 267.481 153.788   3
   6   2   3 474.677 147.200   7
  -6  -2  -3 374.055 293.826  31
  -6  -2  -3 312.357 273.998  36
  -6  -2  -3 621.110 301.340  35
  -6  -2  -3 379.662 104.011  27
   6   2   4 17954.4 1043.98  10
  -6  -2  -4 19424.4 834.297  27
  -6  -2  -4 19250.1 1165.57  36
  -6  -2  -4 16337.7 1299.42  35
  -6  -2  -4 18633.0 891.041   3
   6   2   4 19634.0 860.883   7
  -6  -2  -5 5564.66 319.742  11
  -6  -2  -5 5008.94 707.205  35
   6   2   5 4722.35 313.619   7
  -6  -2  -6 25367.8 1051.81  11
   6   2   6 23609.3 1040.68   6
  -6  -2  -7 9724.00 473.467  11
  -6  -2  -8 711.895 170.314   1
  -6  -2  -9 147.089 93.4265  12
   6   2   9 68.1096 109.729   8
  -6  -2  -9 211.521 138.086   1
   6   2  10 1477.08 121.489   9
   6   2  10 1133.80 111.370   8
   6   3 -13 220.514 99.5838   7
  -6  -3  12 52.9228 109.758   5
   6   3 -11 4000.66 258.744  37
  -6  -3  11 5758.35 327.190   5
   6   3 -10 8454.10 442.928  37
  -6  -3  10 10283.5 514.913   5
  -6  -3   9 8366.46 481.154   5
  -6  -3   8 10383.8 567.186   4
  -6  -3   8 11023.3 572.529   5
  -6  -3   7 30343.2 1322.39   4
  -6  -3   7 30216.6 1328.29   5
  -6  -3   6 11244.8 899.517  31
  -6  -3   6 11235.1 574.670   4
  -6  -3   6 11436.6 581.091   5
  -6  -3   5 11264.3 895.249  31
  -6  -3   5 10000.6 522.368   4
  -6  -3   5 10252.0 528.627   5
  -6  -3   4 12900.1 669.095  19
  -6  -3   4 17046.5 1115.75  31
  -6  -3   4 15696.6 712.553  34
  -6  -3   4 14261.5 674.605   4
  -6  -3   3 38338.3 1703.95  19
  -6  -3   3 41354.0 2191.08  28
  -6  -3   3 42830.1 1741.72  34
   6   3  -3 41318.4 1713.05   7
  -6  -3   3 39765.6 1699.33   4
  -6  -3   2 16929.3 1158.90  28
  -6  -3   2 18375.0 1201.16  31
  -6  -3   2 16117.9 783.843  34
   6   3  -2 15868.0 749.744   7
  -6  -3   2 16117.8 742.404   4
  -6  -3   1 4792.44 289.920  17
   6   3  -1 4232.47 294.308   7
  -6  -3   1 4321.34 289.870   4
  -6  -3   0 28917.0 1124.29  17
   6   3   0 22973.6 1100.98   7
  -6  -3   0 24644.4 1111.41   4
  -6  -3   0 26088.6 1556.09  31
  -6  -3   0 29233.1 1542.80  28
  -6  -3   0 25933.6 1150.65  34
  -6  -3  -1 4369.55 288.148  17
   6   3   1 3848.98 272.697   7
  -6  -3  -1 4800.39 545.256  28
  -6  -3  -1 3610.82 555.194  31
  -6  -3  -1 4182.70 271.521  27
   6   3   2 738.668 279.157  10
  -6  -3  -2 922.444 168.400  17
  -6  -3  -2 705.545 148.890   3
   6   3   2 593.959 147.963   7
  -6  -3  -2 923.479 352.910  31
  -6  -3  -2 917.559 135.777  27
   6   3   3 9884.74 694.270  10
  -6  -3  -3 11622.4 563.058  17
  -6  -3  -3 9483.17 527.627   3
  -6  -3  -3 10973.0 511.652  27
  -6  -3  -3 9183.20 837.033  31
  -6  -3  -4 529.979 120.030  27
  -6  -3  -5 10247.0 517.652  11
  -6  -3  -6 483.786 136.908  11
  -6  -3  -6 462.261 168.478   1
  -6  -3  -7 7568.86 388.324  11
  -6  -3  -7 7338.70 423.843   1
  -6  -3  -8 7045.02 406.299  12
  -6  -3  -8 7487.20 398.169   1
  -6  -3  -9 5031.23 281.412  12
   6   3   9 4585.03 282.154   8
  -6  -4  13 1056.54 113.496   4
   6   4 -13 1071.70 124.968   7
  -6  -4  12 279.485 119.041   4
  -6  -4  12 187.914 108.791   5
  -6  -4  11 8306.67 416.195   4
  -6  -4  11 7810.01 417.991   5
  -6  -4  10 6139.31 379.280   4
  -6  -4  10 6095.96 387.680   5
  -6  -4   9 15435.3 764.188   4
  -6  -4   9 16436.4 782.965   5
  -6  -4   8 1470.71 205.505   4
  -6  -4   8 1002.47 200.278   5
  -6  -4   7 49839.0 2083.24   4
  -6  -4   7 49475.2 2096.28   5
  -6  -4   6 751.141 147.398  19
  -6  -4   6 797.223 171.622   4
  -6  -4   6 895.935 171.719   5
  -6  -4   5 285.614 124.095  19
  -6  -4   5 408.950 353.291  31
  -6  -4   5 422.638 153.987   5
  -6  -4   5 362.546 149.189   4
  -6  -4   4 30269.7 1377.31  19
  -6  -4   4 35985.2 1871.34  31
  -6  -4   4 34246.5 1913.77  28
  -6  -4   4 31898.7 1361.15   4
  -6  -4   3 28275.8 1239.25  19
  -6  -4   3 28071.1 1691.38  28
   6   4  -3 27158.6 1219.74   7
  -6  -4   3 27692.1 1210.45   4
  -6  -4   2 9871.70 487.483  17
  -6  -4   2 9401.71 838.761  28
  -6  -4   2 9478.13 872.177  31
   6   4  -2 8291.87 468.158   7
  -6  -4   2 8706.38 466.495   4
  -6  -4   1 7625.30 403.980  17
  -6  -4   1 6752.29 683.856  28
  -6  -4   1 6629.47 381.773   4
   6   4  -1 6109.42 376.074   7
  -6  -4   0 2236.13 211.522  17
  -6  -4   0 1629.45 191.956   4
   6   4   0 1545.49 184.262   7
  -6  -4   0 2165.84 421.556  28
  -6  -4   0 2027.03 451.453  31
  -6  -4  -1 11750.3 594.891  17
  -6  -4  -1 11195.1 955.296  31
  -6  -4  -1 11791.9 580.574  27
   6   4   2 3394.28 421.754  10
  -6  -4  -2 3283.69 276.790  17
  -6  -4  -2 3472.57 245.888  27
  -6  -4  -3 60016.9 2421.74  17
  -6  -4  -3 60217.2 2377.95  27
  -6  -4  -4 6861.22 399.047  11
  -6  -4  -4 7034.98 438.934  17
  -6  -4  -4 6996.81 378.818  27
  -6  -4  -5 19137.8 908.263   1
  -6  -4  -5 21969.1 920.304  11
  -6  -4  -6 41084.0 1706.29  11
  -6  -4  -7 4982.20 347.639  12
  -6  -4  -7 5742.53 309.565  11
  -6  -4  -8 908.383 134.408  12
  -6  -4  -9 88.4675 65.0410  12
  -6  -4  -9 132.941 77.4676  26
   6   5 -13-54.1674 77.6350   7
  -6  -5  13 14.0719 86.3185  25
  -6  -5  12 544.663 104.873   4
   6   5 -11 1781.73 160.817  37
  -6  -5  11 2423.06 208.768   5
  -6  -5  11 2390.79 196.595   4
  -6  -5  10 18255.5 850.155   4
  -6  -5  10 19447.5 877.016   5
  -6  -5   9 7443.91 436.245   4
  -6  -5   9 8163.59 463.626   5
  -6  -5   8 1802.95 203.278  19
  -6  -5   8 2332.06 231.494   4
  -6  -5   8 2283.78 245.372   5
  -6  -5   7 566.789 149.177  19
  -6  -5   7 726.964 174.107   4
  -6  -5   6 2691.99 252.317  19
  -6  -5   6 2021.45 466.290  33
  -6  -5   6 2601.01 240.975   4
  -6  -5   5 338.847 145.602  19
  -6  -5   5 416.595 155.776   4
  -6  -5   5 157.720 309.875  28
  -6  -5   4 2534.49 244.913  19
  -6  -5   4 2650.42 226.616   4
   6   5  -4 2428.85 245.602   7
  -6  -5   4 2394.35 494.408  28
  -6  -5   4 2499.19 347.586  25
  -6  -5   3 33.0729 129.242  19
   6   5  -3 80.5526 145.058   7
  -6  -5   3 138.138 133.267   4
  -6  -5   3 303.138 318.255  28
  -6  -5   3-10.2132 190.100  25
  -6  -5   2 18027.0 779.349  17
  -6  -5   2 17771.8 1163.42  28
  -6  -5   2 15723.0 737.607   4
   6   5  -2 14491.3 734.842   7
  -6  -5   1 62030.0 2961.60  28
  -6  -5   1 57270.8 2513.08   4
  -6  -5   0 94955.4 3849.67  17
  -6  -5  -1 6097.22 392.235  17
  -6  -5  -1 6521.10 369.509  27
  -6  -5  -2 5430.79 366.664  17
  -6  -5  -2 5122.64 318.089  27
  -6  -5  -3 36938.0 1594.56  17
  -6  -5  -3 36857.6 1550.28  27
  -6  -5  -4 24357.1 1074.16  11
  -6  -5  -4 24398.0 1113.86  17
  -6  -5  -4 24680.6 1062.59  27
  -6  -5  -5 20526.8 910.152  11
  -6  -5  -6 6625.26 415.249  12
  -6  -5  -6 7096.80 368.190  11
  -6  -5  -7 2627.18 217.959  12
  -6  -5  -7 2772.53 193.119  11
  -6  -5  -8 411.511 92.0452  12
   6   6 -12 1115.46 130.016   7
   6   6 -11 3784.85 221.949  37
  -6  -6  11 4388.20 356.539  25
  -6  -6  10 1294.19 148.744   4
  -6  -6  10 1347.99 263.939  25
  -6  -6   9 2769.97 226.130   4
  -6  -6   9 3049.39 236.215  19
  -6  -6   8 1492.89 181.247   4
  -6  -6   8 1407.93 189.517  19
  -6  -6   7 23103.8 1006.77   4
  -6  -6   7 22035.8 1048.19  19
  -6  -6   6 1294.49 196.488  19
  -6  -6   6 1235.71 173.304   4
  -6  -6   6 1363.15 402.144  28
  -6  -6   6 745.155 339.316  33
  -6  -6   6 1418.38 310.747  25
  -6  -6   5 2644.62 262.598  19
  -6  -6   5 2329.95 212.328   4
   6   6  -5 2433.44 249.372   7
  -6  -6   5 1820.61 442.706  28
  -6  -6   5 1796.88 448.880  33
  -6  -6   5 2669.63 372.878  25
  -6  -6   4 28835.1 1241.70  19
   6   6  -4 26459.7 1179.77   7
  -6  -6   4 26593.1 1160.82   4
  -6  -6   4 26301.0 1619.72  28
  -6  -6   4 27941.6 1352.31  25
  -6  -6   3 27175.0 1156.03   4
  -6  -6   3 25412.4 1732.63  33
  -6  -6   3 25491.7 1567.28  28
  -6  -6   3 25649.2 1237.53  21
  -6  -6   3 29028.3 1317.71  25
  -6  -6   2 15467.8 727.954  17
  -6  -6   2 14170.0 780.361  25
  -6  -6   1 9933.08 529.869  17
  -6  -6   1 7137.73 902.497  33
  -6  -6   0 2467.56 251.737  17
  -6  -6   0 2113.37 223.632  27
  -6  -6  -1 12804.9 650.498  17
  -6  -6  -1 13039.4 616.834  27
  -6  -6  -2 12385.4 666.644  17
  -6  -6  -2 13704.4 630.630  27
  -6  -6  -3 14689.0 677.331  17
  -6  -6  -3 15697.6 633.038  27
  -6  -6  -4 14185.8 710.480  12
  -6  -6  -5 13057.7 649.461  12
  -6  -6  -6 9610.05 455.050  11
  -6  -6  -7 6891.66 354.807  12
   6   7 -11 3076.54 195.694   7
  -6  -7  11 2533.40 240.215  25
   6   7 -10 7568.32 387.588   7
  -6  -7  10 6329.33 460.245  25
  -6  -7   9 15245.7 713.761  19
  -6  -7   9 15795.4 838.451  25
  -6  -7   8 16819.7 797.227  19
  -6  -7   8 16658.5 920.124  25
  -6  -7   7 155.217 137.611  19
   6   7  -7 168.018 153.030   7
  -6  -7   7 136.160 101.201  32
  -6  -7   7 160.472 229.869  25
  -6  -7   6 11644.2 594.011  19
   6   7  -6 10110.0 542.457   7
  -6  -7   6 10103.2 547.955  32
  -6  -7   6 11196.2 705.882  25
  -6  -7   5 4542.94 341.124  19
  -6  -7   5 4165.34 419.851  25
  -6  -7   4 14098.8 816.316  25
  -6  -7   3 16788.5 1385.35  33
  -6  -7   3 21906.1 1050.81  25
  -6  -7   2 17464.7 827.158  17
  -6  -7   2 16594.4 873.674  25
  -6  -7   1 2375.90 248.970  17
  -6  -7   1 1820.18 232.609  25
  -6  -7   0 1220.66 212.915  17
  -6  -7  -1 132.476 112.621  12
  -6  -7  -1 258.419 135.451  11
  -6  -7  -1 459.222 189.284  17
  -6  -7  -1 151.183 118.711  32
  -6  -7  -2 1803.25 193.810  12
  -6  -7  -2 2323.98 199.654  11
  -6  -7  -2 2231.07 248.926  17
  -6  -7  -2 1693.39 180.722  32
  -6  -7  -3 1197.74 163.767  12
  -6  -7  -3 1448.78 160.724  11
  -6  -7  -4 6318.06 381.085  12
  -6  -7  -4 7484.16 363.327  11
  -6  -7  -5 1758.24 144.965  11
  -6  -7  -5 1569.78 127.318  13
  -6  -7  -5 1526.82 157.980  12
  -6  -7  -6 10705.3 494.209  12
  -6  -8  10 1023.59 159.115  25
   6   8  -9 2700.09 179.891   7
  -6  -8   9 3097.20 275.383  25
   6   8  -8 3993.45 246.182   7
  -6  -8   8 5055.33 370.000  25
  -6  -8   7 27.0013 118.559  19
  -6  -8   7 117.356 80.0451  32
  -6  -8   7 96.4343 177.001  25
  -6  -8   6 504.053 119.980  32
  -6  -8   6 574.680 210.932  25
  -6  -8   5 938.517 153.380  32
  -6  -8   5 858.185 222.031  25
  -6  -8   4 7178.14 420.248  17
  -6  -8   4 6642.19 409.501  32
  -6  -8   4 6786.31 480.293  25
  -6  -8   3 14703.5 702.124  17
  -6  -8   3 14226.7 706.333  32
  -6  -8   3 13636.0 675.525  27
  -6  -8   3 14291.8 757.298  25
  -6  -8   2 6901.81 394.155  27
  -6  -8   2 6378.43 444.291  25
  -6  -8   1 23772.7 993.866  11
  -6  -8   1 23777.9 1048.57  17
  -6  -8   1 22115.9 1048.73  32
  -6  -8   1 24395.2 1017.18  27
  -6  -8   1 21188.8 1049.43  25
  -6  -8   0 5006.19 291.627  11
  -6  -8   0 5343.41 348.043  17
  -6  -8   0 5492.75 306.132  27
  -6  -8   0 4957.88 328.939  32
  -6  -8  -1 150.747 101.552  11
  -6  -8  -1 67.1501 171.161  17
  -6  -8  -1 137.719 94.5635  32
  -6  -8  -1 96.0344 97.2467  27
  -6  -8  -2 2219.93 166.414  11
  -6  -8  -2 1814.03 211.696  17
  -6  -8  -3 5134.34 271.226  11
  -6  -8  -4 5935.93 262.323  11
  -6  -8  -4 5371.81 263.728  13
  -6  -9   9 786.803 123.982  25
  -6  -9   8 4202.69 291.310  25
  -6  -9   7 445.348 87.4456  27
  -6  -9   7 814.038 165.783  25
  -6  -9   6 71.2911 101.377  17
  -6  -9   6 88.7187 75.4966  32
  -6  -9   6 57.3271 78.7227  27
  -6  -9   6 138.316 142.698  25
  -6  -9   5 3596.53 241.354  17
  -6  -9   5 3600.45 230.205  32
  -6  -9   5 2894.73 205.304  27
  -6  -9   5 3332.39 287.383  25
  -6  -9   4 4719.55 293.748  17
  -6  -9   4 4490.52 279.744  32
  -6  -9   4 4132.57 251.803  27
  -6  -9   4 4393.05 329.931  25
  -6  -9   3 3815.08 266.927  17
  -6  -9   3 3606.35 247.000  32
  -6  -9   3 3288.84 218.812  27
  -6  -9   3 3546.42 285.413  25
  -6  -9   2 7723.55 409.883  17
  -6  -9   2 7241.04 362.969  27
  -6  -9   2 7221.35 412.437  25
  -6  -9   1 12660.0 606.624  17
  -6  -9   1 12782.7 563.719  27
  -6  -9   1 12248.3 595.977  32
  -6  -9   0 7972.18 407.639  17
  -6  -9   0 6644.16 373.530  32
  -6  -9   0 7690.84 358.344  27
  -6  -9  -1 413.311 140.838  17
  -6  -9  -2 204.967 81.4189  13
  -6  -9  -3 1548.56 112.156  13
  -6 -10   6 52.3823 78.4797  25
  -6 -10   5 275.480 82.9738  17
  -6 -10   5 87.5791 90.1368  25
  -6 -10   4 5879.50 297.922  17
  -6 -10   4 5636.72 316.815  25
  -6 -10   3 7007.50 333.901  17
  -6 -10   3 6064.04 331.526  25
  -6 -10   2 3401.22 185.622  13
  -6 -10   2 4025.70 229.883  17
  -6 -10   1 5156.18 254.397  13
  -6 -10   1 5543.92 284.501  17
  -6 -10   0 1786.53 117.117  13
  -6 -10   0 1554.94 137.450  17
   7 -10  -3 3727.66 209.626  22
   7 -10  -2 4909.82 299.920  15
   7 -10  -2 5796.91 285.182  22
   7 -10  -1 1407.92 160.071  15
   7 -10  -1 1583.51 134.873  22
   7 -10   0 4.26357 104.021  15
   7 -10   0 133.844 72.8275  22
   7 -10   1 801.683 130.764  15
   7 -10   1 663.035 89.5730  22
   7 -10   2 92.3199 87.9915  15
   7 -10   3 414.875 83.4240  15
   7  -9  -6 399.608 78.1959  23
   7  -9  -5 2549.17 175.957  22
   7  -9  -5 2272.28 174.277  23
   7  -9  -4 2126.38 177.208  23
   7  -9  -3 7290.59 381.692  22
   7  -9  -3 7341.95 379.975  23
   7  -9  -2 4340.84 331.627  15
   7  -9  -2 5356.65 309.854  22
   7  -9  -2 4884.97 302.712  23
   7  -9  -1 1753.79 195.717  20
   7  -9  -1 2028.04 188.740  22
   7  -9   0 1706.86 208.697  20
   7  -9   0 1681.85 171.918  22
   7  -9   1 5138.99 350.327  20
   7  -9   1 4780.16 284.146  22
   7  -9   2 839.713 163.982  15
   7  -9   2 718.828 179.953  20
   7  -9   2 786.526 107.620  22
   7  -9   3 4820.38 301.508   6
   7  -9   3 4545.06 308.991  15
   7  -9   4 6140.15 359.393  15
   7  -9   4 8490.38 428.470  20
   7  -9   5 5432.27 326.087  20
   7  -8  -8 3115.49 184.680  23
   7  -8  -7 60.4330 80.8257  24
   7  -8  -7 42.3586 75.4390  22
   7  -8  -7 77.0200 87.4554  23
   7  -8  -6 145.194 105.963  24
   7  -8  -6 194.241 106.411  22
   7  -8  -6 147.349 109.576  23
   7  -8  -5 1801.57 190.472  23
   7  -8  -5 1534.62 182.156  24
   7  -8  -4 2529.26 237.635  22
   7  -8  -4 2643.33 230.082  23
   7  -8  -4 2382.99 227.522  24
   7  -8  -3 9583.53 527.606  22
   7  -8  -3 9598.34 515.874  23
   7  -8  -2 14055.3 678.056  22
   7  -8  -2 14095.1 667.965  23
   7  -8  -2 11979.5 659.255  20
   7  -8  -1 7589.70 485.053  20
   7  -8  -1 8372.80 462.449  22
   7  -8  -1 8224.92 455.659  23
   7  -8   0 3979.90 282.224   6
   7  -8   0 4193.82 345.252  20
   7  -8   0 3855.86 286.644  22
   7  -8   1 3145.22 265.833   6
   7  -8   1 3695.22 328.864  20
   7  -8   1 3315.96 248.554  22
   7  -8   2 6654.67 403.703   6
   7  -8   2 6739.67 363.680  22
   7  -8   3 6218.40 377.811   6
   7  -8   3 6728.17 431.545  20
   7  -8   4 5195.21 366.038  20
   7  -8   4 4030.83 324.588  21
   7  -8   5 5280.98 333.617  20
   7  -8   5 3520.64 301.948  21
   7  -8   6 1064.73 154.396   6
   7  -8   6 896.949 153.161  20
   7  -8   6 1052.96 152.764  21
   7  -8   7 298.620 95.8074  21
   7  -7  -9 9726.96 456.995  23
   7  -7  -8 3589.02 238.724  22
   7  -7  -8 3711.10 241.536  24
   7  -7  -7 1176.49 165.554  22
   7  -7  -7 884.750 147.101  24
   7  -7  -7 1020.46 165.864  23
   7  -7  -6 2225.83 232.422  22
   7  -7  -6 2304.26 229.600  23
   7  -7  -6 2389.77 222.902  24
   7  -7  -5 17919.0 870.785  23
   7  -7  -5 18581.8 869.835  24
   7  -7  -4 15136.6 755.441  22
   7  -7  -4 14588.1 735.807  23
   7  -7  -4 14158.0 729.967  24
   7  -7  -3 14882.8 745.879  22
   7  -7  -3 14255.6 720.502  23
   7  -7  -3 13831.3 721.833  24
   7  -7  -2 464.795 165.798  20
   7  -7  -2 221.115 158.453  24
   7  -7  -2 265.963 158.475  22
   7  -7  -2 262.414 146.082  23
   7  -7  -1 2514.49 228.273   6
   7  -7  -1 2484.76 286.337  20
   7  -7  -1 2580.88 259.825  22
   7  -7  -1 2977.25 258.428  23
   7  -7   0 3237.26 269.403   6
   7  -7   0 3263.48 324.619  20
   7  -7   0 3422.88 283.175  22
   7  -7   0 3107.32 261.098  23
   7  -7   1 555.096 167.548   6
   7  -7   1 682.380 208.774  20
   7  -7   1 495.928 146.545  22
   7  -7   2 1284.55 198.467   6
   7  -7   2 943.558 143.426  22
   7  -7   2 741.466 180.205  21
   7  -7   3 9987.63 514.393   6
   7  -7   3 7837.27 535.869  21
   7  -7   4 6884.30 470.525  20
   7  -7   5 11214.4 562.414   6
   7  -7   5 9753.09 527.873   8
   7  -7   5 10914.1 598.771  20
   7  -7   6 234.223 137.460   6
   7  -7   6 168.609 116.510   8
   7  -7   6 143.727 128.086  20
   7  -7   7 1502.69 162.850   6
   7  -7   7 1484.27 154.178   8
   7  -7   7 1156.47 152.368  20
   7  -7   8 652.388 95.7641   6
   7  -7   8 573.370 98.7924   8
   7  -7   8 488.511 116.182  21
   7  -6 -10 3174.59 207.769  23
   7  -6  -9 700.797 112.523  24
   7  -6  -9 666.324 120.725  22
   7  -6  -9 894.226 145.172  23
   7  -6  -8 118.094 109.219  24
   7  -6  -8 35.4352 121.602  22
   7  -6  -8 275.782 138.651  23
   7  -6  -7 1933.98 203.262  24
   7  -6  -7 1773.61 224.239  22
   7  -6  -7 1721.85 225.386  23
   7  -6  -6 3311.61 280.789  14
   7  -6  -6 3321.20 276.539  24
   7  -6  -6 3124.49 286.065  23
   7  -6  -5 6406.67 416.932  23
   7  -6  -5 5889.11 398.086  24
   7  -6  -4 17918.1 889.448  22
   7  -6  -4 16959.1 856.058  23
   7  -6  -4 17625.0 854.644  24
   7  -6  -3 4251.85 350.771  20
   7  -6  -3 5720.13 392.538   2
   7  -6  -3 4256.12 700.901  29
   7  -6  -3 5296.39 397.311  22
   7  -6  -3 5513.55 372.545  23
   7  -6  -3 5083.20 362.190  24
   7  -6  -2 8159.56 548.299  20
   7  -6  -2 10472.0 562.922   2
   7  -6  -2 7338.78 957.456  29
   7  -6  -2 9590.60 554.261  22
   7  -6  -2 9437.59 525.586  23
   7  -6  -2 9327.18 536.686  24
   7  -6  -1 210.307 132.864   6
   7  -6  -1 172.997 158.989  22
   7  -6  -1 220.886 133.576  23
   7  -6   0 1476.20 193.795   6
   7  -6   0 2162.85 264.996   2
   7  -6   0 1095.26 449.675  29
   7  -6   0 1664.04 218.050  22
   7  -6   0 2047.04 202.207  23
   7  -6   1 14261.0 685.806   6
   7  -6   1 14514.7 727.810   2
   7  -6   1 13502.5 677.500  22
   7  -6   2 2061.58 528.625  29
  -7   6  -2 2797.13 253.020   3
   7  -6   2 2532.41 249.980   6
   7  -6   2 2799.53 280.905   2
   7  -6   3 4537.86 336.717   8
  -7   6  -3 6314.57 358.642   3
   7  -6   4 8077.26 476.465   8
  -7   6  -4 9247.56 472.217   3
   7  -6   5 5032.61 345.520   6
   7  -6   5 4899.20 335.364   8
  -7   6  -5 4842.44 310.125   3
   7  -6   6 5912.50 365.262   6
   7  -6   6 5661.87 363.902   8
   7  -6   7 296.854 127.543   6
   7  -6   7 283.345 126.744   8
   7  -6   7 283.579 127.001  20
   7  -6   8 81.4175 95.1965   6
   7  -6   8 86.7623 104.651   8
   7  -6   9 326.146 84.5909   8
   7  -5 -11 2940.74 199.514  23
   7  -5 -10 42.7041 72.2936  24
   7  -5 -10 4.52405 109.109  23
   7  -5  -9 1164.99 154.765  24
   7  -5  -9 1500.24 189.258  22
   7  -5  -9 1637.21 196.375  23
   7  -5  -8 189.633 121.556  24
   7  -5  -8 104.204 146.269  22
   7  -5  -8 70.8549 144.412  23
   7  -5  -7 4738.55 329.831  14
   7  -5  -7 4171.12 324.946  24
   7  -5  -7 5106.07 379.899  22
   7  -5  -7 4991.28 367.518  23
   7  -5  -6 5527.54 372.421  14
   7  -5  -6 5090.96 358.244  24
   7  -5  -6 5384.87 393.473  23
   7  -5  -5 6248.17 409.308  14
   7  -5  -5 5804.45 393.318   2
   7  -5  -5 6217.79 395.009  24
   7  -5  -5 6151.40 441.727  22
   7  -5  -5 6109.26 416.883  23
   7  -5  -4 350.865 181.052   2
   7  -5  -4-33.7934 338.103  29
   7  -5  -4 101.858 140.795  24
   7  -5  -4 169.565 182.160  22
   7  -5  -4 502.717 164.942  23
   7  -5  -3 26046.3 1098.91   2
   7  -5  -3 23036.3 1117.30  22
   7  -5  -3 23047.2 1080.11  23
   7  -5  -3 22604.5 1073.87  24
   7  -5  -2 10202.8 509.444   6
   7  -5  -2 11599.8 590.609   2
   7  -5  -2 10496.1 586.364  22
   7  -5  -2 9659.35 549.125  23
   7  -5  -2 10157.0 559.251  24
   7  -5  -1 32759.3 1336.36   6
   7  -5  -1 30684.1 1386.30  22
   7  -5  -1 29742.8 1356.93  23
   7  -5   0 4173.07 284.937   6
   7  -5   0 3735.33 263.828   7
   7  -5   0 3625.08 328.400   2
   7  -5   0 3601.16 663.569  29
   7  -5   0 3455.75 288.599  22
   7  -5   1 20594.3 868.891   6
   7  -5   1 19411.7 845.442   7
   7  -5   1 20334.5 905.570   2
   7  -5   1 17411.6 858.325  22
  -7   5  -2 5982.44 385.401   3
   7  -5   2 5629.28 360.738   6
   7  -5   2 5700.70 346.702   7
   7  -5   2 6184.34 395.002   2
  -7   5  -3 11291.8 560.499   3
   7  -5   3 9900.45 537.792   8
   7  -5   3 9724.11 544.994   2
   7  -5   3 10582.7 523.022   7
   7  -5   4 9007.06 499.052   6
   7  -5   4 8452.04 488.195   2
  -7   5  -4 10213.9 516.231   3
   7  -5   4 9126.10 505.870   8
   7  -5   5 20086.5 943.425   6
   7  -5   5 20678.5 961.231   8
  -7   5  -5 21037.5 948.125   3
  -7   5  -6 815.445 170.529   3
   7  -5   6 768.027 168.722   6
   7  -5   6 635.342 162.760   8
   7  -5   7 515.231 136.413   6
   7  -5   7 522.309 154.002   8
   7  -5   8 3397.45 237.029   6
   7  -5   8 3887.30 270.177   8
   7  -4 -11 2745.16 222.132  23
   7  -4 -10 2666.23 243.674  22
   7  -4 -10 4062.93 291.103  23
   7  -4  -9-59.9379 116.360  24
   7  -4  -9 100.431 134.530  22
   7  -4  -9 79.1702 157.029  23
   7  -4  -8 195.189 126.987  24
   7  -4  -8 184.304 164.478  23
   7  -4  -7 1367.81 187.091  24
   7  -4  -7 1460.91 238.966  23
   7  -4  -6 5962.85 400.698   2
   7  -4  -6 6861.82 423.027  14
   7  -4  -6 6818.96 415.685  24
   7  -4  -5 14486.6 719.943  14
   7  -4  -5 14834.6 706.209   2
   7  -4  -5 13530.6 695.546  24
   7  -4  -5 14162.9 734.988  23
   7  -4  -4 6668.50 404.698   2
   7  -4  -4 5551.78 392.170  23
   7  -4  -3 4299.66 319.587   2
   7  -4  -3 3125.22 604.245  29
   7  -4  -3 3228.48 281.049  23
   7  -4  -2 16785.8 730.223   6
   7  -4  -2 15590.9 726.923   7
  -7   4   2 17408.0 1093.88  36
   7  -4  -2 14977.7 759.215  23
   7  -4  -1 25865.8 1191.94   2
   7  -4  -1 28862.3 1155.10   6
   7  -4  -1 25926.6 1151.49   7
   7  -4  -1 25313.0 1198.51  22
   7  -4   0 1495.80 233.404   2
   7  -4   0 1588.75 191.371   6
   7  -4   0 1802.90 196.603   7
   7  -4   0 987.150 339.894  30
   7  -4   0 1292.22 503.749  29
   7  -4   0 1499.93 196.967  22
   7  -4   1 5304.78 339.091   6
   7  -4   1 5665.89 340.095   7
   7  -4   1 5311.91 369.131   2
   7  -4   1 3552.55 579.459  30
   7  -4   1 3721.35 700.849  29
   7  -4   2 22270.9 955.062   6
   7  -4   2 21233.3 953.703   8
   7  -4   2 21816.7 948.882   7
   7  -4   2 19928.5 968.656   2
   7  -4   2 18842.1 1452.33  29
  -7   4  -3 30500.5 1293.71   3
   7  -4   3 29476.5 1269.64   8
   7  -4   3 29895.2 1254.58   7
   7  -4   3 28372.6 1259.72   2
   7  -4   3 22104.8 1692.32  30
   7  -4   3 20351.2 1689.15  29
   7  -4   4 14690.1 719.039   6
   7  -4   4 15058.7 738.585   8
   7  -4   4 16229.7 725.271   7
  -7   4  -4 16486.6 757.653   3
  -7   4  -5 1361.00 218.535   3
   7  -4   5 1160.54 185.836   6
   7  -4   5 1037.00 197.918   8
   7  -4   5 832.243 359.355  30
   7  -4   6 2037.32 216.348   6
   7  -4   6 2378.82 242.379   8
  -7   4  -6 2305.32 242.633   3
   7  -4   7 3010.17 264.320   8
   7  -4   7 2711.78 228.802   6
   7  -4   8 2185.08 185.035   6
  -7   4  -9 334.124 111.675   1
   7  -4  10 1932.30 145.555   8
   7  -3 -12 3362.40 234.604  23
   7  -3 -11 5743.11 366.089  23
   7  -3 -10 1071.26 197.375  23
   7  -3  -9 1391.00 231.816  23
   7  -3  -8 2885.62 302.737  23
   7  -3  -7 5166.52 398.626  23
   7  -3  -6 3336.05 269.137   2
   7  -3  -6 3642.55 315.440  23
   7  -3  -5 58215.2 2362.06   2
   7  -3  -5 55042.1 2394.27  23
   7  -3  -4 40407.5 1654.77   7
   7  -3  -4 39358.5 1709.37  23
  -7   3   3 40580.5 1963.06  36
   7  -3  -3 38631.9 1603.77   7
  -7   3   2 12699.7 897.070  36
   7  -3  -2 11688.1 544.762   6
   7  -3  -2 10746.3 558.888   7
  -7   3   1 2923.74 388.182  28
   7  -3  -1 3161.22 235.213   6
   7  -3  -1 3251.21 254.089   7
   7  -3   0 6525.61 807.642  29
   7  -3   0 7357.05 394.374   6
   7  -3   0 6833.34 401.758   7
   7  -3   1 7391.12 836.235  29
   7  -3   1 7906.31 431.664   7
   7  -3   1 7740.35 423.511   6
   7  -3   2 1025.28 391.099  29
   7  -3   2 947.247 153.972   8
   7  -3   2 938.298 179.896   7
   7  -3   3 4650.27 687.245  29
  -7   3  -3 6223.42 397.642   3
   7  -3   3 5620.03 354.024   6
   7  -3   3 5863.28 359.514   7
   7  -3   3 5348.03 357.715   8
   7  -3   3 4981.79 343.348   2
   7  -3   4 1493.73 426.545  30
   7  -3   4 1926.80 211.723   6
  -7   3  -4 2062.97 256.131   3
   7  -3   4 2169.60 230.876   8
   7  -3   5 35380.3 1565.63   6
   7  -3   5 38038.7 1604.79   8
  -7   3  -5 37579.3 1610.32   3
   7  -3   6 9654.00 523.281   8
  -7   3  -6 9488.01 519.206   3
   7  -3   7 958.716 154.209   6
   7  -3   7 1054.04 190.058   8
   7  -3   8 8845.39 460.219   6
   7  -3   8 10074.8 448.253   9
   7  -3   9 3376.18 258.538   8
   7  -3   9 3491.17 206.032   9
  -7   3 -10 705.998 97.7761   1
   7  -3  10 562.936 97.0051   8
   7  -2 -12 2945.78 236.071  23
   7  -2 -11 8188.05 481.426  23
  -7   2  10 16278.4 731.169   4
  -7   2   9 13381.1 633.793   4
  -7   2   8 573.111 148.961   4
  -7   2   7 8838.25 473.803   4
   7  -2  -7 9323.21 476.969   7
  -7   2   6 22968.6 978.819   4
   7  -2  -6 22183.7 982.426   7
   7  -2  -5 17339.7 772.407   7
  -7   2   5 16595.2 758.291   4
   7  -2  -4 14756.0 834.486  10
   7  -2  -4 11870.5 1115.89  29
  -7   2   4 13799.6 1021.66  28
  -7   2   4 16842.8 1008.28  36
   7  -2  -4 14754.9 693.481   7
  -7   2   4 14619.4 681.037   4
   7  -2  -3 11017.9 671.555  10
  -7   2   3 10032.9 804.709  28
  -7   2   3 10543.4 789.754  36
   7  -2  -3 9704.74 501.716   7
  -7   2   3 9318.72 483.566   4
   7  -2  -2 2682.82 352.797  10
  -7   2   2 3058.60 434.856  28
  -7   2   2 3218.05 472.851  36
   7  -2  -2 2269.77 205.008   6
   7  -2  -2 2782.48 236.205   7
  -7   2   2 2649.25 214.768   4
   7  -2  -1 637.617 268.101  10
  -7   2   1 683.240 327.389  36
  -7   2   1 926.040 299.540  28
  -7   2   1 702.192 145.471   4
   7  -2  -1 611.305 138.820   6
   7  -2  -1 892.095 167.285   7
   7  -2   0 901.806 271.397  10
  -7   2   0 646.930 263.769  28
  -7   2   0 621.899 324.934  36
  -7   2   0 693.544 140.143   4
   7  -2   0 428.631 133.038   6
   7  -2   0 493.047 158.852   7
   7  -2   1 10890.8 958.237  29
   7  -2   1 10609.0 521.792   6
   7  -2   1 9839.79 525.549   7
   7  -2   2 54285.4 2788.23  29
  -7   2  -3 7765.90 460.941   3
   7  -2   3 7542.53 416.895   6
   7  -2   4 2701.46 250.926   6
   7  -2   4 3472.64 276.625   7
   7  -2   4 3570.36 280.389   8
  -7   2  -4 3321.45 302.889   3
   7  -2   5 2165.97 222.396   6
   7  -2   5 2628.73 255.645   8
   7  -2   5 2590.28 251.484   7
  -7   2  -5 2681.04 278.358   3
  -7   2  -6 318.204 187.890   3
   7  -2   6 138.483 131.096   6
   7  -2   6 189.038 158.773   8
   7  -2   7 748.275 145.525   6
   7  -2   8 1186.75 136.803   6
   7  -2   9 4225.97 283.794   8
  -7   2  -9 4361.18 279.288   1
   7  -2   9 4127.35 236.303   9
   7  -2  10 4637.70 273.873   8
   7  -2  10 4759.41 241.453   9
   7  -1 -13 5925.44 323.053  23
  -7   1  12 19321.4 808.362   4
   7  -1 -12 18805.9 883.574  23
  -7   1  11 1211.12 152.749   4
  -7   1  10 540.440 147.015   4
   7  -1  -9 364.946 145.875   7
  -7   1   9 466.355 151.441   4
   7  -1  -8 852.260 177.338   7
  -7   1   8 765.530 166.775   4
  -7   1   7 3565.11 275.816   4
   7  -1  -7 3849.90 288.032   7
   7  -1  -6 513.107 339.307  29
  -7   1   6 428.215 347.296  31
  -7   1   6 736.743 192.070  34
   7  -1  -6 758.779 178.562   7
  -7   1   6 723.055 158.581   4
   7  -1  -5 32344.7 1551.02  10
  -7   1   5 32848.8 1410.08   4
   7  -1  -5 33729.6 1424.34   7
   7  -1  -4 16883.1 924.501  10
  -7   1   4 15150.3 1135.58  28
   7  -1  -4 15883.4 764.328   7
  -7   1   4 16212.1 751.756   4
   7  -1  -3 292.836 241.573  10
  -7   1   3 462.010 315.966  28
  -7   1   3 383.702 300.108  36
  -7   1   3 311.086 134.226   4
   7  -1  -3 294.889 108.599   6
   7  -1  -3 450.635 156.464   7
   7  -1  -2 3286.01 381.862  10
  -7   1   2 3244.38 477.115  36
  -7   1   2 3129.11 479.336  28
   7  -1  -2 2962.35 247.391   7
  -7   1   2 2463.56 219.981   4
   7  -1  -1 103.782 230.957  10
  -7   1   1 337.887 293.162  36
  -7   1   1 65.1093 232.657  28
  -7   1   1 160.850 123.041   4
   7  -1  -1 175.421 139.727   7
  -7   1   0 438.158 291.158  36
  -7   1   0 417.059 259.172  28
  -7   1   0 475.699 139.310   4
   7  -1   2 18394.9 1052.78  10
  -7   1  -2 16211.6 1173.91  36
   7  -1   2 19128.7 838.913   6
   7  -1   2 18041.6 842.774   7
  -7   1  -3 27718.4 1679.19  31
  -7   1  -3 26560.5 1612.04  36
   7  -1   3 29990.5 1232.56   6
   7  -1   3 28652.1 1238.00   7
  -7   1  -4 7465.39 740.987  36
  -7   1  -4 7286.70 424.738  34
   7  -1   4 7505.70 425.427   6
   7  -1   4 7928.39 440.509   7
  -7   1  -5 10628.0 891.395  36
   7  -1   5 9902.50 536.556   6
   7  -1   5 11021.5 556.773   7
   7  -1   6 13.2580 122.377   6
   7  -1   7 606.959 130.538   6
   7  -1   8 9097.90 495.750   8
   7  -1   9 5267.73 325.153   8
  -7   1  -9 5918.94 332.236   1
   7  -1   9 5155.47 284.403   9
  -7   1 -10 4685.21 236.128   1
   7  -1  10 3969.77 206.412   9
   7   0 -13 1404.33 150.435  23
  -7   0  12 1178.93 142.136   4
  -7   0  11 289.166 135.049   4
  -7   0  10 2396.23 226.108   4
   7   0 -10 2099.53 214.547   7
   7   0  -9 1015.71 191.102   7
  -7   0   9 786.874 176.635   4
  -7   0   8 2004.02 225.599   4
   7   0  -8 2152.85 242.795   7
   7   0  -7 1331.68 214.163   7
  -7   0   7 1113.94 187.368   4
  -7   0   6 12946.4 1004.35  31
  -7   0   6 12331.6 640.704  34
  -7   0   6 13013.4 628.576   4
   7   0  -6 12379.9 640.887   7
   7   0  -5 4346.96 429.511  10
  -7   0   5 3330.37 560.480  31
  -7   0   5 3608.81 304.184  34
  -7   0   5 3750.01 273.967   4
   7   0  -5 3817.61 294.515   7
   7   0  -4 18779.6 1005.03  10
  -7   0   4 18017.4 1257.88  31
   7   0  -4 16683.4 801.512   7
  -7   0   4 17000.6 788.359   4
   7   0  -3 4309.10 446.477  10
  -7   0   3 3285.53 540.688  28
  -7   0   3 3866.94 583.203  31
  -7   0   3 5001.73 559.656  36
   7   0  -3 3873.94 284.926   7
  -7   0   3 3666.11 268.000   4
   7   0  -2 36248.9 1588.50  10
  -7   0   2 31814.9 1774.48  28
  -7   0   2 35165.1 1739.73  36
  -7   0   1 10742.4 841.684  28
  -7   0   1 9852.34 793.495  36
   7   0  -1 8936.01 484.129   7
  -7   0   1 8703.92 470.379   4
  -7   0   0 9307.27 863.449  31
  -7   0   0 8626.54 451.663   4
   7   0   0 7910.37 456.647   7
   7   0   1 10812.2 724.140  10
  -7   0  -1 11316.9 949.445  31
  -7   0  -1 10100.2 842.759  36
  -7   0  -1 11916.3 880.794  28
  -7   0  -1 10645.3 534.464   4
   7   0   1 10213.1 539.362   7
   7   0   2 21476.6 1169.47  10
  -7   0  -2 22695.2 1415.43  31
  -7   0  -2 18312.8 1279.05  36
  -7   0  -2 22385.3 990.921  34
  -7   0  -2 20557.7 983.207   3
   7   0   2 21426.7 959.146   7
   7   0   3 42847.0 2125.36  10
  -7   0  -3 42448.5 2350.41  31
  -7   0  -3 45803.9 2333.14  36
  -7   0  -3 46715.0 1928.13  34
   7   0   3 46442.3 1913.44   7
  -7   0  -3 45449.2 1942.59   3
  -7   0  -4 20787.4 1361.69  36
   7   0   4 22403.3 983.383   6
   7   0   4 21522.9 986.967   7
  -7   0  -4 21951.3 1023.19   3
  -7   0  -5 2075.99 422.504  36
   7   0   5 2011.61 211.182   6
   7   0   5 1912.66 225.392   7
  -7   0  -5 2028.85 254.010   3
   7   0   6 220.935 121.850   6
   7   0   7 3919.35 253.527   6
   7   0   8 477.940 149.729   8
   7   0   9 4347.25 274.754   8
   7   0  10 3365.67 203.777   8
  -7  -1  13 566.377 90.5744   4
  -7  -1  12 1892.29 174.200   4
  -7  -1  11 5761.06 351.739   4
   7   1 -11 6057.55 350.642   7
  -7  -1  10 2068.97 192.273   5
   7   1 -10 2180.22 240.506   7
  -7  -1   9 33.7282 156.796   4
  -7  -1   9 52.7134 117.768   5
  -7  -1   8-96.9292 154.244   4
  -7  -1   8-50.2258 126.621   5
  -7  -1   7 6377.39 385.890   4
  -7  -1   7 5544.59 351.622   5
  -7  -1   6 25467.5 1571.43  31
  -7  -1   6 25325.4 1155.80  34
  -7  -1   6 26074.0 1148.14   4
   7   1  -6 26466.1 1170.25   7
  -7  -1   5 15647.4 1140.78  31
  -7  -1   5 14869.4 734.019  34
  -7  -1   5 14098.6 694.777   4
   7   1  -5 14544.6 716.335   7
  -7  -1   4 13418.6 1032.40  31
  -7  -1   4 12576.3 642.936  34
  -7  -1   4 11814.7 601.687   4
  -7  -1   3 26238.5 1625.93  28
  -7  -1   3 28351.8 1209.00  34
   7   1  -3 25596.4 1165.64   7
  -7  -1   3 25592.6 1152.89   4
   7   1  -2 17146.3 962.896  10
  -7  -1   2 16014.4 1137.43  28
  -7  -1   2 16810.3 1185.40  31
  -7  -1   2 17310.7 1077.35  36
  -7  -1   2 15504.3 753.668  34
   7   1  -2 13904.8 709.061   7
  -7  -1   2 14073.6 697.448   4
  -7  -1   1 110.263 327.433  36
  -7  -1   1 99.3906 292.898  28
   7   1  -1 64.4710 144.210   7
  -7  -1   1 186.929 135.005   4
  -7  -1   0 25129.7 1543.20  31
  -7  -1   0 25581.1 1454.03  28
  -7  -1   0 24047.9 1086.34  34
  -7  -1   0 23555.5 1039.73   4
   7   1   0 22476.1 1041.89   7
   7   1   1 33015.9 1624.69  10
  -7  -1  -1 35398.8 1926.37  31
  -7  -1  -1 30626.8 1759.42  36
  -7  -1  -1 35296.1 1447.47  34
  -7  -1  -1 30311.1 1411.62   3
  -7  -1  -1 32351.6 1397.80   4
   7   1   1 31964.9 1400.38   7
   7   1   2 47676.2 2174.02  10
  -7  -1  -2 50839.6 2497.23  31
  -7  -1  -2 43353.5 2324.87  36
  -7  -1  -2 49691.1 1981.36  34
  -7  -1  -2 44479.3 1962.85   3
   7   1   2 45845.1 1944.47   7
   7   1   3 30437.0 1625.12  10
  -7  -1  -3 30467.1 1841.02  31
  -7  -1  -3 32377.1 1809.89  36
  -7  -1  -3 33362.4 1429.92  34
   7   1   3 33946.4 1416.80   7
  -7  -1  -3 33018.4 1442.50   3
  -7  -1  -4 11298.9 927.640  36
   7   1   4 12017.6 600.090   7
  -7  -1  -4 12105.1 631.302   3
  -7  -1  -5 1112.22 146.101  11
  -7  -1  -5 1456.09 219.254   3
   7   1   5 883.851 164.688   6
   7   1   5 1102.96 185.890   7
  -7  -1  -6 1029.62 129.363  11
   7   1   6 851.163 141.042   6
   7   1   8 325.919 133.135   8
  -7  -1  -8 463.323 155.049   1
   7   1   9 2992.44 173.174   9
   7   1   9 2604.51 191.620   8
  -7  -1  -9 3135.32 202.957   1
   7   1  10 2558.30 144.650   9
  -7  -2  13 2305.01 154.952   4
  -7  -2  12 16792.3 734.740   4
   7   2 -12 16041.9 725.428   7
  -7  -2  11 4807.17 313.628   4
   7   2 -11 4899.40 321.127   7
  -7  -2  10 5281.67 341.810   4
  -7  -2  10 4493.45 306.561   5
  -7  -2   9 132.072 167.015   4
  -7  -2   9 195.369 131.108   5
  -7  -2   8 274.749 173.602   4
  -7  -2   8 182.271 143.080   5
  -7  -2   7 24604.0 1077.50   4
  -7  -2   7 22759.0 1058.39   5
  -7  -2   6 57803.8 2821.23  31
  -7  -2   6 55051.6 2330.62  34
  -7  -2   6 56530.4 2328.81   4
  -7  -2   5 24805.3 1519.92  31
  -7  -2   5 22510.4 1057.75  34
   7   2  -5 23388.6 1057.72   7
  -7  -2   4 11213.8 964.516  31
  -7  -2   4 10693.6 576.042  34
   7   2  -4 9976.41 549.091   7
  -7  -2   3 844.686 402.380  31
  -7  -2   3 1029.17 221.684  34
   7   2  -3 1077.71 187.751   7
  -7  -2   2 8785.68 502.330  34
   7   2  -2 7484.38 449.071   7
  -7  -2   1 87.9494 142.987   4
   7   2  -1 121.841 150.793   7
   7   2   0 11677.4 804.677  10
  -7  -2   0 12206.5 557.705  17
  -7  -2   0 10247.1 568.214   3
   7   2   0 10911.9 570.606   7
  -7  -2   0 11342.4 575.613   4
  -7  -2   0 12473.1 1017.11  31
  -7  -2   0 11661.5 905.679  36
  -7  -2   0 11952.0 622.199  34
   7   2   1 24283.4 1299.52  10
  -7  -2  -1 24938.2 1063.63  17
   7   2   1 22803.9 1062.78   7
  -7  -2  -1 21393.7 1063.38   3
  -7  -2  -1 25135.5 1564.59  31
  -7  -2  -1 21812.5 1412.77  36
  -7  -2  -1 25883.7 1113.63  34
  -7  -2  -1 25937.7 1044.75  27
   7   2   2 11654.5 803.348  10
  -7  -2  -2 12663.8 572.335  27
  -7  -2  -2 11632.2 1000.00  31
  -7  -2  -2 11119.7 923.063  36
  -7  -2  -2 12674.0 642.138  34
  -7  -2  -2 11570.2 614.087   3
   7   2   2 12497.4 607.341   7
   7   2   3 4890.28 486.907  10
  -7  -2  -3 5376.82 291.869  27
   7   2   3 5311.27 333.771   7
  -7  -2  -3 4971.48 347.105   3
  -7  -2  -4 28922.4 1273.36   3
   7   2   4 28503.5 1237.63   7
  -7  -2  -5 3197.53 224.008  11
   7   2   5 2859.92 235.016   6
   7   2   5 2576.04 228.974   7
  -7  -2  -6 370.155 111.987  11
   7   2   6 110.731 106.742   6
  -7  -2  -7 5442.02 291.304  11
  -7  -2  -7 5784.44 349.904   1
  -7  -2  -8 1954.51 181.899  12
  -7  -2  -8 2544.66 202.017   1
   7   2   8 2085.77 198.177   8
  -7  -2  -9 107.625 59.1475  12
   7   2   9 213.132 84.0774   9
  -7  -2  -9 200.224 91.2583   1
   7   2   9 212.473 87.0553   8
   7   3 -12 7261.91 379.790   7
   7   3 -11 9208.06 491.848   7
  -7  -3  10 2858.17 240.628   5
  -7  -3   9 144.399 142.122   5
  -7  -3   8 3103.54 266.049   5
  -7  -3   7 8372.90 482.574   4
  -7  -3   6 37213.6 2114.00  31
  -7  -3   6 39233.3 1663.12   4
  -7  -3   5 18393.0 1280.30  31
   7   3  -5 17124.9 835.777   7
  -7  -3   5 17338.4 815.481   4
  -7  -3   4 19242.1 1358.06  28
  -7  -3   4 18488.1 1297.29  31
   7   3  -4 17379.6 852.412   7
  -7  -3   4 18427.9 842.361   4
  -7  -3   3 5624.57 729.501  28
  -7  -3   3 7021.18 783.855  31
  -7  -3   3 7855.14 456.947  34
   7   3  -3 6391.38 407.696   7
  -7  -3   3 6841.67 401.177   4
  -7  -3   2 1976.32 494.094  31
  -7  -3   2 1804.78 446.699  28
  -7  -3   2 1780.49 259.903  34
   7   3  -2 1644.34 214.434   7
  -7  -3   2 1951.98 209.412   4
  -7  -3   1 13312.4 597.649  17
  -7  -3   1 12606.9 986.560  28
   7   3  -1 11429.6 605.643   7
  -7  -3   1 11576.7 605.206   4
   7   3   0 8444.19 698.020  10
  -7  -3   0 9465.83 453.185  17
  -7  -3   0 7692.88 450.430   4
   7   3   0 7489.27 444.555   7
  -7  -3   0 8604.11 873.133  31
  -7  -3   0 7355.36 761.233  28
   7   3   1 43426.4 2156.67  10
  -7  -3  -1 48858.2 1919.49  17
   7   3   1 41444.9 1894.38   7
  -7  -3  -1 40479.1 2388.78  31
  -7  -3  -1 49009.2 1900.70  27
   7   3   2 1320.98 336.220  10
  -7  -3  -2 1800.42 210.243  17
  -7  -3  -2 1388.41 188.941   3
   7   3   2 1434.98 191.405   7
  -7  -3  -2 1169.66 432.403  31
  -7  -3  -2 1765.73 167.458  27
   7   3   3 213.807 138.081   7
   7   3   3 69.3836 228.316  10
  -7  -3  -3 204.599 104.804  27
  -7  -3  -4 897.422 162.560  11
  -7  -3  -5 17202.0 727.208  11
   7   3   5 14606.1 712.848   6
  -7  -3  -6 7761.66 388.533  11
  -7  -3  -6 7344.60 410.391   1
  -7  -3  -7 4040.02 232.749  11
  -7  -3  -8 12001.4 560.059  12
   7   3   8 11958.8 557.282   8
   7   4 -12 9220.09 437.331   7
  -7  -4  12 8670.35 420.093   4
  -7  -4  11 1200.85 162.374   4
   7   4 -10 40.3036 86.1569  37
  -7  -4  10 154.535 146.884   4
  -7  -4   9 1292.87 196.786   4
  -7  -4   8 212.871 156.463   4
  -7  -4   7 2351.26 244.410   4
  -7  -4   6 24211.1 1088.70   4
  -7  -4   5 7186.73 811.062  28
  -7  -4   5 7712.34 802.548  31
   7   4  -5 7465.01 457.121   7
  -7  -4   5 7722.78 437.498   4
  -7  -4   4 8416.21 871.729  28
  -7  -4   4 9159.81 880.965  31
   7   4  -4 8039.82 474.754   7
  -7  -4   4 8425.43 464.823   4
  -7  -4   3 242.851 369.523  31
  -7  -4   3 60.5434 299.934  28
  -7  -4   3 15.4854 139.987   4
   7   4  -3 71.2838 161.799   7
  -7  -4   2 28.3906 122.700  17
  -7  -4   2 169.186 287.179  28
  -7  -4   2 55.7460 141.186   4
   7   4  -2-10.4678 153.607   7
  -7  -4   1 3233.94 247.540  17
  -7  -4   1 2395.33 239.857   4
   7   4  -1 2582.11 243.615   7
  -7  -4   1 2478.64 539.137  31
  -7  -4   1 3169.93 512.031  28
  -7  -4   0 120.616 141.020  17
   7   4   0 192.969 149.194   7
  -7  -4   0-60.0046 360.643  31
  -7  -4   0 87.1106 129.424  27
   7   4   1 39872.7 2211.48  10
  -7  -4  -1 49599.0 1993.01  17
  -7  -4  -1 38260.8 2427.93  31
  -7  -4  -1 49813.3 1974.95  27
  -7  -4  -2 86557.3 3412.20  17
  -7  -4  -2 86531.3 3374.35  27
  -7  -4  -3 2217.67 191.130  27
  -7  -4  -4 3093.95 241.361  11
   7   4   5 2728.44 219.201   6
  -7  -4  -5 3973.48 245.540  11
  -7  -4  -6 3244.10 217.576  11
  -7  -4  -7 5533.28 330.362  12
  -7  -4  -7 5938.85 293.775  11
   7   4   8 1091.48 118.945   8
  -7  -4  -8 1310.17 123.415  12
  -7  -5  12 7365.45 326.664   4
  -7  -5  12 6277.25 404.618  25
   7   5 -11 529.029 144.969   7
  -7  -5  11 439.501 110.985   4
   7   5 -10 816.003 183.151   7
  -7  -5  10 589.775 137.645   4
  -7  -5   9 5168.48 326.118   4
  -7  -5   8 2202.17 222.486   4
   7   5  -7 1249.86 223.060   7
  -7  -5   7 1447.14 202.937   4
   7   5  -6 1263.23 217.150   7
  -7  -5   6 1244.26 188.701   4
  -7  -5   6 1016.81 404.202  28
  -7  -5   6 583.060 337.252  33
   7   5  -5 8071.90 468.355   7
  -7  -5   5 8438.60 449.955   4
  -7  -5   5 7220.37 828.669  28
  -7  -5   5 6730.52 545.834  25
   7   5  -4 13785.4 681.897   7
  -7  -5   4 13613.4 666.872   4
  -7  -5   4 14199.1 1117.49  28
  -7  -5   4 13776.0 787.098  25
  -7  -5   3 11276.0 557.079  17
  -7  -5   3 11369.3 556.368   4
   7   5  -3 10852.4 560.050   7
  -7  -5   2 288.148 153.115  17
  -7  -5   2 443.417 329.361  28
  -7  -5   2 186.050 150.255   4
   7   5  -2 297.536 157.157   7
  -7  -5   1 5896.91 368.838  17
  -7  -5   1 5400.88 635.958  28
  -7  -5   0 16886.5 817.996  17
  -7  -5   0 18013.9 819.231  27
  -7  -5  -1 35140.9 1433.51  17
  -7  -5  -1 36812.7 1411.58  27
  -7  -5  -2 7140.29 442.259  17
  -7  -5  -2 7853.73 408.264  27
  -7  -5  -3 7396.74 409.201  11
  -7  -5  -3 6930.67 436.911  17
  -7  -5  -3 7577.93 388.189  27
  -7  -5  -4 7756.58 409.165  11
  -7  -5  -5 115.731 112.952  11
  -7  -5  -6 2069.49 158.305  11
  -7  -5  -7 2550.84 179.834  12
   7   6 -11 2819.82 187.008   7
  -7  -6  11 1666.24 214.094  25
   7   6 -10 2675.92 220.022   7
  -7  -6  10 2126.82 265.393  25
   7   6  -9 851.390 177.182   7
  -7  -6   9 737.466 129.068   4
  -7  -6   9 895.051 227.128  25
   7   6  -8 3564.93 282.696   7
  -7  -6   8 3076.19 231.823   4
  -7  -6   8 3117.43 354.184  25
   7   6  -7 5225.42 350.774   7
  -7  -6   7 4843.21 308.908   4
  -7  -6   7 5186.62 451.486  25
  -7  -6   6 31276.3 1330.45   4
   7   6  -6 31929.5 1360.54   7
  -7  -6   6 29610.6 1483.47  25
  -7  -6   5 19431.9 863.200   4
   7   6  -5 19522.5 884.891   7
  -7  -6   5 17889.9 992.156  25
  -7  -6   4 8719.79 440.535   4
   7   6  -4 8653.47 456.746   7
  -7  -6   4 7836.80 448.556  17
  -7  -6   4 7621.88 542.691  25
  -7  -6   3 4100.71 296.910  17
  -7  -6   3 4201.06 274.234   4
  -7  -6   2 534.884 160.603  17
  -7  -6   1 11533.2 597.691  17
  -7  -6   1 11970.5 600.647  27
  -7  -6   0 10207.7 558.533  17
  -7  -6   0 11193.4 544.808  27
  -7  -6  -1 10573.8 582.873  17
  -7  -6  -1 11818.2 554.173  27
  -7  -6  -2 9810.81 560.968  17
  -7  -6  -2 11856.9 534.474  27
  -7  -6  -3 11165.3 570.993  12
  -7  -6  -4 4523.73 299.024  12
  -7  -6  -5 730.061 127.782  12
  -7  -6  -5 418.897 74.4524  13
  -7  -6  -5 815.465 111.731  11
  -7  -6  -6 77.9799 78.3802  12
   7   7 -10 417.933 102.105   7
  -7  -7  10 191.743 126.159  25
   7   7  -9 534.219 125.894   7
  -7  -7   9 235.708 158.536  25
   7   7  -8 740.238 146.254   7
  -7  -7   8 703.129 203.386  25
   7   7  -7 16600.9 692.300   7
  -7  -7   7 14894.9 796.725  25
   7   7  -6 22371.2 931.344   7
  -7  -7   6 19299.0 942.533  32
  -7  -7   6 21515.5 1052.22  25
  -7  -7   5 17665.9 803.960  17
  -7  -7   5 18167.6 919.964  25
  -7  -7   4 2889.13 234.086  17
  -7  -7   4 2555.83 283.867  25
  -7  -7   3 231.441 142.910  17
  -7  -7   3 220.614 150.381  25
  -7  -7   2 2070.80 223.935  17
  -7  -7   1 5276.15 347.159  17
  -7  -7   0 14542.4 735.029  17
  -7  -7   0 16399.0 715.487  27
  -7  -7  -1 14999.3 633.368  11
  -7  -7  -1 15605.5 629.385  27
  -7  -7  -2 11719.4 520.640  11
  -7  -7  -2 11144.8 553.920  17
  -7  -7  -2 13026.1 522.118  27
  -7  -7  -3 3370.56 244.123  12
  -7  -7  -3 5138.58 254.519  11
  -7  -7  -4 974.844 106.096  13
  -7  -7  -4 1236.46 128.476  12
  -7  -7  -5 18.8190 56.4909  12
  -7  -8   9 1619.09 168.820  25
  -7  -8   8 4650.50 319.404  25
  -7  -8   7 8685.83 497.610  25
  -7  -8   6 1612.70 158.221  32
  -7  -8   6 1765.11 223.894  25
  -7  -8   5 5577.29 306.850  17
  -7  -8   5 5649.32 331.655  32
  -7  -8   5 5372.34 371.822  25
  -7  -8   4 5945.41 326.837  17
  -7  -8   4 5409.42 339.434  32
  -7  -8   4 5461.86 324.303  27
  -7  -8   4 5455.72 362.573  25
  -7  -8   3 77.2560 128.305  17
  -7  -8   3 128.083 108.326  32
  -7  -8   3 112.860 110.166  27
  -7  -8   2 3006.29 198.175  11
  -7  -8   2 2875.92 235.446  17
  -7  -8   2 3248.07 219.797  27
  -7  -8   1 1129.73 128.996  11
  -7  -8   1 1151.70 178.402  17
  -7  -8   1 1060.08 149.603  32
  -7  -8   1 1382.28 140.591  27
  -7  -8   0 5446.49 264.542  11
  -7  -8   0 5196.61 309.732  17
  -7  -8  -1 5118.16 255.194  11
  -7  -8  -1 4171.48 285.859  17
  -7  -8  -2 9309.88 417.832  11
  -7  -8  -3 12904.6 489.707  11
  -7  -8  -3 9713.73 490.113  13
  -7  -9   7 2160.16 171.804  25
  -7  -9   6 2309.75 143.831  27
  -7  -9   6 2266.50 188.806  25
  -7  -9   5 882.660 99.6828  17
  -7  -9   5 840.215 94.9363  27
  -7  -9   5 639.447 115.893  25
  -7  -9   4 2000.90 150.716  17
  -7  -9   4 1637.40 129.615  27
  -7  -9   4 1653.84 148.658  32
  -7  -9   3 664.946 120.533  17
  -7  -9   3 545.613 87.8016  27
  -7  -9   2 544.175 121.399  17
  -7  -9   2 351.180 93.6416  32
  -7  -9   2 556.654 84.3470  27
  -7  -9   1 1046.04 138.784  17
  -7  -9   1 1161.23 104.517  27
  -7  -9   0 7309.17 361.751  17
  -7  -9  -1 9980.86 441.274  13
   8  -9  -4 283.255 79.3321  22
   8  -9  -3-13.2160 82.4269  15
   8  -9  -3 49.8426 76.9590  22
   8  -9  -2 72.3841 101.537  15
   8  -9  -2-2.89380 77.8806  22
   8  -9  -1 6626.38 334.927  22
   8  -9   0 5016.03 317.479  15
   8  -9   0 5065.54 293.445  20
   8  -9   0 4390.44 248.107  22
   8  -9   1 1654.81 177.918  15
   8  -9   1 1778.35 176.402  20
   8  -9   2 1289.85 151.026  15
   8  -9   2 1318.64 159.814  20
   8  -9   3 53.8735 68.9811  15
   8  -9   4 46.9852 78.7422  20
   8  -8  -6 2162.55 157.767  23
   8  -8  -5 1102.68 143.121  22
   8  -8  -5 1056.46 127.319  23
   8  -8  -4 239.747 119.107  22
   8  -8  -4 454.865 104.484  23
   8  -8  -3-40.7779 112.031  22
   8  -8  -3 108.347 93.6324  23
   8  -8  -2 4320.22 285.655  22
   8  -8  -2 4265.58 266.505  23
   8  -8  -1 996.798 164.471  20
   8  -8  -1 1070.87 149.400  22
   8  -8   0 3401.18 277.120  20
   8  -8   0 2802.08 214.097  22
   8  -8   1 359.788 118.974   6
   8  -8   1 547.480 158.788  20
   8  -8   1 320.766 88.9777  22
   8  -8   2 3169.98 235.051   6
   8  -8   2 2882.35 276.292  20
   8  -8   3 659.761 135.007   6
   8  -8   4 292.021 113.327   6
   8  -8   4-5.81060 74.5046  15
   8  -8   4 215.385 124.450  20
   8  -8   5-53.7658 97.9507  20
   8  -7  -8 2498.02 169.073  22
   8  -7  -8 2716.68 176.756  23
   8  -7  -7 9888.10 469.519  22
   8  -7  -7 8941.67 456.462  23
   8  -7  -6 7507.84 404.915  23
   8  -7  -5 670.906 151.194  22
   8  -7  -5 668.658 135.597  23
   8  -7  -4 497.895 151.376  22
   8  -7  -4 676.708 135.416  23
   8  -7  -3 3049.57 261.064  22
   8  -7  -3 2586.79 221.761  23
   8  -7  -2 3487.21 288.620  20
   8  -7  -2 3967.48 290.930  22
   8  -7  -2 3644.18 262.591  23
   8  -7  -1 9899.99 543.614  20
   8  -7  -1 9808.33 506.068  22
   8  -7  -1 8618.11 476.773  23
   8  -7   0 14724.9 682.826   6
  -8   7   0 13849.7 670.617   3
   8  -7   0 15755.3 765.991  20
   8  -7   0 14038.6 682.571  22
  -8   7  -1 382.571 131.366   3
   8  -7   1 447.168 147.888   6
   8  -7   1 407.755 173.581  20
   8  -7   1 293.673 104.842  22
   8  -7   2 1176.16 175.115   6
   8  -7   3 732.791 156.708   6
   8  -7   3 374.361 178.888  20
   8  -7   4 310.855 152.312  20
   8  -7   5 757.955 146.510   6
   8  -7   5 468.057 132.999  21
   8  -7   6 2589.75 192.750   6
   8  -7   6 2216.76 196.291  20
   8  -7   7 2367.53 163.638   6
   8  -6  -9 902.938 111.471  23
   8  -6  -9 706.661 100.328  22
   8  -6  -8 5255.30 312.456  22
   8  -6  -8 4827.92 300.091  23
   8  -6  -7 5777.05 339.409  23
   8  -6  -7 5045.02 297.358  24
   8  -6  -6 4315.72 324.176  22
   8  -6  -6 4157.65 294.816  23
   8  -6  -6 3944.20 271.107  24
   8  -6  -5 2334.87 249.239  22
   8  -6  -5 2127.47 217.357  23
   8  -6  -5 2018.09 202.859  24
   8  -6  -4 510.664 134.682  24
   8  -6  -4 231.163 163.836  22
   8  -6  -4 329.456 136.189  23
   8  -6  -3 3013.70 290.872   2
   8  -6  -3 3071.47 280.688  22
   8  -6  -3 2680.13 237.220  23
   8  -6  -2 2239.93 248.210  20
   8  -6  -2 2179.47 239.842  22
   8  -6  -2 2277.76 211.503  23
   8  -6  -1 9396.35 485.752   6
   8  -6  -1 9373.68 523.948  22
   8  -6   0 20688.8 902.096   6
   8  -6   0 20492.5 954.809   2
   8  -6   0 18439.1 904.079  22
  -8   6  -1 10357.1 550.273   3
   8  -6   1 10567.7 542.838   6
   8  -6   1 10479.2 579.029   2
   8  -6   2 5554.13 369.672   6
  -8   6  -2 6098.86 365.883   3
   8  -6   3 2412.88 232.669   6
  -8   6  -3 2129.68 215.609   3
  -8   6  -4 2012.00 194.535   3
   8  -6   5 2773.22 230.596   6
   8  -6   6 3580.35 243.761   6
   8  -6   6 2794.16 217.452   8
   8  -6   6 3433.74 262.812  20
   8  -6   7 4067.96 237.697   6
   8  -6   7 3802.97 224.653   8
   8  -5 -10 5350.56 289.897  23
   8  -5  -9 3420.64 245.255  22
   8  -5  -9 3220.64 239.430  23
   8  -5  -8 4766.72 324.891  22
   8  -5  -8 4177.84 303.632  23
   8  -5  -7 2770.50 248.572  23
   8  -5  -6 8425.65 514.472  22
   8  -5  -6 7842.95 467.664  23
   8  -5  -5 383.456 161.398   2
   8  -5  -5 227.685 172.388  22
   8  -5  -5 358.017 146.418  23
   8  -5  -4 1144.06 210.586   2
   8  -5  -4 1300.55 226.420  22
   8  -5  -4 1088.12 177.979  23
   8  -5  -3 797.984 204.419   2
   8  -5  -3 430.860 173.102  22
   8  -5  -3 471.300 136.419  23
   8  -5  -2 2303.50 199.414   6
   8  -5  -2 2627.71 256.520  22
   8  -5  -1 1161.85 219.239   2
   8  -5  -1 1099.23 164.313   6
   8  -5  -1 1122.47 154.030   7
  -8   5   1 1253.33 368.418  36
   8  -5  -1 1382.01 193.588  22
   8  -5   0 42380.1 1653.47   6
   8  -5   0 39130.5 1627.95   7
   8  -5   0 41571.7 1700.96   2
   8  -5   1 15512.5 743.674   6
   8  -5   1 15627.1 720.930   7
   8  -5   1 16619.7 784.321   2
  -8   5  -2 23462.0 1052.63   3
   8  -5   2 22682.0 1026.96   6
   8  -5   2 22747.1 1052.20   2
   8  -5   2 22534.5 1007.05   7
   8  -5   3 660.096 179.346   2
  -8   5  -3 983.789 195.349   3
   8  -5   3 653.224 141.294   8
  -8   5  -4 180.238 153.236   3
   8  -5   4 20.0431 141.927   6
   8  -5   4 34.3792 117.524   8
   8  -5   5 20836.2 952.361   6
   8  -5   5 20413.5 945.179   8
  -8   5  -5 22105.8 951.164   3
   8  -5   6 24848.4 1080.68   6
   8  -5   6 24871.4 1082.59   8
   8  -5   7 4600.83 273.691   6
   8  -5   7 5168.62 284.778   8
   8  -5   8 254.982 73.5052   6
   8  -5   8 349.186 90.7190   8
   8  -4 -11 40.0420 59.4242  23
   8  -4 -10 341.520 110.580  22
   8  -4 -10 420.789 113.907  23
   8  -4  -9 12289.0 617.269  22
   8  -4  -9 11356.5 595.408  23
   8  -4  -8 10584.6 569.287  23
   8  -4  -7 6441.10 415.099  23
   8  -4  -6 5678.92 362.018   2
   8  -4  -6 5448.56 379.138  23
   8  -4  -5 4873.04 342.361   2
   8  -4  -5 4318.00 325.836  23
   8  -4  -4 861.182 198.709   2
   8  -4  -4 515.697 386.544  29
   8  -4  -4 476.747 145.974  23
   8  -4  -3 2623.75 213.430   7
   8  -4  -3 2939.11 284.747   2
   8  -4  -3 2459.73 269.268  22
   8  -4  -2 13668.4 657.722   6
   8  -4  -2 14797.6 669.156   7
  -8   4   2 14990.2 1047.24  36
   8  -4  -2 13461.0 730.210  22
   8  -4  -1 46456.3 1842.21   6
   8  -4  -1 44821.6 1841.78   7
   8  -4  -1 45213.4 1895.69   2
  -8   4   1 43139.3 2287.00  36
   8  -4  -1 39727.3 1872.02  22
   8  -4   0 35244.5 1494.01   6
   8  -4   0 35558.9 1491.92   7
   8  -4   0 36375.8 1538.88   2
  -8   4   0 35985.3 1963.91  36
   8  -4   1 3680.43 280.481   6
   8  -4   1 3882.77 278.647   7
   8  -4   1 3627.66 312.877   2
  -8   4  -2 8210.12 466.544   3
   8  -4   2 7164.62 423.041   6
   8  -4   2 8008.99 424.995   7
   8  -4   2 7095.08 439.372   2
   8  -4   3 2285.88 224.066   8
   8  -4   3 2435.92 238.618   7
   8  -4   3 2187.13 235.852   2
   8  -4   4 93.2906 126.115   2
  -8   4  -4 194.442 171.958   3
   8  -4   4 227.769 147.511   6
   8  -4   4 70.6825 129.121   8
  -8   4  -5 5.52335 152.765   3
   8  -4   5 113.016 135.800   6
   8  -4   5-37.3553 125.376   8
   8  -4   6 370.350 133.795   6
   8  -4   6 349.831 132.323   8
   8  -4   7 1705.29 167.543   6
   8  -4   7 1975.71 186.493   8
  -8   4  -8 6192.70 290.986   1
   8  -4   8 5787.42 303.589   8
   8  -4   9 372.709 69.7472   8
   8  -3 -11 32.7978 76.8854  22
   8  -3 -11 91.1036 89.5446  23
   8  -3 -10 42.4440 115.189  22
   8  -3 -10 64.3382 117.840  23
   8  -3  -9 7149.61 435.348  23
   8  -3  -8 16227.6 805.271  23
   8  -3  -7 13432.6 700.037  23
   8  -3  -6 24015.7 1050.16   2
   8  -3  -6 22349.7 1075.02  23
   8  -3  -5 402.132 172.013   2
   8  -3  -5 179.794 140.265   7
   8  -3  -5-66.1048 324.502  29
   8  -3  -5 242.946 135.104  23
   8  -3  -4 16018.5 721.705   7
   8  -3  -4 10786.3 1209.10  29
   8  -3  -3 12284.1 591.898   7
  -8   3   3 11740.8 920.624  36
   8  -3  -2 2964.66 233.001   6
   8  -3  -2 3135.38 258.709   7
  -8   3   2 3011.45 231.809   4
  -8   3   2 3648.45 514.735  36
   8  -3  -1 2035.14 204.127   6
   8  -3  -1 2275.03 222.665   7
  -8   3   1 2135.94 453.584  36
   8  -3  -1 1576.16 197.143  22
   8  -3   0 255.546 140.163   6
   8  -3   0 322.101 165.694   7
   8  -3   0 665.943 375.795  29
  -8   3   0 339.805 343.278  36
   8  -3   1 4972.16 332.829   6
   8  -3   1 5445.34 345.769   7
   8  -3   1 3993.80 704.688  29
  -8   3  -1 5722.20 687.155  36
   8  -3   2 8565.27 491.600   2
  -8   3  -2 9595.22 528.455   3
   8  -3   2 8081.58 463.740   8
   8  -3   2 9252.40 485.717   7
  -8   3  -2 9413.95 864.570  36
  -8   3  -3 421.589 198.768   3
   8  -3   3 330.951 144.110   2
   8  -3   3 173.904 128.549   8
   8  -3   3 350.350 169.047   7
   8  -3   3 153.866 237.154  30
  -8   3  -3 186.721 340.716  36
  -8   3  -4 1402.81 219.049   3
   8  -3   4 769.033 170.229   6
   8  -3   4 1140.13 175.098   8
  -8   3  -5 884.312 196.710   3
   8  -3   5 571.927 154.238   6
   8  -3   5 479.679 162.514   8
   8  -3   6 1569.64 179.061   6
   8  -3   6 1686.02 194.646   8
  -8   3  -6 1692.83 213.945   3
   8  -3   7 6872.18 382.273   6
   8  -3   7 8384.11 429.896   8
   8  -3   8 4897.78 277.927   6
   8  -3   8 7493.82 342.798   8
  -8   3  -9 607.907 91.3777   1
   8  -2 -11 1117.11 150.706  22
   8  -2 -11 1141.36 162.401  23
   8  -2 -10 7631.24 446.104  23
  -8   2   9 11009.1 513.030   4
   8  -2  -9 9959.66 574.756  23
  -8   2   8 4024.32 263.635   4
   8  -2  -8 3505.58 304.158  23
   8  -2  -7 604.438 141.303   2
  -8   2   7 609.088 145.757   4
   8  -2  -7 708.861 152.852   7
   8  -2  -7 670.223 161.282  23
  -8   2   6 371.740 139.371   4
   8  -2  -6 184.381 145.276   7
   8  -2  -6-30.9736 352.786  29
  -8   2   6 61.1771 172.463  34
   8  -2  -6 268.722 140.453  23
   8  -2  -5 33.8859 298.872  29
  -8   2   5 18.3900 130.951   4
   8  -2  -5 24.7690 148.476   7
   8  -2  -4 941.954 411.326  29
  -8   2   4 1898.86 401.970  36
  -8   2   4 2055.64 417.535  28
   8  -2  -4 1839.12 210.757   7
  -8   2   4 1726.73 190.470   4
  -8   2   3 10123.3 818.535  28
   8  -2  -3 8103.25 992.942  29
  -8   2   3 12149.4 891.998  36
   8  -2  -3 9226.11 484.449   6
   8  -2  -3 10593.6 526.860   7
  -8   2   3 9412.93 497.292   4
  -8   2   2 19737.3 1258.89  36
  -8   2   2 17270.3 1166.90  28
   8  -2  -2 20472.0 851.942   6
   8  -2  -2 18528.5 875.097   7
  -8   2   2 17692.0 847.223   4
   8  -2  -1 27270.9 1948.09  29
  -8   2   1 32377.1 1783.88  36
  -8   2   1 27341.0 1656.95  28
   8  -2  -1 35420.5 1340.81   6
  -8   2   1 28376.9 1325.13   4
   8  -2  -1 30833.3 1347.78   7
  -8   2   0 14452.8 1085.87  36
   8  -2   0 14380.8 675.723   6
   8  -2   0 14336.6 693.079   7
   8  -2   1 5433.98 796.162  29
  -8   2  -1 5979.00 716.090  36
   8  -2   1 6954.42 407.123   6
   8  -2   1 7437.37 421.907   7
  -8   2  -2 10752.3 556.771   3
   8  -2   2 8677.37 488.739   8
  -8   2  -3 1008.78 387.953  31
   8  -2   3 1425.19 200.510   6
  -8   2  -3 1697.28 244.384   3
   8  -2   3 1484.25 197.440   8
   8  -2   3 1656.53 226.498   7
  -8   2  -4 1371.31 411.828  36
  -8   2  -4 1060.89 178.163  34
   8  -2   4 1294.88 187.204   6
  -8   2  -4 1430.19 232.171   3
   8  -2   4 1083.94 183.979   8
   8  -2   4 1536.61 217.394   7
   8  -2   5 8216.34 482.097   6
   8  -2   5 9484.88 513.935   8
   8  -2   5 9677.80 503.994   7
  -8   2  -5 9813.07 531.570   3
   8  -2   6 21438.5 992.870   6
   8  -2   6 24857.3 1040.49   8
   8  -2   7 9200.49 480.126   6
   8  -2   7 11987.5 544.483   8
   8  -2   8 2174.45 148.846   9
  -8   2  -9 945.387 110.132   1
   8  -1 -12 111.754 73.6677  23
  -8   1  11 3210.14 197.103   4
   8  -1 -11 2566.34 232.609  23
  -8   1  10-32.0414 111.754   4
   8  -1 -10 34.1799 119.353  23
  -8   1   9 3565.13 261.638   4
   8  -1  -8 8524.28 454.023   7
  -8   1   8 8076.83 448.829   4
   8  -1  -7 13550.4 661.421   7
  -8   1   7 13898.9 656.581   4
  -8   1   6 2282.45 505.309  28
   8  -1  -6 1698.09 497.280  29
  -8   1   6 2777.33 523.238  31
  -8   1   6 2977.54 281.337  34
   8  -1  -6 3410.55 270.396   7
  -8   1   6 2849.42 248.682   4
  -8   1   5 576.800 335.561  28
   8  -1  -5 468.451 352.939  29
  -8   1   5 181.834 369.092  31
  -8   1   5 310.464 193.695  34
  -8   1   5 301.810 155.058   4
   8  -1  -5 228.726 164.326   7
   8  -1  -4 91.3981 224.105  10
  -8   1   4 222.204 290.384  28
  -8   1   4 126.511 375.269  31
  -8   1   4 153.132 140.434   4
   8  -1  -4 16.3088 160.617   7
   8  -1  -3 14656.7 876.599  10
  -8   1   3 13036.9 1023.66  28
  -8   1   3 15848.7 1059.76  36
   8  -1  -3 14385.0 676.114   7
  -8   1   3 14386.1 657.182   4
   8  -1  -2 26121.1 1371.52  10
  -8   1   2 23243.1 1504.00  28
  -8   1   2 27743.4 1589.63  36
   8  -1  -2 27624.6 1135.97   6
   8  -1  -2 26623.2 1163.14   7
  -8   1   2 24448.6 1137.33   4
   8  -1  -1 62114.2 2701.21  10
  -8   1   1 64590.9 2947.89  36
  -8   1   1 59963.0 2877.81  28
   8  -1  -1 59622.9 2434.13   6
  -8   1   1 56930.9 2441.18   4
   8  -1  -1 59574.9 2458.15   7
  -8   1   0 21622.9 1294.19  28
  -8   1   0 19305.9 1298.99  36
   8  -1   0 20174.2 891.812   6
  -8   1   0 18620.9 886.650   4
  -8   1  -1 8954.74 948.305  31
   8  -1   1 9187.05 504.043   7
   8  -1   2 1036.75 400.668  29
  -8   1  -2 1072.45 417.956  31
  -8   1  -2 1072.59 423.345  36
  -8   1  -2 1289.80 238.125  34
  -8   1  -2 1024.89 218.724   3
   8  -1   2 1300.88 207.205   7
  -8   1  -3 4948.46 696.910  31
  -8   1  -3 5352.89 699.947  36
  -8   1  -3 6652.44 411.489  34
   8  -1   3 6478.37 393.884   6
   8  -1   3 6670.72 402.221   7
  -8   1  -4 3514.29 558.951  36
   8  -1   4 3988.87 293.824   6
   8  -1   4 4207.72 304.676   7
   8  -1   5 8178.88 452.533   6
   8  -1   5 8977.39 482.422   8
   8  -1   5 8248.49 461.991   7
   8  -1   6 17667.8 829.039   6
   8  -1   6 20348.4 880.089   8
   8  -1   7 6148.67 330.431   6
   8  -1   8 3542.63 206.269   9
   8  -1   9 384.263 86.2302   8
   8  -1   9 405.344 69.5100   9
  -8   0  12 3052.19 164.949   4
   8   0 -12 1606.67 170.783  23
  -8   0  11 5208.70 294.660   4
  -8   0  10 4547.49 288.928   4
   8   0 -10 4401.17 278.648   7
  -8   0   9 3849.07 275.572   4
   8   0  -9 3188.07 265.457   7
  -8   0   8 6141.91 379.864   4
   8   0  -8 6194.04 385.160   7
  -8   0   7 19481.2 898.217   4
   8   0  -7 19337.9 905.054   7
  -8   0   6 1225.40 423.528  28
  -8   0   6 1297.15 421.454  31
  -8   0   6 1171.06 216.679  34
  -8   0   6 1175.99 188.039   4
   8   0  -6 1209.49 209.429   7
   8   0  -5-108.688 231.688  10
  -8   0   5-62.4367 291.281  28
  -8   0   5 394.866 383.357  31
  -8   0   5 195.502 200.602  34
  -8   0   5 53.1654 146.705   4
   8   0  -5 63.4549 165.814   7
   8   0  -4 22567.4 1296.98  10
  -8   0   4 23985.8 1575.94  28
  -8   0   4 26531.4 1672.39  31
  -8   0   4 26610.9 1154.33  34
   8   0  -4 24173.5 1108.40   7
  -8   0   4 24476.1 1096.19   4
   8   0  -3 13504.9 863.728  10
  -8   0   3 12262.5 1041.58  28
  -8   0   3 12064.5 1127.63  31
  -8   0   3 15283.9 1053.65  36
  -8   0   3 14339.9 716.546  34
   8   0  -3 12773.8 657.966   7
  -8   0   3 12579.2 642.110   4
   8   0  -2 9698.23 709.103  10
  -8   0   2 9026.64 857.356  28
  -8   0   2 8744.93 945.940  31
  -8   0   2 10962.7 901.340  36
  -8   0   2 9422.28 567.440  34
  -8   0   2 9436.82 505.440   4
   8   0  -1 37860.1 1783.99  10
  -8   0   1 37194.7 1981.54  36
  -8   0   1 36946.7 1979.77  28
   8   0  -1 34897.3 1538.08   7
  -8   0   1 35398.9 1528.49   4
  -8   0   0 26001.8 1707.96  31
  -8   0   0 29215.4 1611.53  28
  -8   0   0 27186.9 1220.88  34
  -8   0   0 25716.0 1156.34   4
   8   0   0 25847.7 1169.50   7
   8   0   1 14090.7 900.787  10
  -8   0  -1 12769.7 1147.36  31
  -8   0  -1 11326.1 1021.90  36
  -8   0  -1 14579.3 736.065  34
  -8   0  -1 13624.9 708.437   3
   8   0   1 14489.6 693.317   7
   8   0   2 3168.99 448.489  10
  -8   0  -2 3882.15 612.888  31
  -8   0  -2 3218.57 557.645  36
  -8   0  -2 4208.86 340.866  34
   8   0   2 4182.35 297.349   6
   8   0   2 3784.70 298.848   7
  -8   0  -2 3729.97 315.371   3
  -8   0  -3 1111.83 380.949  31
  -8   0  -3 902.257 366.126  36
  -8   0  -3 1305.28 209.588  34
  -8   0  -3 1174.51 220.427   3
   8   0   3 1360.16 192.388   6
   8   0   3 1241.75 203.374   7
  -8   0  -4 10743.5 930.467  36
   8   0   4 11487.8 582.566   6
   8   0   4 12398.6 595.697   7
  -8   0  -4 11098.4 610.854   3
   8   0   5 4905.23 314.439   6
   8   0   5 4920.32 327.024   7
  -8   0  -5 5067.07 355.164   3
   8   0   6 14389.9 697.235   6
   8   0   6 17798.5 762.662   8
   8   0   7 4026.54 235.701   6
  -8   0  -8 330.833 124.701   1
   8   0   8 348.250 112.232   8
   8   0   9 594.687 95.7729   8
  -8   0  -9 900.302 96.5974   1
   8   0   9 680.489 79.5957   9
  -8  -1  12 790.671 107.276   4
   8   1 -12 250.750 88.5134  23
  -8  -1  11 4505.40 273.517   4
   8   1 -11 4247.49 259.215   7
  -8  -1  10 13901.2 663.575   4
   8   1 -10 13935.5 661.704   7
  -8  -1   9 8689.25 473.040   4
   8   1  -9 8512.16 478.960   7
  -8  -1   8 3659.83 286.093   4
   8   1  -8 3473.44 295.319   7
  -8  -1   7 4400.75 319.241   4
   8   1  -7 3859.24 323.743   7
   8   1  -6 3978.88 453.565  10
  -8  -1   6 4043.97 640.335  28
  -8  -1   6 3855.74 606.002  31
  -8  -1   6 3989.38 328.300  34
   8   1  -6 4831.81 346.763   7
  -8  -1   6 4787.09 329.386   4
   8   1  -5 613.333 280.625  10
  -8  -1   5 986.556 388.718  28
  -8  -1   5 494.507 411.040  31
  -8  -1   5 770.817 219.378  34
  -8  -1   5 812.492 180.921   4
   8   1  -4 4511.20 503.443  10
  -8  -1   4 3762.09 607.977  28
  -8  -1   4 4203.57 681.100  31
  -8  -1   4 4412.82 367.157  34
  -8  -1   4 4112.13 304.948   4
   8   1  -3 23315.6 1288.96  10
  -8  -1   3 22172.7 1505.74  28
  -8  -1   3 23051.2 1572.41  31
  -8  -1   3 24589.1 1091.96  34
   8   1  -3 22062.5 1037.30   7
  -8  -1   3 22400.1 1025.39   4
   8   1  -2 31225.2 1484.40  10
  -8  -1   2 25464.1 1630.68  28
  -8  -1   2 25901.7 1727.07  31
  -8  -1   2 27437.0 1241.00  34
   8   1  -2 26809.3 1194.53   7
  -8  -1   2 25598.5 1179.59   4
  -8  -1   1 8679.59 830.121  36
  -8  -1   1 9857.49 854.333  28
  -8  -1   1 9024.05 492.289   4
   8   1  -1 8606.44 496.258   7
  -8  -1   0 15391.1 1264.42  31
  -8  -1   0 17595.5 1169.47  28
  -8  -1   0 17146.4 818.696  34
  -8  -1   0 14165.5 763.396   3
  -8  -1   0 16033.7 758.472   4
   8   1   0 15478.5 758.409   7
   8   1   1 2579.31 400.816  10
  -8  -1  -1 1682.92 508.699  31
  -8  -1  -1 2081.22 472.449  36
  -8  -1  -1 2471.66 286.095  34
  -8  -1  -1 2389.42 253.760   3
   8   1   1 2411.06 250.134   7
   8   1   2 6478.95 586.308  10
  -8  -1  -2 6760.61 783.945  31
  -8  -1  -2 5744.71 687.090  36
  -8  -1  -2 7069.79 444.339  34
   8   1   2 7281.47 415.741   7
  -8  -1  -2 6478.24 418.133   3
  -8  -1  -3 834.632 365.891  36
  -8  -1  -3 1370.82 211.529   3
   8   1   3 1236.85 182.840   6
   8   1   3 1099.17 193.111   7
  -8  -1  -4 580.331 122.185  11
  -8  -1  -4 575.942 184.391   3
   8   1   4 902.696 162.979   6
   8   1   4 745.802 176.152   7
  -8  -1  -5 17282.0 784.454  11
   8   1   5 19591.7 829.369   6
   8   1   5 18530.8 827.260   7
   8   1   6 7160.81 374.529   6
  -8  -1  -7 5631.60 330.339   1
  -8  -1  -8 128.347 74.7968  12
  -8  -1  -8 309.289 104.125   1
   8   1   8 321.506 99.5416   8
  -8  -2  12 617.530 105.697   4
   8   2 -11 1956.44 186.499   7
  -8  -2  11 2120.65 186.244   4
  -8  -2  10 5745.34 349.958   4
   8   2 -10 5916.54 360.288   7
  -8  -2   9 25368.9 1123.35   4
   8   2  -9 25166.3 1135.78   7
  -8  -2   8 4114.30 317.010   4
   8   2  -8 4660.02 344.194   7
  -8  -2   7 42774.3 1815.99   4
   8   2  -6 131.531 272.340  10
  -8  -2   6 313.938 361.635  28
  -8  -2   6 55.9497 340.629  31
  -8  -2   6 274.555 170.040   4
   8   2  -5 244.794 300.613  10
  -8  -2   5 711.297 380.560  28
  -8  -2   5 273.957 373.284  31
  -8  -2   5 362.935 206.557  34
   8   2  -5 609.347 203.073   7
  -8  -2   5 504.184 185.124   4
   8   2  -4 15044.8 1020.26  10
  -8  -2   4 16255.6 1258.91  31
  -8  -2   4 16419.2 805.678  34
   8   2  -4 15567.1 770.867   7
   8   2  -3 19687.6 1208.74  10
   8   2  -3 19226.7 942.226   7
  -8  -2   3 21675.6 993.785  34
   8   2  -2 7527.49 450.806   7
  -8  -2   2 7679.98 876.570  31
  -8  -2   1 12725.2 654.043   3
   8   2  -1 13547.1 666.492   7
  -8  -2   1 13734.9 1167.48  31
   8   2   0 878.412 327.085  10
  -8  -2   0 1267.94 192.233   3
   8   2   0 1153.20 206.277   7
  -8  -2   0 1623.90 457.633  31
  -8  -2   0 1396.18 252.831  34
  -8  -2   0 1242.82 151.481  27
   8   2   1 16116.0 1037.60  10
   8   2   1 16449.5 813.526   7
  -8  -2  -1 16549.8 817.804   3
  -8  -2  -1 16621.7 1312.46  31
  -8  -2  -1 19334.0 872.090  34
  -8  -2  -1 18273.7 774.995  27
   8   2   2 7306.93 645.237  10
  -8  -2  -2 9243.84 426.254  27
  -8  -2  -2 7316.83 818.683  31
   8   2   2 8766.42 476.955   7
  -8  -2  -2 8508.82 480.119   3
  -8  -2  -3 4358.19 308.165   3
   8   2   3 4052.35 290.588   7
  -8  -2  -4 6432.07 350.176  11
   8   2   4 6790.68 374.354   6
   8   2   4 5823.23 355.891   7
  -8  -2  -5 766.821 122.259  11
   8   2   5 846.101 137.257   6
  -8  -2  -6 2662.75 163.985  11
   8   2   6 1901.80 168.700   6
  -8  -2  -7 4184.19 242.545   1
   8   2   7 3609.27 253.531   8
  -8  -2  -8 4121.14 228.510  12
   8   2   8 4703.97 257.320   8
   8   3 -12 3443.66 198.933   7
   8   3 -11 3204.13 231.535   7
   8   3 -10 7025.07 405.143   7
   8   3  -7 7195.37 449.666   7
  -8  -3   6 4482.04 616.626  31
   8   3  -6 5304.03 377.341   7
  -8  -3   6 5129.54 352.875   4
  -8  -3   5 1321.51 457.723  31
   8   3  -5 1618.94 235.179   7
  -8  -3   5 1688.15 218.132   4
  -8  -3   4 1232.73 436.490  31
  -8  -3   4 822.237 426.543  28
   8   3  -4 1734.77 234.405   7
  -8  -3   4 1626.58 212.407   4
  -8  -3   3 5260.91 692.730  28
  -8  -3   3 4544.90 690.038  31
   8   3  -3 4336.45 333.226   7
  -8  -3   3 4555.30 323.903   4
  -8  -3   2 19537.4 1371.62  28
  -8  -3   2 19496.9 910.775   4
   8   3  -2 19902.0 919.579   7
   8   3  -1 11118.7 833.201  10
  -8  -3   1 11126.0 561.035   4
   8   3  -1 9853.32 550.695   7
  -8  -3   1 10276.5 1031.53  31
  -8  -3   1 10645.7 932.110  28
   8   3   0 9903.79 798.347  10
  -8  -3   0 12367.1 576.716  17
   8   3   0 10398.7 580.352   7
  -8  -3   0 11456.6 1051.63  31
  -8  -3   0 12136.3 564.562  27
   8   3   1 48.6621 256.764  10
   8   3   1 318.887 161.900   7
  -8  -3  -1 557.270 336.548  31
  -8  -3  -1 318.889 113.511  27
   8   3   2 1628.78 193.435   7
  -8  -3  -2 1970.12 165.118  27
   8   3   3 378.751 130.945   7
  -8  -3  -3 483.383 100.287  27
   8   3   4 6213.22 363.804   6
  -8  -3  -4 6706.04 354.944  11
   8   3   5 25231.6 1088.01   6
  -8  -3  -5 26446.3 1089.48  11
  -8  -3  -6 17430.8 740.467  11
   8   3   7 2177.29 178.827   8
  -8  -3  -7 2108.68 171.795  12
  -8  -4  12-10.6783 59.3083   4
   8   4 -12 101.494 71.9238   7
  -8  -4  11 6013.21 314.840   4
  -8  -4  10 5874.17 334.409   4
   8   4  -9 10617.9 546.011   7
  -8  -4   9 10034.3 519.583   4
   8   4  -8 293.146 184.869   7
  -8  -4   8 334.281 152.941   4
   8   4  -7 5066.97 369.999   7
  -8  -4   7 5548.60 348.991   4
   8   4  -6 293.615 185.553   7
  -8  -4   6 258.713 159.045   4
  -8  -4   5 449.836 166.882   4
   8   4  -5 371.798 184.953   7
  -8  -4   5 29.1704 334.829  31
  -8  -4   5 423.771 317.155  28
  -8  -4   4 112.756 151.752   4
   8   4  -4 149.236 175.063   7
  -8  -4   4-370.191 404.898  31
  -8  -4   4 313.503 295.623  28
  -8  -4   3 1479.06 204.679   4
   8   4  -3 1754.92 226.787   7
  -8  -4   3 1877.23 482.512  31
  -8  -4   3 1697.32 420.663  28
  -8  -4   2 13499.9 654.714   4
   8   4  -2 13022.1 656.007   7
  -8  -4   2 12494.7 1041.86  28
   8   4  -1 40261.4 2279.18  10
  -8  -4   1 49742.3 1974.54  17
   8   4  -1 44088.9 1975.11   7
  -8  -4   1 42448.4 2568.39  31
  -8  -4   1 41738.0 2445.45  28
  -8  -4   1 53620.3 1999.25  27
   8   4   0 21167.6 1373.59  10
  -8  -4   0 27759.8 1130.11  17
   8   4   0 22514.0 1106.42   7
  -8  -4   0 19144.1 1594.18  31
  -8  -4   0 29833.1 1129.72  27
  -8  -4  -1 16202.0 730.367  17
  -8  -4  -1 16723.7 699.782  27
  -8  -4  -2 20220.1 882.052  27
  -8  -4  -3 31141.1 1320.30  11
   8   4   4 16824.5 790.274   6
  -8  -4  -4 19574.9 801.784  11
   8   4   5 9554.88 484.164   6
  -8  -4  -5 12757.8 507.605  11
  -8  -4  -6 2664.03 212.778  12
  -8  -4  -6 3300.47 179.736  11
   8   4   7 1390.80 126.499   8
  -8  -4  -7 1587.00 129.108  12
   8   5 -11 5827.81 266.622   7
  -8  -5  11 4677.66 233.137   4
   8   5 -10 5730.54 310.769   7
  -8  -5  10 5286.91 277.777   4
   8   5  -9 5790.93 335.327   7
  -8  -5   9 5112.14 296.856   4
   8   5  -8 9513.29 490.335   7
  -8  -5   8 9412.86 460.911   4
   8   5  -7 4688.44 325.547   7
  -8  -5   7 4724.60 300.652   4
  -8  -5   6 1003.89 176.882   4
   8   5  -6 1040.93 194.753   7
  -8  -5   6 512.530 196.400  25
  -8  -5   5 4785.39 309.582   4
   8   5  -5 4195.17 319.721   7
  -8  -5   4 29175.5 1246.56   4
   8   5  -4 28125.1 1252.31   7
  -8  -5   3 19225.8 855.772   4
   8   5  -3 18003.0 854.906   7
   8   5  -2 11055.1 550.783   7
  -8  -5   2 10785.3 542.273  17
   8   5  -1 2554.96 225.549   7
  -8  -5   1 2920.03 239.258  17
  -8  -5   0 5439.81 353.812  17
  -8  -5   0 6620.08 352.652  27
  -8  -5  -1 249.188 146.780  17
  -8  -5  -1 352.835 113.668  27
  -8  -5  -2 20422.1 883.293  27
  -8  -5  -3 3795.81 248.614  11
   8   5   4 1926.33 176.258   6
  -8  -5  -4 3292.47 195.162  11
  -8  -5  -5 945.682 132.378  12
  -8  -5  -5 1047.84 109.129  11
   8   6 -10 3805.65 204.998   7
  -8  -6  10 1849.54 211.172  25
   8   6  -9 8375.86 376.336   7
  -8  -6   9 4910.18 393.905  25
   8   6  -8 5071.53 293.271   7
  -8  -6   8 3315.58 320.086  25
  -8  -6   7 1051.65 145.032   4
   8   6  -7 1332.68 178.007   7
  -8  -6   7 812.845 199.758  25
  -8  -6   6 1092.06 148.215   4
   8   6  -6 1161.29 177.369   7
  -8  -6   6 639.277 182.075  25
  -8  -6   5 1499.85 171.764   4
   8   6  -5 1824.87 199.059   7
  -8  -6   4 13380.5 620.418   4
   8   6  -4 13347.8 632.633   7
  -8  -6   3 22428.4 975.218  17
  -8  -6   2 2828.91 231.717  17
  -8  -6   2 3598.36 257.692  27
  -8  -6   1 6030.30 378.875  17
  -8  -6   1 7947.35 391.171  27
  -8  -6   0 622.256 152.042  17
  -8  -6   0 861.289 132.366  27
  -8  -6  -1 129.948 131.803  17
  -8  -6  -1 127.288 94.8798  27
  -8  -6  -2 177.878 102.137  12
  -8  -6  -2 416.421 96.4910  27
  -8  -6  -3 649.619 122.736  12
  -8  -6  -3 1032.26 124.312  11
  -8  -6  -4 2814.67 210.086  12
  -8  -6  -4 4104.13 206.033  11
  -8  -6  -5 3570.20 161.392  11
  -8  -6  -5 2009.94 161.380  12
   8   7  -9 1050.71 99.8625   7
  -8  -7   9 644.898 116.029  25
   8   7  -8 1347.61 129.640   7
  -8  -7   8 880.562 153.105  25
   8   7  -7 176.996 102.979   7
  -8  -7   7 188.518 120.797  25
   8   7  -6 108.236 103.248   7
  -8  -7   6 163.936 94.7617  32
  -8  -7   6 211.749 124.225  25
  -8  -7   4 5873.06 340.311  27
  -8  -7   3 5530.00 323.074  17
  -8  -7   3 6922.22 355.635  27
  -8  -7   2 10488.6 543.082  17
  -8  -7   2 13006.4 559.008  27
  -8  -7   1 12987.5 657.756  17
  -8  -7   1 16288.2 662.423  27
  -8  -7   0 8666.08 381.697  11
  -8  -7   0 8825.37 374.727  27
  -8  -7  -1 227.072 95.2481  11
  -8  -7  -1 243.435 83.9607  27
  -8  -7  -2 147.952 81.8383  11
  -8  -7  -3 4452.26 226.700  11
  -8  -8   7 1985.09 139.492  27
  -8  -8   6 678.165 101.571  27
  -8  -8   5 1995.19 158.169  27
  -8  -8   4 2960.77 212.138  32
  -8  -8   3 4456.59 240.343  17
  -8  -8   2 5080.67 247.060  17
  -8  -8   2 3157.53 261.351  32
  -8  -8   1 8772.65 379.563  11
  -8  -8   1 7911.17 397.238  17
  -8  -8   0 1738.20 119.385  11
  -8  -8  -1 281.907 62.4544  11
  -8  -9   3 6591.27 289.944  27
   9  -8  -5 1661.14 126.106  22
   9  -8  -4 4121.91 233.529  22
   9  -8  -3 1044.59 116.699  22
   9  -8  -2 4784.30 260.788  22
   9  -8  -1 91.3241 67.4022  22
   9  -8   0 3736.77 250.918  20
   9  -8   1 4580.48 295.065  20
   9  -8   2 269.891 81.9556   6
   9  -8   2 307.539 108.814  20
   9  -8   3 278.791 83.8915   6
   9  -8   4 1126.73 122.928  20
   9  -7  -6 1803.12 160.013  22
   9  -7  -5 8514.11 385.426  22
   9  -7  -5 6018.10 325.413  23
   9  -7  -4 382.840 119.781  22
   9  -7  -3 3138.00 232.428  22
  -9   7   2 726.554 126.202   3
   9  -7  -2 487.062 120.821  22
  -9   7   1 7383.64 356.613   3
   9  -7  -1 6640.54 395.740  20
   9  -7  -1 6170.45 350.079  22
  -9   7   0 175.019 102.043   3
   9  -7   0 32.2320 131.277  20
   9  -7   1 5303.20 307.765   6
  -9   7  -1 5135.16 286.675   3
   9  -7   1 6094.85 371.486  20
   9  -7   2 2848.63 211.577   6
   9  -7   2 2610.67 250.571  20
   9  -7   3 5286.92 304.067   6
   9  -7   4 1142.12 137.298   6
   9  -7   4 809.774 150.827  20
   9  -7   5 3677.91 244.300  20
   9  -6  -8 44.7485 66.2364  22
   9  -6  -7 96.3328 73.9310  23
   9  -6  -6 641.632 141.939  22
   9  -6  -6 669.223 108.251  23
   9  -6  -5 972.012 164.898  22
   9  -6  -5 724.460 115.951  23
   9  -6  -4 5787.61 362.207  22
   9  -6  -3 9792.23 523.361  22
   9  -6  -2 7635.66 433.398  22
   9  -6  -1 5197.32 381.953  20
   9  -6  -1 5527.03 332.432  22
   9  -6   0 562.192 183.586   2
  -9   6   0 786.210 161.501   3
   9  -6   0 567.376 136.645   6
  -9   6  -1 3312.48 249.371   3
   9  -6   1 3041.65 239.168   6
   9  -6   2 4350.91 293.596   6
  -9   6  -2 4648.97 289.878   3
   9  -6   3 4787.72 298.841   6
  -9   6  -3 4463.72 276.631   3
  -9   6  -4 9042.39 432.184   3
   9  -6   5 5087.19 283.348   6
   9  -6   5 4390.63 302.130  20
   9  -6   6 1506.47 130.520   6
   9  -6   6 965.493 125.812  20
   9  -5  -9 1814.30 153.081  22
   9  -5  -8 186.568 81.2354  23
   9  -5  -7 578.692 147.659  22
   9  -5  -7 448.975 106.854  23
   9  -5  -6 6087.01 354.476  22
   9  -5  -6 4139.03 283.413  23
   9  -5  -5 22231.8 888.605   2
   9  -5  -5 21033.8 913.051  22
   9  -5  -4 8301.63 465.799   2
   9  -5  -4 7164.15 451.759  22
   9  -5  -3 6481.63 416.529   2
   9  -5  -3 5924.83 389.555  22
   9  -5  -2 3478.81 273.529  22
   9  -5  -1 1576.62 172.255   6
   9  -5  -1 1906.16 252.405   2
   9  -5  -1 1484.50 180.484  22
   9  -5   0 1422.26 172.225   6
   9  -5   0 1439.33 221.941   2
   9  -5   0 989.214 155.117   7
  -9   5  -1 4166.38 306.430   3
   9  -5   1 3470.42 270.715   6
   9  -5   1 4049.60 309.275   2
   9  -5   1 3583.42 254.469   7
   9  -5   2 10626.1 543.899   6
   9  -5   2 10425.9 560.761   2
  -9   5  -2 11527.2 567.772   3
  -9   5  -3 20149.8 908.552   3
  -9   5  -4 514.328 139.572   3
   9  -5   5 713.174 131.918   6
   9  -5   6 526.662 108.694   6
   9  -5   6 442.913 115.318  20
   9  -4  -9 2465.27 195.517  22
   9  -4  -9 1314.55 141.683  23
   9  -4  -8 410.197 107.773  23
   9  -4  -7 436.954 157.980  22
   9  -4  -7 318.405 113.502  23
   9  -4  -6 7144.53 387.935   2
   9  -4  -6 8226.03 452.668  22
   9  -4  -5 21580.1 976.245   2
   9  -4  -5 20771.6 1002.54  22
   9  -4  -4 22815.2 1034.38   2
   9  -4  -4 22073.4 1049.44  22
   9  -4  -3 13596.7 653.925   7
   9  -4  -3 15462.3 733.237   2
   9  -4  -3 14442.3 727.008  22
   9  -4  -2 1164.18 150.068   6
   9  -4  -2 1399.77 175.211   7
   9  -4  -2 1110.36 188.005  22
   9  -4  -1 2020.89 196.360   6
   9  -4  -1 2133.30 205.709   7
   9  -4  -1 2086.02 258.650   2
   9  -4   0 5278.38 332.244   6
   9  -4   0 5352.09 334.849   7
   9  -4   0 5633.48 378.423   2
   9  -4   1 897.737 191.710   2
  -9   4  -1 1083.45 209.564   3
   9  -4   1 648.026 155.150   6
   9  -4   1 1100.54 173.630   7
  -9   4  -2 2949.49 271.074   3
   9  -4   2 2898.08 241.677   6
   9  -4   2 2834.42 234.892   7
   9  -4   2 2546.77 245.912   2
   9  -4   3-59.3116 134.245   2
  -9   4  -3 176.862 160.499   3
   9  -4   3 240.206 139.798   7
   9  -4   4 7406.41 418.578   6
  -9   4  -4 8111.60 435.630   3
   9  -4   5 13164.3 648.337   6
  -9   4  -5 14935.3 663.313   3
   9  -4   6 1352.79 139.826   6
   9  -4   6 1149.90 129.660   8
   9  -4   7 782.100 97.7314   6
   9  -4   7 788.764 94.7025   8
   9  -3 -10 5645.50 291.303  22
   9  -3 -10 3488.74 227.596  23
   9  -3  -9 1029.99 136.885  23
   9  -3  -8 187.668 102.628  23
   9  -3  -7 5064.75 322.304  23
   9  -3  -6 4191.31 297.462   2
  -9   3   6 4020.75 309.327  34
   9  -3  -5 15719.5 739.582   7
   9  -3  -5 17567.9 796.453   2
   9  -3  -4 3284.08 296.445   2
   9  -3  -4 3527.36 257.480   7
  -9   3   3 736.752 140.772   4
   9  -3  -3 780.386 162.175   7
   9  -3  -2 571.606 134.353   6
   9  -3  -2 660.465 168.375   7
  -9   3   2 746.274 355.891  36
   9  -3  -2 623.102 151.728  22
   9  -3  -1 1434.68 176.130   6
   9  -3  -1 1432.73 201.001   7
   9  -3  -1 976.856 483.105  29
  -9   3   1 1588.88 420.095  36
   9  -3   0 554.515 187.203   2
   9  -3   0 183.283 134.411   6
   9  -3   0 396.992 163.649   7
  -9   3   0 562.347 318.010  36
   9  -3   1 6074.04 399.635   2
  -9   3  -1 6216.36 420.699   3
   9  -3   1 6154.39 375.381   6
   9  -3   1 6369.02 384.269   7
  -9   3  -2 13957.3 688.446   3
   9  -3   2 12934.4 642.160   6
   9  -3   2 13532.2 645.490   7
   9  -3   2 12282.8 647.682   2
   9  -3   3 14148.3 661.841   7
  -9   3  -3 15645.9 702.142   3
  -9   3  -3 13650.3 669.851  34
   9  -3   4 3566.58 273.146   6
   9  -3   4 3774.84 263.734   8
  -9   3  -4 4396.41 308.471   3
   9  -3   5 2401.18 207.354   6
   9  -3   5 2597.09 211.465   8
  -9   3  -5 2836.80 236.792   3
   9  -3   6 1257.88 143.274   6
   9  -3   6 1334.42 149.968   8
   9  -3   7 384.387 86.1166   6
   9  -3   7 518.447 98.4944   8
   9  -2 -11 674.985 104.269  22
   9  -2 -10 429.920 92.7160  23
   9  -2  -9 19.4531 92.1713  23
  -9   2   8 2049.74 175.001   4
  -9   2   7 74.6968 118.915   4
  -9   2   6 6554.22 419.257  34
   9  -2  -6 6210.07 397.347   2
   9  -2  -6 7407.48 389.589   7
  -9   2   6 6665.26 373.890   4
  -9   2   5 9540.37 547.851  34
   9  -2  -5 9571.83 497.439   7
  -9   2   5 9179.96 481.824   4
   9  -2  -4 8512.68 450.860   7
  -9   2   4 8553.26 435.682   4
   9  -2  -3-73.4298 367.484  29
  -9   2   3 416.674 409.520  31
  -9   2   3 736.946 327.899  36
  -9   2   3 469.877 154.812   4
   9  -2  -3 315.115 112.279   6
   9  -2  -3 459.616 176.906   7
  -9   2   2 7094.56 735.396  36
   9  -2  -2 6575.51 370.355   6
  -9   2   2 6406.21 381.193   4
   9  -2  -2 6459.64 403.860   7
   9  -2  -1 542.839 388.335  29
  -9   2   1 379.531 362.055  36
   9  -2  -1 555.553 144.530   6
   9  -2  -1 489.447 178.795   7
   9  -2   0 771.598 440.683  29
  -9   2   0 1626.68 528.682  31
  -9   2   0 1630.81 466.223  36
   9  -2   0 1848.36 205.146   6
   9  -2   0 2186.08 237.348   7
  -9   2  -1 6969.21 775.571  36
   9  -2   1 7792.78 433.571   6
   9  -2   1 7829.66 444.945   7
  -9   2  -2 19399.7 845.344  34
   9  -2   2 15663.1 769.872   8
  -9   2  -3 12939.1 640.211  34
   9  -2   3 14306.7 636.628   6
   9  -2   3 12216.9 617.237   8
   9  -2   3 13628.7 637.651   7
   9  -2   3 11268.0 607.548   2
   9  -2   4 2243.95 219.127   6
   9  -2   4 2596.40 222.660   8
   9  -2   4 2900.39 239.749   7
  -9   2  -4 2591.26 257.619   3
  -9   2  -5 250.775 152.068   3
   9  -2   5 56.8079 109.890   6
   9  -2   5 60.9044 115.478   8
   9  -2   6 686.086 121.206   6
   9  -2   6 956.874 141.285   8
   9  -2   7 644.274 91.2843   6
   9  -2   7 821.332 115.483   8
  -9   2  -8 458.233 76.9094   1
  -9   1  10 734.243 109.455   4
  -9   1   9 6.64052 111.695   4
  -9   1   8 115.539 120.420   4
   9  -1  -8 196.751 126.801   7
   9  -1  -7 3375.27 254.012   7
  -9   1   7 3103.60 240.093   4
  -9   1   6 4634.04 357.010  34
   9  -1  -6 5137.10 337.740   7
  -9   1   6 5242.37 327.773   4
  -9   1   5 2853.82 577.192  31
  -9   1   5 3858.12 338.013  34
   9  -1  -5 3919.79 294.958   7
  -9   1   5 3758.06 278.926   4
   9  -1  -4 5858.96 527.798  10
  -9   1   4 5674.98 647.530  28
  -9   1   4 5415.28 778.629  31
  -9   1   4 6969.93 451.703  34
   9  -1  -4 6305.65 392.331   7
  -9   1   4 6675.97 382.645   4
   9  -1  -3 20033.0 1237.70  10
  -9   1   3 24508.4 1683.92  31
  -9   1   3 22356.6 1457.80  36
  -9   1   3 26703.0 1124.27  34
  -9   1   3 21382.7 1411.85  28
   9  -1  -3 22181.4 993.469   6
   9  -1  -3 24262.7 1048.34   7
  -9   1   3 23541.7 1026.00   4
   9  -1  -2 5079.39 543.176  10
  -9   1   2 4913.32 766.290  31
  -9   1   2 6106.84 703.172  36
  -9   1   2 5103.34 615.864  28
  -9   1   2 6012.99 444.337  34
   9  -1  -2 5594.44 342.943   6
  -9   1   2 5493.07 357.408   4
   9  -1  -2 5914.16 384.380   7
   9  -1  -1 2413.03 406.529  10
  -9   1   1 3377.34 553.881  36
   9  -1  -1 2676.51 240.159   6
  -9   1   1 2632.12 244.575   4
  -9   1   0 6654.04 877.693  31
   9  -1   0 5037.89 839.228  29
  -9   1   0 6912.34 800.704  36
  -9   1   0 8977.26 529.626  34
   9  -1   0 8631.42 457.987   6
  -9   1  -1 6089.44 402.813  34
  -9   1  -1 5310.27 380.756   3
   9  -1   1 5269.69 343.382   6
   9  -1   1 5430.60 360.054   7
  -9   1  -2 17264.6 806.460  34
   9  -1   2 14744.8 750.596   8
   9  -1   2 16692.5 778.190   7
  -9   1  -2 17403.9 811.285   3
  -9   1  -3 25444.5 1199.62  34
   9  -1   3 29474.6 1207.84   6
   9  -1   3 27258.3 1199.68   8
   9  -1   3 28117.4 1207.89   7
  -9   1  -3 28100.1 1236.62   3
   9  -1   4 9162.17 484.923   6
   9  -1   4 9310.31 492.746   8
   9  -1   4 9821.79 494.409   7
  -9   1  -4 9326.72 514.128   3
   9  -1   5 2500.54 211.442   6
   9  -1   5 3123.43 232.135   8
   9  -1   6 698.134 119.631   6
   9  -1   6 915.970 141.491   8
   9  -1   7 2058.57 128.365   9
   9  -1   7 2210.10 165.467   8
  -9   0  11 1543.12 127.476   4
  -9   0  10 3425.86 223.385   4
  -9   0   9 27.0556 118.712   4
   9   0  -9 130.679 125.792   7
  -9   0   8 125.640 134.225   4
   9   0  -8-27.1404 142.936   7
   9   0  -7 15322.5 728.464   7
  -9   0   7 14975.2 719.450   4
  -9   0   6 22945.5 1072.40  34
   9   0  -6 23959.8 1063.42   7
  -9   0   6 23577.9 1052.21   4
  -9   0   5 3147.34 582.062  31
  -9   0   5 3338.58 324.887  34
  -9   0   5 3429.55 563.350  28
   9   0  -5 3442.82 297.674   7
  -9   0   5 3514.34 278.619   4
   9   0  -4 12029.4 854.976  10
  -9   0   4 12930.1 1071.48  28
  -9   0   4 12538.0 1157.47  31
  -9   0   4 15904.3 737.822  34
   9   0  -4 11057.6 614.653   6
   9   0  -4 15019.3 691.871   7
  -9   0   4 14849.0 673.539   4
   9   0  -3 11102.9 792.053  10
  -9   0   3 11157.5 954.385  28
  -9   0   3 10579.1 1075.48  31
  -9   0   3 13198.8 660.135  34
   9   0  -3 9318.04 532.642   6
  -9   0   3 11868.0 576.781   4
   9   0  -2 8496.93 689.337  10
  -9   0   2 7942.04 937.719  31
  -9   0   2 9097.65 864.787  36
  -9   0   2 8383.17 813.866  28
  -9   0   2 8823.63 557.201  34
   9   0  -2 8068.09 457.762   6
  -9   0   2 9328.82 490.477   4
   9   0  -1-129.687 298.793  10
  -9   0   1 104.961 420.770  31
  -9   0   1 647.144 311.463  28
  -9   0   1 387.774 369.617  36
  -9   0   1 553.878 176.504   4
   9   0  -1 296.079 156.498   6
   9   0  -1 500.558 196.121   7
  -9   0   0 13195.2 1225.92  31
  -9   0   0 16030.5 784.420  34
  -9   0   0 13884.2 736.610   3
   9   0   0 15091.4 710.827   6
   9   0   0 14482.6 724.225   7
   9   0   1 21420.3 1374.24  10
  -9   0  -1 21383.8 1687.17  31
  -9   0  -1 19442.3 1522.10  36
  -9   0  -1 29526.1 1213.62  34
  -9   0  -1 26061.9 1177.10   3
   9   0   1 27739.9 1164.78   7
  -9   0  -2 21586.9 1023.07  34
   9   0   2 23950.6 1005.69   6
   9   0   2 22647.2 1005.70   7
  -9   0  -2 20626.3 1017.44   3
  -9   0  -3 1653.07 203.314  34
   9   0   3 2043.33 212.458   6
   9   0   3 2208.15 219.751   7
  -9   0  -3 2166.35 235.232   3
   9   0   4 9040.50 476.759   6
   9   0   4 9630.19 483.708   7
  -9   0  -4 9420.73 504.699   3
   9   0   5 1002.84 142.641   6
   9   0   5 1068.43 157.069   8
   9   0   6 1254.41 132.705   6
   9   0   6 1421.19 164.090   8
  -9   0  -7 484.379 108.965   1
   9   0   7 414.047 101.284   8
  -9  -1  11 2796.94 181.655   4
   9   1 -10 1565.88 162.885   7
  -9  -1  10 1772.31 169.473   4
  -9  -1   9 488.633 142.071   4
   9   1  -9 578.997 152.204   7
  -9  -1   8 113.502 141.945   4
   9   1  -8 88.3308 154.381   7
   9   1  -7 18790.1 901.998   7
  -9  -1   7 20199.4 899.004   4
  -9  -1   6 51328.7 2212.82  34
   9   1  -6 52658.2 2207.39   7
  -9  -1   6 54124.9 2199.06   4
  -9  -1   5 20144.1 933.757  34
  -9  -1   5 19114.6 891.557   4
   9   1  -4 3228.79 433.884  10
  -9  -1   4 3243.12 617.814  31
  -9  -1   4 3105.70 546.717  28
  -9  -1   4 3865.39 349.722  34
  -9  -1   4 3679.38 290.924   4
   9   1  -3-147.950 264.729  10
  -9  -1   3 174.350 391.343  31
  -9  -1   3 57.7244 274.973  28
  -9  -1   3 136.943 218.680  34
  -9  -1   3 76.6736 169.660   4
   9   1  -3 141.700 181.304   7
   9   1  -2 2312.66 394.549  10
  -9  -1   2 1273.11 391.294  28
  -9  -1   2 2219.87 242.049   4
   9   1  -2 2342.12 258.980   7
  -9  -1   1 1084.44 477.630  31
  -9  -1   1 997.503 362.809  28
  -9  -1   1 1560.36 221.295   3
  -9  -1   1 1737.36 220.754   4
   9   1  -1 1720.91 229.263   7
  -9  -1   0 800.451 440.693  31
  -9  -1   0 1578.21 260.508  34
  -9  -1   0 1104.42 203.132   3
   9   1   0 1488.60 222.001   7
  -9  -1  -1 26496.3 1150.82  34
   9   1   1 24797.0 1107.20   7
  -9  -1  -1 23771.6 1114.99   3
  -9  -1  -2 603.057 171.213   3
   9   1   2 722.797 159.417   6
   9   1   2 640.707 174.202   7
   9   1   3 7475.96 402.217   6
   9   1   3 7072.22 395.925   7
  -9  -1  -3 6515.14 404.332   3
  -9  -1  -4 5969.63 312.309  11
   9   1   4 7137.18 369.528   6
   9   1   4 6467.47 356.389   7
   9   1   5 6993.34 363.876   6
   9   1   6 284.289 82.1473   6
   9   1   6 401.901 112.455   8
  -9  -1  -7 3089.51 179.311   1
   9   2 -11 2497.86 164.118   7
  -9  -2  11 2352.71 167.705   4
  -9  -2  10 123.734 112.641   4
   9   2 -10 46.2667 117.590   7
   9   2  -9 4247.41 285.962   7
  -9  -2   9 4150.54 278.658   4
  -9  -2   8 960.113 175.396   4
   9   2  -8 730.720 182.483   7
  -9  -2   7 40.9013 158.828   4
  -9  -2   6 15819.5 759.379   4
   9   2  -5 11170.2 597.165   7
  -9  -2   5 11239.9 582.224   4
  -9  -2   4 19260.0 917.730  34
   9   2  -4 18682.8 882.325   7
  -9  -2   4 18775.1 869.679   4
   9   2  -3 3719.06 501.785  10
   9   2  -3 4819.37 344.469   7
  -9  -2   3 3646.26 648.623  31
  -9  -2   3 4904.85 387.368  34
  -9  -2   3 4268.76 608.190  28
  -9  -2   2 20.2201 137.081   3
   9   2  -2 51.4769 177.851   7
  -9  -2   1 70.9328 142.728   3
   9   2  -1 271.666 177.470   7
  -9  -2   1 233.053 351.070  31
  -9  -2   1 263.893 101.679  27
   9   2   0 8764.77 470.560   7
  -9  -2   0 7720.03 447.399   3
   9   2   1 20978.7 901.094   7
  -9  -2  -1 18458.7 889.016   3
  -9  -2  -2 17966.6 868.274   3
   9   2   2 20654.5 875.460   7
   9   2   3 820.914 153.820   6
   9   2   3 726.430 146.754   7
  -9  -2  -3 777.638 128.879  11
   9   2   4 4599.58 275.193   6
  -9  -2  -4 4355.37 246.678  11
   9   2   5 191.499 89.9519   6
  -9  -2  -5 149.200 69.3210  11
   9   2   6-5.83838 89.0135   8
  -9  -2  -7 963.943 97.4163  12
   9   3 -11 523.280 96.7228   7
   9   3 -10 155.694 118.770   7
   9   3  -7 1639.44 222.081   7
   9   3  -6 2978.02 275.083   7
   9   3  -5 20962.6 970.871   7
  -9  -3   5 21121.0 960.936   4
   9   3  -4 9039.41 511.060   7
  -9  -3   4 9456.71 506.154   4
  -9  -3   3 126.706 158.220   4
   9   3  -3 232.973 169.617   7
  -9  -3   2 25.8508 150.767   4
   9   3  -2 102.220 164.066   7
   9   3  -1 407.849 172.778   7
  -9  -3   1 601.621 124.079  27
  -9  -3   0 2385.46 177.351  27
   9   3   0 2127.02 224.263   7
  -9  -3  -1 43150.4 1657.71  27
   9   3   1 37024.5 1679.73   7
   9   3   2 8038.39 415.333   7
   9   3   3 2544.67 218.499   6
  -9  -3  -3 3140.46 207.512  11
   9   3   4 1498.88 158.269   6
  -9  -3  -4 1986.22 145.885  11
   9   3   5 599.185 91.0250   6
  -9  -3  -5 949.151 90.8434  11
  -9  -3  -6 1423.31 130.788  12
  -9  -4  10 505.514 103.188   4
  -9  -4  10 108.951 101.916  25
  -9  -4   9 167.597 114.479   4
   9   4  -9 119.751 132.606   7
  -9  -4   9 88.3208 115.638  25
   9   4  -8 11155.0 485.333   7
  -9  -4   8 10500.1 461.174   4
   9   4  -7 3774.78 286.013   7
  -9  -4   7 3673.57 265.530   4
   9   4  -6 9072.55 497.353   7
  -9  -4   6 9457.78 486.652   4
  -9  -4   5 3809.01 277.596   4
   9   4  -5 3558.94 287.273   7
  -9  -4   4 4054.82 287.730   4
   9   4  -4 3788.88 296.686   7
  -9  -4   3 900.001 171.303   4
   9   4  -3 975.346 186.038   7
   9   4  -2 60.9850 149.473   7
  -9  -4   2 59.9901 110.365  27
   9   4  -1 2569.85 235.449   7
  -9  -4   1 3609.37 228.765  27
  -9  -4   0 4250.61 231.259  27
   9   4   0 2647.07 233.648   7
  -9  -4  -1 5852.43 303.260  27
   9   4   3 11244.9 557.748   6
  -9  -4  -3 13061.2 556.019  11
   9   4   4 2311.60 183.871   6
  -9  -4  -4 3758.87 189.848  11
  -9  -4  -5 250.649 61.3004  11
   9   5 -10 62.6288 83.3061   7
  -9  -5   9 232.569 91.9101   4
   9   5  -9 224.357 115.066   7
  -9  -5   8 548.429 118.152   4
   9   5  -8 463.132 138.714   7
  -9  -5   7 8498.34 434.215   4
   9   5  -7 9128.42 458.089   7
  -9  -5   6 10745.4 520.185   4
   9   5  -6 10680.8 534.910   7
  -9  -5   5 14029.7 645.399   4
   9   5  -5 13561.3 653.623   7
  -9  -5   4 5797.47 334.763   4
   9   5  -4 5814.29 346.808   7
   9   5  -3 138.570 134.184   7
  -9  -5   3 158.875 120.173  27
   9   5  -2 1104.10 155.159   7
  -9  -5   2 1393.59 157.088  27
  -9  -5   1 9318.06 453.340  27
  -9  -5   0 7335.40 363.635  27
  -9  -5  -1 11957.9 534.054  27
  -9  -5  -2 20837.3 887.900  11
   9   5   3 4751.15 285.966   6
  -9  -5  -3 4706.91 304.353  12
  -9  -5  -4 433.111 92.7051  12
  -9  -5  -4 1047.50 89.6445  11
   9   6  -9 144.232 76.6213   7
   9   6  -8 1992.37 157.690   7
   9   6  -7 16918.3 737.638   7
   9   6  -6 9826.01 468.407   7
   9   6  -5 8597.32 420.290   7
   9   6  -4 4727.70 265.166   7
  -9  -6   4 4603.18 284.732  27
  -9  -6   3 432.465 116.753  27
  -9  -6   2 3516.62 223.343  27
  -9  -6   1 6061.35 311.302  27
  -9  -6   0 20556.8 864.059  27
   9   6   2 2083.16 180.267   6
  -9  -6  -2 4219.02 191.504  11
  -9  -6  -3 3361.82 176.741  11
  -9  -7   8 5957.91 275.834  27
  -9  -7   7 4949.02 252.007  27
  -9  -7   6 2475.67 168.082  27
  -9  -7   5 708.591 103.351  27
  -9  -7   4 476.235 106.449  32
  -9  -7   4 1020.57 109.547  27
  -9  -7   3 207.816 80.0420  27
  -9  -7   2 229.602 91.7077  32
  -9  -7   2 403.787 81.9581  27
  -9  -7   1 443.352 89.7640  11
  -9  -7   1 487.769 80.4655  27
  -9  -7   0 4926.59 244.523  11
  -9  -7  -1 8027.56 353.379  11
  -9  -8   3 811.001 73.7122  27
  -9  -8   2 41.8909 40.3150  27
  10  -7  -4-3.58500 55.4147  22
  10  -7  -3 187.407 62.8018  22
  10  -7   0 13674.0 617.409  20
  10  -7   1 2210.15 181.468  20
  10  -7   2 1412.17 150.704  20
  10  -6  -6 4160.53 243.375  22
  10  -6  -5 142.544 86.8565  22
  10  -6  -4 589.957 112.770  22
  10  -6  -3 1016.86 126.204  22
 -10   6   2 1336.72 151.565   3
  10  -6  -2 782.735 105.859  22
 -10   6   1 6174.90 337.001   3
 -10   6   0 10406.3 482.510   3
  10  -6   0 9427.74 516.400  20
  10  -6   1 3729.06 227.234   6
 -10   6  -1 4036.95 235.930   3
  10  -6   1 3479.29 274.388  20
  10  -6   2 404.854 103.280   6
 -10   6  -2 721.524 105.250   3
  10  -6   2 418.506 127.866  20
  10  -6   3 274.173 92.0153   6
  10  -6   4 130.676 70.7749  20
  10  -5  -8 2934.70 189.497  22
  10  -5  -7 1827.65 164.576  22
  10  -5  -6 3637.06 247.718  22
  10  -5  -5 637.249 129.632  22
  10  -5  -4 379.539 146.249   2
  10  -5  -4 351.470 116.696  22
  10  -5  -3 1685.44 198.462   2
  10  -5  -3 1093.82 149.062  22
  10  -5  -2 4029.99 253.304  22
 -10   5   1 13057.3 624.283   3
  10  -5  -1 12429.1 635.814   2
 -10   5   0 5846.46 338.140   3
  10  -5   0 5073.86 299.115   6
  10  -5   0 5408.03 348.431   2
  10  -5   1 400.196 144.099   2
 -10   5  -1 569.141 141.326   3
  10  -5   1 366.645 113.668   6
 -10   5  -2 268.043 122.983  34
 -10   5  -2 419.012 127.851   3
  10  -5   2 254.708 107.046   6
 -10   5  -3 549.286 115.913   3
  10  -5   3 630.890 117.523   6
  10  -5   5 80.7510 66.2627   6
  10  -5   5-7.32850 66.3401  20
  10  -4  -8 1974.57 171.656  22
  10  -4  -7 2541.75 211.884  22
  10  -4  -6 3253.36 253.220  22
  10  -4  -5 295.259 144.894   2
 -10   4   5 548.375 156.054  34
  10  -4  -5 438.566 139.880  22
  10  -4  -4 1689.15 205.760   2
  10  -4  -4 1307.90 175.489  22
  10  -4  -3 192.515 157.713   2
  10  -4  -3 183.172 107.649  22
  10  -4  -1 1854.63 167.623   6
  10  -4  -1 1889.98 178.381   7
  10  -4  -1 2182.97 234.816   2
 -10   4   0 2119.01 224.483   3
  10  -4   0 1851.39 177.131   6
  10  -4   0 1975.14 180.632   7
  10  -4   0 1909.52 220.015   2
  10  -4   1 3090.35 223.201   6
  10  -4   1 2741.19 251.162   2
  10  -4   1 3261.48 227.510   7
 -10   4  -1 3199.59 260.136   3
  10  -4   2 3181.41 231.622   6
  10  -4   2 2956.83 236.584   2
 -10   4  -2 3677.05 261.388   3
 -10   4  -2 3475.81 252.734  34
 -10   4  -3 1272.97 166.441   3
 -10   4  -4 116.820 109.361   3
  10  -4   4 211.730 100.269   6
  10  -4   5 46.3066 78.2910   6
  10  -3  -9 1698.51 160.872  22
  10  -3  -8 4635.91 297.236  22
  10  -3  -7 3829.82 281.670  22
  10  -3  -6 258.879 126.815   2
 -10   3   6 222.550 136.099  34
  10  -3  -6 164.383 131.765  22
  10  -3  -5 60.7722 136.460   2
 -10   3   5-64.2729 150.985  34
  10  -3  -5 87.4163 126.412  22
  10  -3  -4 1196.87 191.921   2
  10  -3  -4 963.643 141.422   7
 -10   3   4 1119.27 210.201  34
  10  -3  -4 844.120 161.903  22
  10  -3  -3 1671.59 178.019   7
  10  -3  -3 1229.42 174.076  22
  10  -3  -2 7943.68 425.752   7
  10  -3  -1 14401.8 672.345   6
  10  -3  -1 15272.8 694.911   7
  10  -3  -1 14692.6 725.458   2
 -10   3   0 4677.48 339.566   3
  10  -3   0 4077.22 282.862   6
  10  -3   0 4769.41 299.480   7
  10  -3   0 4361.10 324.270   2
 -10   3   0 5023.31 357.003  34
 -10   3  -1 8209.83 467.396   3
  10  -3   1 7848.18 428.687   6
  10  -3   1 8561.96 435.599   7
  10  -3   1 7673.52 448.655   2
 -10   3  -1 8582.50 480.572  34
  10  -3   2 610.830 142.776   2
 -10   3  -2 756.607 179.241   3
  10  -3   2 928.377 146.719   6
  10  -3   2 960.402 156.431   7
 -10   3  -2 848.299 166.816  34
  10  -3   3 606.642 115.958   2
 -10   3  -3 555.238 153.105   3
  10  -3   4 1384.97 154.276   6
 -10   3  -4 1925.16 177.352   3
  10  -3   5 5666.86 301.716   6
  10  -3   6 7869.70 357.049   6
  10  -2  -9 2113.41 191.380  22
 -10   2   7 7334.69 357.934   4
 -10   2   6 685.114 124.669   4
  10  -2  -6 700.393 150.417   2
 -10   2   6 636.741 166.483  34
 -10   2   5 832.235 134.412   4
  10  -2  -5 741.834 171.335   2
  10  -2  -5 1153.26 159.197   7
 -10   2   5 670.948 195.981  34
 -10   2   4 4712.45 288.988   4
  10  -2  -4 4611.74 306.880   7
 -10   2   4 5188.68 374.681  34
  10  -2  -3 8883.43 437.378   7
 -10   2   3 10167.0 525.058  34
  10  -2  -2 11373.0 556.648   6
  10  -2  -2 11902.2 591.915   7
 -10   2   2 13072.3 665.167  34
  10  -2  -1 23681.3 1038.01   6
  10  -2  -1 24339.3 1063.92   7
  10  -2   0 9831.54 504.472   6
  10  -2   0 10590.4 524.106   7
 -10   2   0 9486.35 563.581  34
  10  -2   1 3714.12 284.244   2
  10  -2   1 4000.10 269.839   6
 -10   2  -1 3927.98 318.234  34
  10  -2   2 998.812 156.392   2
 -10   2  -2 1096.92 178.961  34
  10  -2   3 1139.75 169.675   7
  10  -2   4 7204.23 378.555   6
  10  -2   5 3467.57 218.864   6
  10  -2   6 3336.91 184.569   6
  10  -1 -10 3120.98 225.580  22
 -10   1   9 1790.81 134.325   4
 -10   1   8 2532.04 181.359   4
  10  -1  -7 5879.32 326.479   7
 -10   1   7 5833.73 322.571   4
 -10   1   6 2102.15 226.469  34
  10  -1  -6 2538.01 213.919   7
 -10   1   6 2420.15 203.795   4
 -10   1   5 3877.91 322.714  34
  10  -1  -5 4396.19 291.721   7
 -10   1   5 3903.64 272.611   4
 -10   1   4 9679.35 543.145  34
  10  -1  -4 8968.86 489.170   7
 -10   1   4 9120.58 476.036   4
  10  -1  -3 3469.64 245.793   6
 -10   1   3 4133.45 283.752   4
  10  -1  -3 4254.68 303.851   7
 -10   1   2 9478.62 568.135  34
  10  -1  -2 9701.74 483.048   6
  10  -1  -2 9509.90 515.202   7
 -10   1   1 12190.3 652.554   3
  10  -1  -1 13177.4 612.028   6
 -10   1   0 15146.8 754.488  34
 -10   1   0 14112.0 720.186   3
  10  -1   0 14671.9 687.081   6
 -10   1  -1 543.762 186.042  34
 -10   1  -1 366.511 175.905   3
  10  -1   1 259.006 135.092   6
  10  -1   1 421.303 169.593   7
 -10   1  -2 503.051 162.924  34
 -10   1  -2 842.477 175.165   3
  10  -1   2 743.669 144.835   2
  10  -1   2 1072.34 172.538   7
  10  -1   3 1748.60 179.986   6
  10  -1   3 1965.23 192.254   7
 -10   1  -3 2040.06 205.679   3
  10  -1   4 2264.23 187.788   6
 -10   1  -4 2466.68 205.237   3
  10  -1   5 5823.61 305.371   6
 -10   0  10 3300.71 180.295   4
 -10   0   9 12175.3 545.081   4
 -10   0   8 1012.44 139.105   4
  10   0  -8 935.964 145.231   7
  10   0  -7 19448.0 873.840   7
 -10   0   7 19847.9 870.344   4
 -10   0   6-15.3941 152.369  34
 -10   0   6-4.22140 129.878   4
  10   0  -6 150.060 149.305   7
 -10   0   5 882.525 198.663  34
 -10   0   5 646.401 158.519   4
  10   0  -5 838.374 174.554   7
 -10   0   4 6501.12 430.064  34
  10   0  -4 6475.87 389.330   7
 -10   0   4 5867.24 368.231   4
 -10   0   3 14666.2 715.380  34
  10   0  -3 12483.7 609.339   6
 -10   0   3 13089.7 640.715   4
  10   0  -2 6421.90 363.892   6
 -10   0   1 7475.38 452.070   3
  10   0  -1 8265.25 430.006   6
  10   0  -1 7739.85 450.222   7
 -10   0   0 57.9661 183.528  34
 -10   0   0 97.9163 149.638   3
  10   0   0 148.777 132.032   6
  10   0   0 247.183 165.914   7
 -10   0  -1 9158.63 514.508  34
  10   0   1 9368.82 488.728   7
 -10   0  -1 9202.49 494.958   3
 -10   0  -2 80.9258 133.360   3
  10   0   2 209.742 140.035   7
  10   0   3 5391.14 310.642   6
  10   0   3 5194.35 305.997   7
 -10   0  -3 4833.76 310.619   3
  10   0   4 2207.14 178.749   6
  10   0   4 2062.88 170.115   8
  10   0   5 3594.82 230.282   6
  10   0   5 4466.91 235.542   8
 -10  -1  10 7342.03 341.813   4
  10   1  -9 4047.37 240.462   7
 -10  -1   9 4029.80 240.367   4
  10   1  -8 11529.2 544.558   7
 -10  -1   8 11145.8 537.518   4
  10   1  -7 7647.95 417.842   7
 -10  -1   7 7556.56 407.170   4
 -10  -1   6 1242.58 176.734   4
  10   1  -6 1301.94 195.310   7
 -10  -1   5 1157.34 182.104   4
 -10  -1   4 3695.57 321.435  34
 -10  -1   4 3521.26 275.307   4
 -10  -1   3 3867.45 341.244  34
 -10  -1   3 3723.55 276.539   3
  10   1  -3 3297.86 245.244   6
 -10  -1   3 3796.62 284.355   4
  10   1  -3 4116.29 309.727   7
 -10  -1   2 8879.00 488.609   3
  10   1  -2 8940.20 473.110   6
  10   1  -2 10071.2 514.447   7
 -10  -1   1 6063.74 415.464  34
  10   1  -1 6059.34 352.491   6
  10   1  -1 6079.00 373.818   7
 -10  -1   1 5448.77 354.565   3
 -10  -1   0 17233.2 828.647  34
  10   1   0 19167.3 790.206   6
  10   1   0 17027.5 788.744   7
 -10  -1  -1 1013.92 164.260   3
  10   1   1 1237.63 180.312   7
  10   1   2 1393.53 166.632   6
  10   1   2 1351.18 171.046   7
 -10  -1  -2 1249.93 163.965   3
  10   1   3 442.788 114.990   6
  10   1   3 311.378 102.195   8
  10   1   3 351.680 119.428   7
  10   1   4 1461.87 142.623   6
  10   1   4 1536.06 144.914   8
  10   1   5 1294.97 117.927   6
  10   1   5 1644.21 130.402   8
  10   2 -10 1281.81 114.361   7
 -10  -2  10 1404.07 118.612   4
  10   2  -9 6832.20 347.289   7
 -10  -2   9 6614.20 341.218   4
  10   2  -8 1511.59 177.247   7
 -10  -2   8 1740.97 167.756   4
 -10  -2   7 4584.76 292.389   4
 -10  -2   6 229.188 137.555   4
 -10  -2   5 90.9383 141.038   4
  10   2  -5 132.368 165.515   7
 -10  -2   4 88.9063 148.698   4
  10   2  -4 93.4305 94.1887   6
  10   2  -4 15.0267 162.634   7
 -10  -2   3 4067.59 300.073   4
  10   2  -3 4124.01 306.194   7
  10   2  -2 15035.6 720.201   7
  10   2  -1 25057.9 1098.17   7
  10   2   0 6758.65 382.788   7
  10   2   1 2259.05 202.452   7
  10   2   2 4647.20 284.091   7
 -10  -2  -2 4857.79 265.415  11
  10   2   3 4597.61 264.817   7
 -10  -2  -3 4876.34 245.996  11
  10   2   4 2114.09 164.574   6
  10   2   4 2443.59 169.394   8
  10   2   5 3946.79 209.756   8
  10   3 -10 4112.24 213.887   7
  10   3  -7 2794.63 227.445   7
  10   3  -6 732.117 165.544   7
  10   3  -5 968.655 176.440   7
 -10  -3   4 9873.94 513.327   4
  10   3  -4 10518.6 526.743   7
 -10  -3   3 5378.52 311.099   4
  10   3  -3 5634.70 321.567   7
  10   3  -2 7611.96 381.313   7
 -10  -3   2 5570.67 308.052  27
 -10  -3   1 2603.34 168.399  27
  10   3  -1 2790.54 224.364   7
  10   3   0 6200.75 343.285   7
  10   3   1 3711.09 236.778   6
  10   3   1 2834.39 209.141   7
  10   3   2 7298.12 341.533   6
 -10  -3  -2 7034.64 316.320  11
  10   3   3 3052.71 201.512   6
 -10  -3  -3 3306.06 177.104  11
  10   3   4 6347.24 312.950   6
  10   3   4 7425.78 329.859   8
 -10  -4   9 3929.14 213.665   4
  10   4  -9 4209.51 226.289   7
 -10  -4   8 4858.46 271.904   4
  10   4  -8 5473.24 289.750   7
 -10  -4   7 47.8916 101.384   4
  10   4  -7 244.787 125.405   7
 -10  -4   6 611.871 129.190   4
  10   4  -6 484.266 142.257   7
 -10  -4   5 4531.57 277.753   4
  10   4  -5 4449.38 288.525   7
  10   4  -4 11525.7 494.263   7
 -10  -4   4 8224.76 444.857  27
  10   4  -3 10874.1 493.996   7
 -10  -4   3 9057.53 452.816  27
  10   4  -2 1661.61 170.453   7
 -10  -4   2 1332.94 131.453  27
 -10  -4   1 9083.04 384.138  27
  10   4  -1 7103.77 397.698   7
 -10  -4   0 1604.45 111.726  27
  10   4   0 1060.97 128.780   7
  10   4   1 1190.64 139.951   6
 -10  -4  -1 1371.31 130.605  11
  10   4   2 2454.09 182.347   6
 -10  -4  -2 3024.22 169.886  11
  10   4   3 288.989 75.1528   6
 -10  -4  -3 288.749 80.6112  12
  10   5  -8 545.004 94.2207   7
  10   5  -7-19.4991 93.4736   7
  10   5  -6 702.697 122.420   7
 -10  -5   6 427.721 91.4251  27
  10   5  -5 255.140 110.204   7
 -10  -5   5 211.369 87.1703  27
  10   5  -4 8315.35 380.061   7
 -10  -5   4 7009.73 366.112  27
  10   5  -3 7168.63 350.478   7
 -10  -5   3 7114.35 345.033  27
 -10  -5   2 10277.8 460.744  27
 -10  -5   1 9933.66 438.429  27
 -10  -5   0 1822.61 145.254  11
  10   5   1 1231.62 129.141   6
 -10  -5  -1 1668.36 121.152  11
  10   5   2 165.069 62.7204   6
 -10  -5  -2 340.653 64.1702  11
 -10  -6   6 39.1779 55.6503  27
 -10  -6   5 2623.25 157.538  27
 -10  -6   4 8276.05 373.913  27
 -10  -6   3 5708.90 272.128  27
 -10  -6   2 1353.58 101.691  27
 -10  -6   1 2854.02 151.680  27
  10   6   0 1134.00 111.017   6
 -11   5   5 3868.91 214.816   3
 -11   5   4 1674.87 144.196   3
 -11   5   3 3428.25 214.837   3
 -11   5   2 2362.24 177.924   3
 -11   5   1 619.416 112.128   3
 -11   5   0 424.969 97.9036   3
  11  -5   0 195.624 87.5804  20
 -11   5  -1 2154.32 146.793   3
  11  -5   1 1461.32 154.774  20
 -11   5  -2 2523.03 144.765   3
  11  -5   2 1732.11 167.014  20
  11  -4  -6 1249.91 123.160  22
  11  -4  -5 2968.77 192.527  22
  11  -4  -4 7059.51 375.152   2
 -11   4   3 980.137 149.169   3
 -11   4   3 749.484 145.870  34
 -11   4   2 2660.03 211.466   3
  11  -4  -2 2623.02 218.728   2
 -11   4   2 2304.50 219.916  34
 -11   4   1 1667.46 173.817   3
  11  -4  -1 1659.62 181.548   2
  11  -4   0 2419.62 212.306   2
 -11   4   0 3146.32 216.264   3
 -11   4   0 2992.69 224.009  34
  11  -4   1 1509.94 131.918   6
  11  -4   1 1496.64 154.108   2
 -11   4  -1 1807.00 158.186   3
  11  -4   2 4238.12 238.429   6
 -11   4  -2 4711.47 250.631   3
  11  -4   3 3535.40 196.395   6
  11  -3  -7 1581.99 142.499  22
  11  -3  -6 3668.93 234.347  22
  11  -3  -5 4063.63 239.172   2
  11  -3  -5 2505.81 202.951  22
  11  -3  -4 260.455 124.802   2
 -11   3   4 133.270 137.064  34
 -11   3   3 1726.17 206.525  34
  11  -3  -2 962.720 131.614   7
  11  -3  -2 1175.28 172.219   2
 -11   3   2 809.531 179.010  34
  11  -3  -1 623.524 141.698   2
  11  -3  -1 611.295 119.390   7
  11  -3   0 2197.39 167.063   6
  11  -3   0 2413.33 180.241   7
  11  -3   0 2113.31 203.278   2
 -11   3   0 2500.72 218.769  34
  11  -3   1 2487.53 173.804   6
  11  -3   1 2075.31 187.972   2
  11  -3   1 2682.05 184.454   7
 -11   3  -1 2559.01 200.989   3
  11  -3   2 2881.37 188.366   6
  11  -3   2 2456.96 177.089   2
 -11   3  -3 4139.49 231.949   3
  11  -3   4 688.854 80.7020   6
  11  -2  -8 286.327 80.0541  22
  11  -2  -7 1966.76 172.951  22
  11  -2  -6 1809.67 169.769  22
  11  -2  -5 252.559 116.438   2
 -11   2   5 281.900 135.079  34
  11  -2  -5 69.9552 89.5607  22
  11  -2  -4 5232.70 293.475   7
  11  -2  -4 5058.73 328.036   2
 -11   2   4 6066.45 355.071  34
  11  -2  -3 9090.28 465.169   7
 -11   2   3 10570.9 527.992  34
 -11   2   2 6713.32 370.756   3
  11  -2  -2 5963.38 339.698   7
  11  -2  -2 5922.50 370.795   2
 -11   2   1 311.634 145.804   3
  11  -2  -1 106.226 130.492   2
  11  -2  -1 67.9282 91.3102   6
  11  -2  -1 112.936 122.902   7
  11  -2   0 4324.99 258.429   6
  11  -2   0 4745.67 277.654   7
  11  -2   0 4102.07 288.110   2
 -11   2   0 4804.41 295.474   3
 -11   2   0 4758.58 310.230  34
  11  -2   1 9232.87 445.269   6
  11  -2   1 8184.24 451.277   2
 -11   2  -1 9321.04 464.535  34
  11  -2   2 14171.0 586.523   6
 -11   2  -2 14915.0 604.540   3
  11  -2   4 3510.82 197.781   6
  11  -1  -8 138.658 79.1808  22
  11  -1  -7 2565.09 196.727  22
  11  -1  -6 14492.2 552.416   7
  11  -1  -6 13165.9 563.686   2
  11  -1  -5 14992.7 630.282   2
  11  -1  -5 16155.7 616.536   7
 -11   1   5 15698.4 652.673  34
 -11   1   4 11588.7 595.472  34
  11  -1  -4 11595.3 549.919   7
 -11   1   3 498.953 175.897  34
 -11   1   3 453.189 143.617   3
  11  -1  -3 469.843 138.072   7
 -11   1   2 583.304 146.097   3
  11  -1  -2 515.313 143.472   7
 -11   1   1 1450.63 203.201  34
  11  -1  -1 1143.78 136.451   6
 -11   1   1 1355.51 173.473   3
 -11   1   0 832.798 169.249  34
  11  -1   0 936.817 127.776   6
 -11   1   0 883.483 153.147   3
  11  -1   0 760.727 147.022   2
  11  -1   1 20438.6 843.750   6
  11  -1   1 20875.9 850.868   7
 -11   1  -1 19609.4 857.117   3
  11  -1   2 1410.15 143.561   7
  11  -1   2 909.610 114.020   2
 -11   1  -2 1274.92 143.814   3
  11  -1   3 2776.31 179.625   6
  11  -1   4 579.178 83.5773   6
 -11   0   8 1163.60 104.863   4
  11   0  -7 3367.41 206.333   7
 -11   0   7 3312.29 201.213   4
 -11   0   6 24371.8 953.135   4
  11   0  -6 23537.9 958.716   7
 -11   0   5 8621.93 419.657   4
  11   0  -5 8334.88 430.581   7
 -11   0   4 4887.51 331.821  34
 -11   0   4 4511.15 285.581   3
  11   0  -4 4987.22 300.414   7
 -11   0   3 942.742 189.088  34
 -11   0   3 1058.12 150.585   3
 -11   0   2 138.530 122.485   3
  11   0  -2 222.467 95.8060   6
 -11   0   1 648.511 168.706  34
 -11   0   1 596.438 132.511   3
  11   0  -1 415.595 110.354   6
  11   0  -1 509.119 144.515   7
  11   0   0 4389.54 262.054   6
  11   0   0 4478.25 275.532   7
 -11   0   0 4120.86 266.544   3
  11   0   1 1141.47 144.516   2
  11   0   1 1689.43 150.293   6
  11   0   1 1521.80 156.464   7
 -11   0  -1 1520.05 150.859   3
  11   0   2 4196.77 242.037   7
  11   0   3 568.904 93.4106   6
  11   0   4 4181.39 213.680   6
 -11  -1   8 320.163 84.0701   4
  11   1  -8 277.317 86.0177   7
 -11  -1   7 1420.70 136.183   4
  11   1  -7 1295.09 143.141   7
 -11  -1   6 3216.10 210.987   4
  11   1  -6 3080.90 220.483   7
 -11  -1   5 8215.01 412.037   4
  11   1  -3 2000.60 199.546   7
  11   1  -2 935.675 125.884   6
  11   1  -2 1320.66 169.351   7
  11   1  -1 1195.59 138.924   6
  11   1  -1 1386.75 164.324   7
  11   1   0 1582.55 145.830   6
  11   1   0 1477.44 159.937   7
  11   1   1 21389.4 909.485   7
  11   1   2 4530.69 246.261   6
  11   1   2 4214.50 236.967   7
  11   1   3 979.832 103.206   6
 -11  -2   8 1292.79 114.973   4
  11   2  -8 1408.62 122.253   7
 -11  -2   7 802.905 110.659   4
 -11  -2   6 9364.28 445.079   4
 -11  -2   5 6392.41 331.900   4
  11   2  -5 6009.86 339.722   7
  11   2  -4 1426.40 167.992   7
  11   2  -3 744.295 141.336   7
  11   2  -2 117.586 89.0017   6
  11   2  -2 184.212 123.052   7
  11   2  -1 457.187 102.210   6
  11   2  -1 437.929 123.051   7
  11   2   0 4437.64 240.675   6
  11   2   0 3680.57 235.557   7
  11   2   1 5650.32 262.957   7
 -11  -2  -1 4562.65 236.134  11
  11   2   2 1949.13 144.344   6
  11   2   3 888.699 87.7543   6
  11   3  -7 5620.24 287.135   7
  11   3  -6 3275.84 211.457   7
  11   3  -5 3333.29 219.032   7
  11   3  -4 1363.14 148.793   7
  11   3  -3 137.005 77.2576   6
  11   3  -3 206.877 111.355   7
  11   3  -2 126.029 80.6635   6
  11   3  -2 277.566 107.025   7
  11   3  -1 1782.56 141.401   6
  11   3  -1 1538.13 141.109   7
  11   3   0 273.124 80.1792   7
  11   3   1 2542.47 160.054   6
 -11  -3  -1 2317.09 134.252  11
  11   3   2 5823.36 284.599   6
  11   4  -7 6164.42 286.880   7
  11   4  -6 2710.71 168.830   7
  11   4  -5 5658.99 282.379   7
  11   4  -4 4320.10 234.655   7
  11   4  -3 575.625 88.3033   6
  11   4  -3 1007.51 104.740   7
  11   4  -2 495.050 86.9626   6
  11   4  -2 620.532 83.5542   7
  11   4  -1 630.780 87.7554   6
 -11  -4   0 8481.05 371.083  11
  11   4   1 11104.8 476.177   6
 -11  -5   2 733.447 79.3878  11
 -12   3   4 3017.50 171.739   3
 -12   3   3 1065.00 105.955   3
  12  -3  -2 1470.35 140.677   2
  12  -3  -1 1892.88 152.492   2
  12  -2  -4 267.335 82.8798   2
 -12   2   4 165.758 75.0177   3
  12  -2  -3 2312.82 141.717   7
 -12   2   3 2517.85 162.495   3
  12  -2  -2 5879.40 271.865   7
 -12   2   2 5909.65 285.407   3
  12  -2  -1 7424.87 315.129   7
 -12   2   1 7010.13 321.965   3
  12  -2   0 78.9770 63.8559   2
 -12   2   0 72.4304 67.8230   3
  12  -1  -5 423.302 83.2211   2
  12  -1  -4 835.901 97.5975   7
  12  -1  -4 825.195 114.443   2
  12  -1  -3 1477.38 122.480   7
 -12   1   3 1337.58 115.180   3
  12  -1  -2 3337.52 242.010   2
 -12   1   2 3854.50 215.136   3
 -12   1   1 2247.45 151.796   3
  12  -1  -1 2092.84 171.404   2
  12  -1   0 2660.39 168.988   2
  12   0  -5 244.873 78.3946   2
  12   0  -5 321.449 78.1916   7
  12   0  -4 1729.81 132.173   7
  12   0  -4 1308.45 141.263   2
  12   0  -2 1555.44 146.968   2
  12   0  -1 7620.65 307.941   7
  12   0  -1 4601.41 303.230   2
  12   0   0 6463.00 304.423   7
  12   1  -5-10.2761 64.9316   2
  12   1  -3 2390.33 159.418   7
  12   1  -2 2828.30 208.641   2
  12   1  -2 4075.20 205.025   7
  12   1  -1 1816.06 122.846   7
  12   1  -1 982.185 115.122   2
  12   1   0 1452.82 103.725   7
  12   2  -5 341.826 68.3086   7
  12   2  -4 2123.79 136.858   7
  12   2  -3 3544.19 191.505   7
  12   2  -2 1255.94 100.623   7
   0   0   0    0.00    0.00   0

TITL JMWRX3a in P-1
REM P-1 (#2 in standard setting)
CELL 1.54184   9.825718   9.838086  11.609276  97.8298 100.2198  92.7287
ZERR    2.00   0.000596   0.000312   0.000654   0.0035   0.0049   0.0036
LATT  1
SFAC C H N O Se
UNIT 50.00 50.00 6.00 6.00 2.00
TREF
HKLF 4
END
;
_shelx_hkl_checksum                50962
_olex2_submission_special_instructions  'No special instructions were received'
_oxdiff_exptl_absorpt_empirical_details
;
Empirical correction (ABSPACK) includes:
- Absorption correction using spherical harmonics
- Frame scaling
;
_oxdiff_exptl_absorpt_empirical_full_max  1.772
_oxdiff_exptl_absorpt_empirical_full_min  0.596
