data_tf-14
_audit_creation_date               2021-03-18
_audit_creation_method
;
Olex2 1.3
(compiled 2020.11.12 svn.r5f609507 for OlexSys, GUI svn.r6272)
;
_shelx_SHELXL_version_number       '2018/3'
_audit_contact_author_address      ?
_audit_contact_author_email        ?
_audit_contact_author_name         ''
_audit_contact_author_phone        ?
_publ_contact_author_id_orcid      ?
_publ_section_references
;
Dolomanov, O.V., Bourhis, L.J., Gildea, R.J, Howard, J.A.K. & Puschmann, H.
 (2009), J. Appl. Cryst. 42, 339-341.

Sheldrick, G.M. (2015). Acta Cryst. C71, 3-8.
;
_chemical_name_common              ?
_chemical_name_systematic          ?
_chemical_formula_moiety           'C16 H13 N O3 Se'
_chemical_formula_sum              'C16 H13 N O3 Se'
_chemical_formula_weight           346.23
_chemical_melting_point            ?
_chemical_oxdiff_formula           C16H13NO3Se
_chemical_oxdiff_usercomment       4co2et-ebs
loop_
  _atom_type_symbol
  _atom_type_description
  _atom_type_scat_dispersion_real
  _atom_type_scat_dispersion_imag
  _atom_type_scat_source
 'C' 'C' 0.0181 0.0091 'International Tables Vol C Tables 4.2.6.8 and 6.1.1.4'
 'H' 'H' 0.0000 0.0000 'International Tables Vol C Tables 4.2.6.8 and 6.1.1.4'
 'N' 'N' 0.0311 0.0180 'International Tables Vol C Tables 4.2.6.8 and 6.1.1.4'
 'O' 'O' 0.0492 0.0322 'International Tables Vol C Tables 4.2.6.8 and 6.1.1.4'
 'Se' 'Se' -0.7943 1.1372
 'International Tables Vol C Tables 4.2.6.8 and 6.1.1.4'

_shelx_space_group_comment
;
The symmetry employed for this shelxl refinement is uniquely defined
by the following loop, which should always be used as a source of
symmetry information in preference to the above space-group names.
They are only intended as comments.
;
_space_group_crystal_system        'monoclinic'
_space_group_IT_number             14
_space_group_name_H-M_alt          'P 1 21/c 1'
_space_group_name_Hall             '-P 2ybc'
loop_
  _space_group_symop_operation_xyz
 'x, y, z'
 '-x, y+1/2, -z+1/2'
 '-x, -y, -z'
 'x, -y-1/2, z-1/2'

_cell_length_a                     24.0629(3)
_cell_length_b                     4.75510(10)
_cell_length_c                     11.8795(2)
_cell_angle_alpha                  90
_cell_angle_beta                   95.6310(10)
_cell_angle_gamma                  90
_cell_volume                       1352.71(4)
_cell_formula_units_Z              4
_cell_measurement_reflns_used      5959
_cell_measurement_temperature      100.5(9)
_cell_measurement_theta_max        76.6340
_cell_measurement_theta_min        3.6750
_shelx_estimated_absorpt_T_max     ?
_shelx_estimated_absorpt_T_min     ?
_exptl_absorpt_coefficient_mu      3.854
_exptl_absorpt_correction_T_max    1.000
_exptl_absorpt_correction_T_min    0.624
_exptl_absorpt_correction_type     gaussian
_exptl_absorpt_process_details
;
CrysAlisPro 1.171.40.67a (Rigaku Oxford Diffraction, 2019)
Numerical absorption correction based on gaussian integration over
			a multifaceted crystal model
Empirical absorption correction using spherical harmonics,
 implemented in SCALE3 ABSPACK scaling algorithm.
;
_exptl_absorpt_special_details     ?
_exptl_crystal_colour              colourless
_exptl_crystal_colour_primary      colourless
_exptl_crystal_density_diffrn      1.700
_exptl_crystal_density_meas        ?
_exptl_crystal_density_method      ?
_exptl_crystal_description         plate
_exptl_crystal_F_000               696
loop_
  _exptl_crystal_face_index_h
  _exptl_crystal_face_index_k
  _exptl_crystal_face_index_l
  _exptl_crystal_face_perp_dist
 2 0 1 0.0090
 -2 0 -1 0.0127
 1 -1 0 0.1139
 -1 1 0 0.0947
 0 0 1 0.0105
 2 0 -1 0.0268
 -2 0 1 0.0178

_exptl_crystal_size_max            0.222
_exptl_crystal_size_mid            0.045
_exptl_crystal_size_min            0.022
loop_
  _exptl_oxdiff_crystal_face_indexfrac_h
  _exptl_oxdiff_crystal_face_indexfrac_k
  _exptl_oxdiff_crystal_face_indexfrac_l
  _exptl_oxdiff_crystal_face_x
  _exptl_oxdiff_crystal_face_y
  _exptl_oxdiff_crystal_face_z
 1.9988 -0.0001 1.0013 0.1124 -0.1550 0.0135
 -1.9988 0.0001 -1.0013 -0.1124 0.1550 -0.0135
 0.9962 -1.0014 -0.0003 -0.1256 -0.1716 -0.2534
 -0.9962 1.0014 0.0003 0.1256 0.1716 0.2534
 0.0004 0.0004 1.0002 0.0054 -0.1104 0.0690
 1.9980 -0.0008 -0.9991 0.1017 0.0657 -0.1246
 -1.9980 0.0008 0.9991 -0.1017 -0.0657 0.1246

_exptl_transmission_factor_max     ?
_exptl_transmission_factor_min     ?
_diffrn_reflns_av_R_equivalents    0.0365
_diffrn_reflns_av_unetI/netI       0.0374
_diffrn_reflns_Laue_measured_fraction_full  0.997
_diffrn_reflns_Laue_measured_fraction_max  0.970
_diffrn_reflns_limit_h_max         27
_diffrn_reflns_limit_h_min         -30
_diffrn_reflns_limit_k_max         5
_diffrn_reflns_limit_k_min         -5
_diffrn_reflns_limit_l_max         14
_diffrn_reflns_limit_l_min         -15
_diffrn_reflns_number              8636
_diffrn_reflns_point_group_measured_fraction_full  0.997
_diffrn_reflns_point_group_measured_fraction_max  0.970
_diffrn_reflns_theta_full          67.684
_diffrn_reflns_theta_max           77.258
_diffrn_reflns_theta_min           3.692
_diffrn_ambient_environment        N~2~
_diffrn_ambient_temperature        100.5(9)
_diffrn_detector                   'Hybrid Pixel Array Detector'
_diffrn_detector_area_resol_mean   10.0000
_diffrn_detector_type              HyPix
_diffrn_measured_fraction_theta_full  0.997
_diffrn_measured_fraction_theta_max  0.970
_diffrn_measurement_details
;
List of Runs (angles in degrees, time in seconds):

  # Type    Start    End  Width  t~exp~   \w     \q     \k     \f   Frames
--------------------------------------------------------------------------
  1  \w     36.00  64.00   0.50    0.20    --   48.20  61.00 -70.00   56
  2  \w     91.00 145.00   0.50    0.50    --  107.75  61.00 -70.00  108
  3  \w    148.00 178.00   0.50    0.50    --  107.75  61.00 -70.00   60
  4  \w    104.00 166.00   0.50    0.50    --  107.75  77.00-180.00  124
  5  \w    100.00 178.00   0.50    0.50    --  107.75  45.00-120.00  156
  6  \w    107.00 172.00   0.50    0.50    --  107.75  15.00   0.00  130
  7  \w     96.00 172.00   0.50    0.50    --  107.75  30.00  30.00  152
  8  \w     84.00 109.00   0.50    0.50    --  107.75 -94.00 -30.00   50
  9  \w     44.00  70.00   0.50    0.50    --  107.75 -94.00 -30.00   52
 10  \w     35.00  69.00   0.50    0.50    --  107.75 -61.00  60.00   68
 11  \w     39.00  66.00   0.50    0.50    --  107.75 -61.00 150.00   54
 12  \w     -8.00  18.00   0.50    0.20    --   48.20 -61.00 150.00   52
 13  \w    -65.00  20.00   0.50    0.20    --  -48.20  61.00 -70.00  170
 14  \w     38.00 130.00   0.50    0.50    --  107.75 -77.00-180.00  184
 15  \w    -45.00 -18.00   0.50    0.50    --  -86.25  61.00 -70.00   54
 16  \w    -76.00 -51.00   0.50    0.50    --  -86.25  61.00 -70.00   50
 17  \w   -119.00 -32.00   0.50    0.20    --  -48.20 -61.00 150.00  174
 18  \w   -120.00 -93.00   0.50    0.20    --  -48.20-125.00 -60.00   54
 19  \w   -139.00-114.00   0.50    0.50    --  -86.25 -61.00 150.00   50
;
_diffrn_measurement_device         'four-circle diffractometer'
_diffrn_measurement_device_type    'XtaLAB Synergy, Dualflex, HyPix'
_diffrn_measurement_method         '\w scans'
_diffrn_orient_matrix_type        
 'CrysAlisPro convention (1999,Acta A55,543-557)'
_diffrn_orient_matrix_UB_11        0.0536005000
_diffrn_orient_matrix_UB_12        0.1787007000
_diffrn_orient_matrix_UB_13        0.0052794000
_diffrn_orient_matrix_UB_21        -0.0222591000
_diffrn_orient_matrix_UB_22        0.1492536000
_diffrn_orient_matrix_UB_23        -0.1103780000
_diffrn_orient_matrix_UB_31        -0.0277845000
_diffrn_orient_matrix_UB_32        0.2253841000
_diffrn_orient_matrix_UB_33        0.0689631000
_diffrn_radiation_monochromator    mirror
_diffrn_radiation_probe            x-ray
_diffrn_radiation_type             'Cu K\a'
_diffrn_radiation_wavelength       1.54184
_diffrn_source                     'micro-focus sealed X-ray tube'
_diffrn_source_type                'PhotonJet (Cu) X-ray Source'
_reflns_Friedel_coverage           0.000
_reflns_Friedel_fraction_full      .
_reflns_Friedel_fraction_max       .
_reflns_number_gt                  2564
_reflns_number_total               2767
_reflns_odcompleteness_completeness  98.82
_reflns_odcompleteness_iscentric   1
_reflns_odcompleteness_theta       75.12
_reflns_special_details
;
 Reflections were merged by SHELXL according to the crystal
 class for the calculation of statistics and refinement.
 
 _reflns_Friedel_fraction is defined as the number of unique
 Friedel pairs measured divided by the number that would be
 possible theoretically, ignoring centric projections and
 systematic absences.
;
_reflns_threshold_expression       'I > 2\s(I)'
_computing_cell_refinement         'CrysAlisPro 1.171.40.67a (Rigaku OD, 2019)'
_computing_data_collection         'CrysAlisPro 1.171.40.67a (Rigaku OD, 2019)'
_computing_data_reduction          'CrysAlisPro 1.171.40.67a (Rigaku OD, 2019)'
_computing_molecular_graphics      'Olex2 1.3 (Dolomanov et al., 2009)'
_computing_publication_material    'Olex2 1.3 (Dolomanov et al., 2009)'
_computing_structure_refinement    'SHELXL 2018/3 (Sheldrick, 2015)'
_computing_structure_solution      'SHELXT 2018/2 (Sheldrick, 2018)'
_refine_diff_density_max           0.631
_refine_diff_density_min           -0.809
_refine_diff_density_rms           0.097
_refine_ls_extinction_coef         0.00077(17)
_refine_ls_extinction_expression  
 'Fc^*^=kFc[1+0.001xFc^2^\l^3^/sin(2\q)]^-1/4^'
_refine_ls_extinction_method       'SHELXL-2018/3 (Sheldrick 2018)'
_refine_ls_goodness_of_fit_ref     1.085
_refine_ls_hydrogen_treatment      constr
_refine_ls_matrix_type             full
_refine_ls_number_parameters       192
_refine_ls_number_reflns           2767
_refine_ls_number_restraints       0
_refine_ls_R_factor_all            0.0339
_refine_ls_R_factor_gt             0.0317
_refine_ls_restrained_S_all        1.085
_refine_ls_shift/su_max            0.000
_refine_ls_shift/su_mean           0.000
_refine_ls_structure_factor_coef   Fsqd
_refine_ls_weighting_details      
 'w=1/[\s^2^(Fo^2^)+(0.0519P)^2^+0.8076P] where P=(Fo^2^+2Fc^2^)/3'
_refine_ls_weighting_scheme        calc
_refine_ls_wR_factor_gt            0.0861
_refine_ls_wR_factor_ref           0.0878
_refine_special_details            ?
_olex2_refinement_description
;
1.a Secondary CH2 refined with riding coordinates:
 C15(H15A,H15B)
1.b Aromatic/amide H refined with riding coordinates:
 C6(H6), C10(H10), C3(H3), C5(H5), C4(H4), C9(H9), C13(H13), C12(H12)
1.c Idealised Me refined as rotating group:
 C16(H16A,H16B,H16C)
;
_atom_sites_solution_hydrogens     geom
_atom_sites_solution_primary       dual
_atom_sites_solution_secondary     ?
loop_
  _atom_site_label
  _atom_site_type_symbol
  _atom_site_fract_x
  _atom_site_fract_y
  _atom_site_fract_z
  _atom_site_U_iso_or_equiv
  _atom_site_adp_type
  _atom_site_occupancy
  _atom_site_site_symmetry_order
  _atom_site_calc_flag
  _atom_site_refinement_flags_posn
  _atom_site_refinement_flags_adp
  _atom_site_refinement_flags_occupancy
  _atom_site_disorder_assembly
  _atom_site_disorder_group
 Se1 Se 0.31061(2) -0.19281(5) 0.14615(2) 0.01356(12) Uani 1 1 d . . . . .
 O1 O 0.32916(6) -0.0041(3) 0.47337(12) 0.0158(3) Uani 1 1 d . . . . .
 O3 O 0.10772(6) 0.9089(4) 0.34592(14) 0.0190(3) Uani 1 1 d . . . . .
 O2 O 0.08165(8) 0.7633(4) 0.16884(17) 0.0281(4) Uani 1 1 d . . . . .
 N1 N 0.29799(7) -0.0075(4) 0.28327(15) 0.0140(4) Uani 1 1 d . . . . .
 C1 C 0.36822(8) -0.3857(5) 0.23231(18) 0.0142(4) Uani 1 1 d . . . . .
 C6 C 0.40372(9) -0.5893(5) 0.19358(19) 0.0163(4) Uani 1 1 d . . . . .
 H6 H 0.401253 -0.640457 0.117694 0.020 Uiso 1 1 calc R U . . .
 C7 C 0.33204(8) -0.0920(5) 0.37648(18) 0.0141(4) Uani 1 1 d . . . . .
 C2 C 0.37227(9) -0.3053(4) 0.34561(19) 0.0144(4) Uani 1 1 d . . . . .
 C8 C 0.25290(9) 0.1848(4) 0.28157(19) 0.0141(4) Uani 1 1 d . . . . .
 C10 C 0.20035(9) 0.5495(5) 0.36451(18) 0.0173(4) Uani 1 1 d . . . . .
 H10 H 0.195128 0.666089 0.425435 0.021 Uiso 1 1 calc R U . . .
 C3 C 0.41227(9) -0.4287(5) 0.42326(18) 0.0172(4) Uani 1 1 d . . . . .
 H3 H 0.415349 -0.374370 0.498823 0.021 Uiso 1 1 calc R U . . .
 C5 C 0.44269(10) -0.7122(5) 0.2722(2) 0.0177(5) Uani 1 1 d . . . . .
 H5 H 0.466309 -0.850302 0.248473 0.021 Uiso 1 1 calc R U . . .
 C4 C 0.44745(9) -0.6337(5) 0.3864(2) 0.0185(4) Uani 1 1 d . . . . .
 H4 H 0.474072 -0.718667 0.437468 0.022 Uiso 1 1 calc R U . . .
 C11 C 0.16338(9) 0.5647(5) 0.26689(19) 0.0158(4) Uani 1 1 d . . . . .
 C9 C 0.24500(9) 0.3622(5) 0.37217(19) 0.0167(4) Uani 1 1 d . . . . .
 H9 H 0.269560 0.355291 0.437637 0.020 Uiso 1 1 calc R U . . .
 C14 C 0.11375(10) 0.7552(5) 0.2539(2) 0.0191(5) Uani 1 1 d . . . . .
 C13 C 0.21532(10) 0.2008(5) 0.1835(2) 0.0184(5) Uani 1 1 d . . . . .
 H13 H 0.219891 0.082342 0.122817 0.022 Uiso 1 1 calc R U . . .
 C12 C 0.17186(9) 0.3896(5) 0.17632(19) 0.0196(5) Uani 1 1 d . . . . .
 H12 H 0.147863 0.400494 0.110156 0.024 Uiso 1 1 calc R U . . .
 C15 C 0.05748(9) 1.0831(5) 0.3369(2) 0.0219(5) Uani 1 1 d . . . . .
 H15A H 0.024552 0.965005 0.325182 0.026 Uiso 1 1 calc R U . . .
 H15B H 0.057723 1.209854 0.273022 0.026 Uiso 1 1 calc R U . . .
 C16 C 0.05620(11) 1.2482(6) 0.4440(2) 0.0250(5) Uani 1 1 d . . . . .
 H16A H 0.023074 1.361822 0.439446 0.038 Uiso 1 1 calc R U . . .
 H16B H 0.088523 1.367235 0.454305 0.038 Uiso 1 1 calc R U . . .
 H16C H 0.056174 1.121456 0.506898 0.038 Uiso 1 1 calc R U . . .

loop_
  _atom_site_aniso_label
  _atom_site_aniso_U_11
  _atom_site_aniso_U_22
  _atom_site_aniso_U_33
  _atom_site_aniso_U_23
  _atom_site_aniso_U_13
  _atom_site_aniso_U_12
 Se1 0.01416(16) 0.01570(18) 0.01054(16) 0.00002(7) -0.00018(9) 0.00074(7)
 O1 0.0194(7) 0.0194(8) 0.0083(7) -0.0001(6) 0.0000(5) 0.0026(6)
 O3 0.0157(7) 0.0198(8) 0.0211(8) -0.0022(7) -0.0004(6) 0.0044(6)
 O2 0.0236(9) 0.0297(9) 0.0289(10) -0.0077(8) -0.0077(7) 0.0105(8)
 N1 0.0138(8) 0.0166(9) 0.0113(8) -0.0014(7) -0.0006(6) 0.0013(7)
 C1 0.0125(9) 0.0144(10) 0.0153(10) 0.0011(8) 0.0002(7) -0.0019(8)
 C6 0.0148(9) 0.0175(11) 0.0166(10) -0.0018(9) 0.0026(8) -0.0017(8)
 C7 0.0130(9) 0.0146(11) 0.0145(10) 0.0029(8) -0.0002(7) -0.0019(8)
 C2 0.0126(10) 0.0146(12) 0.0161(11) 0.0011(8) 0.0020(8) -0.0023(7)
 C8 0.0125(10) 0.0154(11) 0.0147(10) 0.0019(8) 0.0021(8) -0.0010(7)
 C10 0.0191(10) 0.0175(11) 0.0151(10) -0.0015(8) 0.0009(8) 0.0003(9)
 C3 0.0153(10) 0.0206(12) 0.0153(10) 0.0010(9) -0.0012(8) -0.0028(8)
 C5 0.0148(10) 0.0171(12) 0.0216(12) -0.0003(8) 0.0037(9) 0.0012(8)
 C4 0.0137(10) 0.0202(11) 0.0208(11) 0.0044(9) -0.0025(8) 0.0006(9)
 C11 0.0139(9) 0.0160(11) 0.0172(10) 0.0000(8) -0.0001(8) 0.0000(8)
 C9 0.0170(10) 0.0199(10) 0.0128(10) 0.0008(9) -0.0018(8) -0.0008(9)
 C14 0.0166(11) 0.0182(10) 0.0219(12) 0.0010(10) -0.0013(9) 0.0001(9)
 C13 0.0183(11) 0.0221(13) 0.0142(11) -0.0017(8) -0.0011(9) 0.0019(8)
 C12 0.0172(10) 0.0232(12) 0.0176(11) -0.0024(9) -0.0028(8) 0.0004(9)
 C15 0.0150(10) 0.0230(12) 0.0272(12) -0.0007(10) -0.0011(9) 0.0055(9)
 C16 0.0212(12) 0.0291(12) 0.0247(13) -0.0009(11) 0.0021(10) 0.0070(10)

_geom_special_details
;
 All esds (except the esd in the dihedral angle between two l.s. planes)
 are estimated using the full covariance matrix.  The cell esds are taken
 into account individually in the estimation of esds in distances, angles
 and torsion angles; correlations between esds in cell parameters are only
 used when they are defined by crystal symmetry.  An approximate (isotropic)
 treatment of cell esds is used for estimating esds involving l.s. planes.
;
loop_
  _geom_bond_atom_site_label_1
  _geom_bond_atom_site_label_2
  _geom_bond_distance
  _geom_bond_site_symmetry_2
  _geom_bond_publ_flag
 Se1 N1 1.9024(18) . ?
 Se1 C1 1.879(2) . ?
 O1 C7 1.233(3) . ?
 O3 C14 1.335(3) . ?
 O3 C15 1.461(3) . ?
 O2 C14 1.210(3) . ?
 N1 C7 1.371(3) . ?
 N1 C8 1.418(3) . ?
 C1 C6 1.398(3) . ?
 C1 C2 1.393(3) . ?
 C6 H6 0.9300 . ?
 C6 C5 1.386(3) . ?
 C7 C2 1.473(3) . ?
 C2 C3 1.396(3) . ?
 C8 C9 1.395(3) . ?
 C8 C13 1.405(3) . ?
 C10 H10 0.9300 . ?
 C10 C11 1.393(3) . ?
 C10 C9 1.392(3) . ?
 C3 H3 0.9300 . ?
 C3 C4 1.390(3) . ?
 C5 H5 0.9300 . ?
 C5 C4 1.401(3) . ?
 C4 H4 0.9300 . ?
 C11 C14 1.495(3) . ?
 C11 C12 1.391(3) . ?
 C9 H9 0.9300 . ?
 C13 H13 0.9300 . ?
 C13 C12 1.375(3) . ?
 C12 H12 0.9300 . ?
 C15 H15A 0.9700 . ?
 C15 H15B 0.9700 . ?
 C15 C16 1.498(4) . ?
 C16 H16A 0.9600 . ?
 C16 H16B 0.9600 . ?
 C16 H16C 0.9600 . ?

loop_
  _geom_angle_atom_site_label_1
  _geom_angle_atom_site_label_2
  _geom_angle_atom_site_label_3
  _geom_angle
  _geom_angle_site_symmetry_1
  _geom_angle_site_symmetry_3
  _geom_angle_publ_flag
 C1 Se1 N1 86.04(9) . . ?
 C14 O3 C15 113.97(18) . . ?
 C7 N1 Se1 115.00(14) . . ?
 C7 N1 C8 126.61(18) . . ?
 C8 N1 Se1 118.22(14) . . ?
 C6 C1 Se1 126.89(16) . . ?
 C2 C1 Se1 111.73(16) . . ?
 C2 C1 C6 121.4(2) . . ?
 C1 C6 H6 121.1 . . ?
 C5 C6 C1 117.7(2) . . ?
 C5 C6 H6 121.1 . . ?
 O1 C7 N1 124.8(2) . . ?
 O1 C7 C2 124.4(2) . . ?
 N1 C7 C2 110.85(18) . . ?
 C1 C2 C7 116.35(19) . . ?
 C1 C2 C3 120.1(2) . . ?
 C3 C2 C7 123.5(2) . . ?
 C9 C8 N1 122.8(2) . . ?
 C9 C8 C13 118.8(2) . . ?
 C13 C8 N1 118.44(19) . . ?
 C11 C10 H10 119.5 . . ?
 C9 C10 H10 119.5 . . ?
 C9 C10 C11 120.9(2) . . ?
 C2 C3 H3 120.4 . . ?
 C4 C3 C2 119.3(2) . . ?
 C4 C3 H3 120.4 . . ?
 C6 C5 H5 119.1 . . ?
 C6 C5 C4 121.7(2) . . ?
 C4 C5 H5 119.1 . . ?
 C3 C4 C5 119.8(2) . . ?
 C3 C4 H4 120.1 . . ?
 C5 C4 H4 120.1 . . ?
 C10 C11 C14 123.8(2) . . ?
 C12 C11 C10 118.9(2) . . ?
 C12 C11 C14 117.3(2) . . ?
 C8 C9 H9 120.0 . . ?
 C10 C9 C8 119.9(2) . . ?
 C10 C9 H9 120.0 . . ?
 O3 C14 C11 113.39(19) . . ?
 O2 C14 O3 123.7(2) . . ?
 O2 C14 C11 122.9(2) . . ?
 C8 C13 H13 119.6 . . ?
 C12 C13 C8 120.7(2) . . ?
 C12 C13 H13 119.6 . . ?
 C11 C12 H12 119.6 . . ?
 C13 C12 C11 120.7(2) . . ?
 C13 C12 H12 119.6 . . ?
 O3 C15 H15A 109.9 . . ?
 O3 C15 H15B 109.9 . . ?
 O3 C15 C16 108.73(19) . . ?
 H15A C15 H15B 108.3 . . ?
 C16 C15 H15A 109.9 . . ?
 C16 C15 H15B 109.9 . . ?
 C15 C16 H16A 109.5 . . ?
 C15 C16 H16B 109.5 . . ?
 C15 C16 H16C 109.5 . . ?
 H16A C16 H16B 109.5 . . ?
 H16A C16 H16C 109.5 . . ?
 H16B C16 H16C 109.5 . . ?

loop_
  _geom_torsion_atom_site_label_1
  _geom_torsion_atom_site_label_2
  _geom_torsion_atom_site_label_3
  _geom_torsion_atom_site_label_4
  _geom_torsion
  _geom_torsion_site_symmetry_1
  _geom_torsion_site_symmetry_2
  _geom_torsion_site_symmetry_3
  _geom_torsion_site_symmetry_4
  _geom_torsion_publ_flag
 Se1 N1 C7 O1 -177.49(17) . . . . ?
 Se1 N1 C7 C2 1.8(2) . . . . ?
 Se1 N1 C8 C9 -170.15(17) . . . . ?
 Se1 N1 C8 C13 8.5(3) . . . . ?
 Se1 C1 C6 C5 -178.22(17) . . . . ?
 Se1 C1 C2 C7 0.2(2) . . . . ?
 Se1 C1 C2 C3 179.15(16) . . . . ?
 O1 C7 C2 C1 178.0(2) . . . . ?
 O1 C7 C2 C3 -0.9(3) . . . . ?
 N1 Se1 C1 C6 179.9(2) . . . . ?
 N1 Se1 C1 C2 0.66(16) . . . . ?
 N1 C7 C2 C1 -1.3(3) . . . . ?
 N1 C7 C2 C3 179.8(2) . . . . ?
 N1 C8 C9 C10 179.0(2) . . . . ?
 N1 C8 C13 C12 -178.1(2) . . . . ?
 C1 C6 C5 C4 -1.0(3) . . . . ?
 C1 C2 C3 C4 -0.6(3) . . . . ?
 C6 C1 C2 C7 -179.11(19) . . . . ?
 C6 C1 C2 C3 -0.1(3) . . . . ?
 C6 C5 C4 C3 0.3(4) . . . . ?
 C7 N1 C8 C9 14.8(3) . . . . ?
 C7 N1 C8 C13 -166.5(2) . . . . ?
 C7 C2 C3 C4 178.3(2) . . . . ?
 C2 C1 C6 C5 0.9(3) . . . . ?
 C2 C3 C4 C5 0.5(3) . . . . ?
 C8 N1 C7 O1 -2.4(3) . . . . ?
 C8 N1 C7 C2 176.96(19) . . . . ?
 C8 C13 C12 C11 -1.5(4) . . . . ?
 C10 C11 C14 O3 -0.7(3) . . . . ?
 C10 C11 C14 O2 -179.1(2) . . . . ?
 C10 C11 C12 C13 1.2(3) . . . . ?
 C11 C10 C9 C8 -0.5(3) . . . . ?
 C9 C8 C13 C12 0.7(3) . . . . ?
 C9 C10 C11 C14 178.4(2) . . . . ?
 C9 C10 C11 C12 -0.2(3) . . . . ?
 C14 O3 C15 C16 -178.9(2) . . . . ?
 C14 C11 C12 C13 -177.5(2) . . . . ?
 C13 C8 C9 C10 0.3(3) . . . . ?
 C12 C11 C14 O3 177.9(2) . . . . ?
 C12 C11 C14 O2 -0.5(4) . . . . ?
 C15 O3 C14 O2 2.0(3) . . . . ?
 C15 O3 C14 C11 -176.37(19) . . . . ?

_shelx_res_file
;
TITL tf-14_a.res in P2(1)/c
    tf-14.res
    created by SHELXL-2018/3 at 14:46:59 on 07-Feb-2020
REM Old TITL tf-14 in P2(1)/c
REM SHELXT solution in P2(1)/c: R1 0.057, Rweak 0.016, Alpha 0.036
REM <I/s> 0.409 for 346 systematic absences, Orientation as input
REM Formula found by SHELXT: C16 N O3 Se
CELL 1.54184 24.0629 4.7551 11.8795 90 95.631 90
ZERR 4 0.0003 0.0001 0.0002 0 0.001 0
LATT 1
SYMM -X,0.5+Y,0.5-Z
SFAC C H N O Se
UNIT 64 52 4 12 4

L.S. 4 0 0
PLAN  5
CONF
BOND
list 4
MORE -1
BOND $H
fmap 2 53
acta
OMIT -28 2 2
REM <olex2.extras>
REM <HklSrc "%tf-14.hkl">
REM </olex2.extras>

WGHT    0.051900    0.807600
EXTI    0.000772
FVAR       0.55089
SE1   5    0.310606   -0.192810    0.146148    11.00000    0.01416    0.01570 =
         0.01054    0.00002   -0.00018    0.00074
O1    4    0.329165   -0.004105    0.473371    11.00000    0.01935    0.01938 =
         0.00826   -0.00007    0.00003    0.00256
O3    4    0.107724    0.908939    0.345920    11.00000    0.01573    0.01980 =
         0.02106   -0.00217   -0.00044    0.00442
O2    4    0.081654    0.763292    0.168840    11.00000    0.02356    0.02970 =
         0.02893   -0.00769   -0.00765    0.01052
N1    3    0.297990   -0.007484    0.283271    11.00000    0.01378    0.01661 =
         0.01132   -0.00145   -0.00062    0.00129
C1    1    0.368220   -0.385663    0.232309    11.00000    0.01253    0.01440 =
         0.01531    0.00111    0.00023   -0.00190
C6    1    0.403716   -0.589277    0.193578    11.00000    0.01485    0.01753 =
         0.01661   -0.00181    0.00258   -0.00175
AFIX  43
H6    2    0.401253   -0.640457    0.117694    11.00000   -1.20000
AFIX   0
C7    1    0.332040   -0.092000    0.376476    11.00000    0.01299    0.01462 =
         0.01451    0.00293   -0.00019   -0.00190
C2    1    0.372273   -0.305258    0.345612    11.00000    0.01261    0.01463 =
         0.01607    0.00110    0.00197   -0.00232
C8    1    0.252899    0.184816    0.281569    11.00000    0.01252    0.01535 =
         0.01470    0.00186    0.00214   -0.00104
C10   1    0.200350    0.549468    0.364515    11.00000    0.01912    0.01747 =
         0.01509   -0.00152    0.00093    0.00031
AFIX  43
H10   2    0.195128    0.666089    0.425435    11.00000   -1.20000
AFIX   0
C3    1    0.412271   -0.428712    0.423264    11.00000    0.01531    0.02059 =
         0.01530    0.00100   -0.00122   -0.00281
AFIX  43
H3    2    0.415349   -0.374370    0.498823    11.00000   -1.20000
AFIX   0
C5    1    0.442695   -0.712184    0.272175    11.00000    0.01484    0.01713 =
         0.02159   -0.00028    0.00367    0.00116
AFIX  43
H5    2    0.466309   -0.850302    0.248473    11.00000   -1.20000
AFIX   0
C4    1    0.447447   -0.633737    0.386432    11.00000    0.01369    0.02021 =
         0.02079    0.00441   -0.00254    0.00056
AFIX  43
H4    2    0.474072   -0.718667    0.437468    11.00000   -1.20000
AFIX   0
C11   1    0.163377    0.564653    0.266887    11.00000    0.01386    0.01598 =
         0.01725    0.00004   -0.00007    0.00004
C9    1    0.245003    0.362190    0.372171    11.00000    0.01697    0.01987 =
         0.01276    0.00078   -0.00184   -0.00082
AFIX  43
H9    2    0.269560    0.355291    0.437637    11.00000   -1.20000
AFIX   0
C14   1    0.113747    0.755189    0.253864    11.00000    0.01655    0.01823 =
         0.02195    0.00103   -0.00127    0.00015
C13   1    0.215319    0.200799    0.183516    11.00000    0.01829    0.02210 =
         0.01419   -0.00172   -0.00106    0.00191
AFIX  43
H13   2    0.219891    0.082342    0.122817    11.00000   -1.20000
AFIX   0
C12   1    0.171863    0.389629    0.176321    11.00000    0.01725    0.02321 =
         0.01757   -0.00241   -0.00276    0.00039
AFIX  43
H12   2    0.147863    0.400494    0.110156    11.00000   -1.20000
AFIX   0
C15   1    0.057484    1.083067    0.336938    11.00000    0.01503    0.02301 =
         0.02715   -0.00071   -0.00109    0.00546
AFIX  23
H15A  2    0.024552    0.965005    0.325182    11.00000   -1.20000
H15B  2    0.057723    1.209854    0.273022    11.00000   -1.20000
AFIX   0
C16   1    0.056198    1.248218    0.444007    11.00000    0.02120    0.02913 =
         0.02467   -0.00085    0.00210    0.00702
AFIX 137
H16A  2    0.023074    1.361822    0.439446    11.00000   -1.50000
H16B  2    0.088523    1.367235    0.454305    11.00000   -1.50000
H16C  2    0.056174    1.121456    0.506898    11.00000   -1.50000
AFIX   0
HKLF 4




REM  tf-14_a.res in P2(1)/c
REM wR2 = 0.0878, GooF = S = 1.085, Restrained GooF = 1.085 for all data
REM R1 = 0.0317 for 2564 Fo > 4sig(Fo) and 0.0339 for all 2767 data
REM 192 parameters refined using 0 restraints

END

WGHT      0.0519      0.8076

REM Highest difference peak  0.631,  deepest hole -0.809,  1-sigma level  0.097
Q1    1   0.3600 -0.2003  0.1563  11.00000  0.05    0.63
Q2    1   0.2616 -0.1921  0.1392  11.00000  0.05    0.60
Q3    1   0.3400 -0.0602  0.1365  11.00000  0.05    0.56
Q4    1   0.3006  0.0398  0.0982  11.00000  0.05    0.49
Q5    1   0.3245 -0.4204  0.1940  11.00000  0.05    0.48
;
_shelx_res_checksum                71128
_shelx_hkl_file
;
   2   0   0 4007.07  170.57
   3   0   0 3602.75  154.25
   4   0   0 1474.22   65.20
   5   0   0 3134.54  136.12
   6   0   0    5.49    3.18
   7   0   0    8.06    4.17
   8   0   0 6490.04  280.08
   9   0   0  690.67   35.85
  11   0   0 1751.18   82.91
  12   0   0    1.06    4.22
  13   0   0 2175.72  106.53
 -13   0   0 2344.26  106.27
  14   0   0 1821.48   93.24
 -14   0   0 2023.37   93.17
 -15   0   0  695.18   41.75
  15   0   0  750.33   43.87
 -16   0   0 2556.46  120.90
  16   0   0 2387.31  122.28
 -16   0   0 2557.05  111.59
 -17   0   0   15.64    3.42
  17   0   0   12.69    5.51
 -17   0   0   10.85    4.93
 -18   0   0  292.05   16.95
 -18   0   0  248.09   22.75
  18   0   0  251.08   24.17
  19   0   0 1751.95   91.62
 -19   0   0 1809.81   88.97
 -19   0   0 1726.50   76.77
 -19   0   0 1633.48   78.06
  20   0   0  275.94   26.40
 -20   0   0  281.81   16.08
 -20   0   0  269.32   24.18
 -21   0   0 1737.91   79.10
  21   0   0 1703.32   94.91
 -21   0   0 1695.54   91.49
 -21   0   0 1845.86   81.25
 -22   0   0   43.65    6.06
 -22   0   0   47.24    5.13
  22   0   0   32.37    9.36
 -22   0   0   38.37    9.10
 -23   0   0    4.29    1.93
 -23   0   0    9.42    5.44
 -23   0   0   11.15    3.74
 -24   0   0   94.81    8.65
 -25   0   0   25.40    4.65
 -26   0   0    4.65    3.02
 -27   0   0    6.26    2.46
 -28   0   0  302.53   16.25
 -29   0   0  406.30   19.92
 -30   0   0   27.54    2.71
   0   1   0   11.25    2.18
   1   1   0 2523.07  106.92
  -1   1   0 2442.05  107.10
  -2   1   0 1366.28   53.96
   2   1   0 1269.38   53.33
   2   1   0 1161.44   52.68
   2  -1   0 1219.89   52.77
  -2   1   0 1131.98   52.52
  -2  -1   0 1251.71   52.57
   3  -1   0   36.26    3.32
   3   1   0   38.06    3.48
   3   1   0   39.16    3.20
   4   1   0 7689.13  307.52
   4   1   0 6717.90  308.55
   4  -1   0 7060.42  308.68
   5  -1   0 6198.34  289.99
   5   1   0 7136.70  288.07
  -5   1   0 7228.86  289.54
   5   1   0 6097.83  290.00
  -6   1   0 1992.13   84.43
   6   1   0 1996.96   82.65
   6  -1   0 1757.95   85.61
   6   1   0 1775.80   85.58
   7   1   0  426.11   18.60
   7  -1   0  369.93   22.24
   7   1   0  416.35   22.77
   8  -1   0  146.06   11.51
   8   1   0  151.61   11.47
   9  -1   0 3402.54  154.12
   9   1   0 3562.59  154.53
  10  -1   0  378.38   24.56
 -10  -1   0  441.66   25.12
 -10   1   0  440.32   24.95
  10   1   0  427.95   25.33
 -11   1   0 2375.65  103.84
  11   1   0 2117.94  103.81
  11  -1   0 2290.81  104.39
 -11  -1   0 2199.49  103.20
  12  -1   0  677.72   38.53
 -12  -1   0  716.18   37.67
  12   1   0  626.50   38.21
 -12   1   0  685.03   37.81
 -13  -1   0  345.69   24.27
  13  -1   0  387.67   25.88
  13   1   0  377.28   25.63
 -13   1   0  381.49   24.75
  14  -1   0 1337.14   72.44
  14   1   0 1335.93   72.40
 -14   1   0 1493.22   72.20
 -14  -1   0 1520.51   71.76
 -15  -1   0  357.02   24.36
 -15   1   0  360.48   17.92
  15   1   0  310.90   24.98
  15  -1   0  272.66   24.12
 -15   1   0  316.70   17.96
 -15  -1   0  307.98   17.87
 -15   1   0  380.92   25.25
  16  -1   0   97.19   13.61
 -16  -1   0  150.25   14.58
 -16  -1   0  107.12    8.66
  16   1   0  104.22   13.80
 -16   1   0  123.91    9.04
 -16   1   0  137.45   14.36
 -16   1   0  116.96    8.50
 -17   1   0 1755.29   88.17
 -17  -1   0 1808.00   87.79
 -17  -1   0 1851.01   78.85
 -17  -1   0 1667.04   78.45
  17  -1   0 1743.91   90.48
 -17   1   0 1648.61   78.46
  17   1   0 1603.78   88.97
 -17   1   0 1801.89   78.18
 -18   1   0  651.23   40.58
 -18  -1   0  624.41   31.65
  18   1   0  580.37   40.71
  18  -1   0  612.84   41.99
 -18  -1   0  662.38   40.36
 -19  -1   0  303.06   25.13
 -19   1   0  311.77   25.32
  19   1   0  270.29   25.38
  19  -1   0  286.57   26.01
 -19  -1   0  288.42   17.36
  20   1   0  938.32   60.46
 -20  -1   0 1094.65   49.91
 -20   1   0 1021.93   49.91
 -20   1   0 1099.98   60.45
  20  -1   0  961.98   61.47
 -20  -1   0 1065.43   50.11
 -20  -1   0  996.53   58.88
  21   1   0  385.69   32.59
 -21   1   0  421.96   23.84
  21  -1   0  365.91   32.62
 -21  -1   0  454.93   23.73
 -21  -1   0  448.20   24.08
 -21   1   0  436.19   32.30
 -21  -1   0  407.22   31.50
 -22  -1   0  222.23   14.71
 -22  -1   0  231.73   14.39
 -22  -1   0  238.50   21.76
  22  -1   0  164.90   20.67
 -22   1   0  242.56   14.98
 -22   1   0  213.51   21.18
  22   1   0  170.56   20.91
 -23   1   0   94.96    8.50
 -23  -1   0   82.54    8.09
 -23  -1   0   90.19    7.89
 -24  -1   0    5.37    2.46
 -24   1   0   10.87    3.44
 -24  -1   0   10.84    3.39
 -25  -1   0 1019.77   47.62
 -25  -1   0 1040.85   48.65
 -25   1   0 1031.00   48.63
 -26  -1   0   51.30    5.06
 -26   1   0   62.29    5.95
 -27  -1   0  657.23   32.06
 -27   1   0  682.96   32.15
 -28  -1   0  136.07    8.64
 -28   1   0  145.81    8.80
 -29  -1   0    1.49    1.14
 -29   1   0    0.66    1.18
   0   2   0 1423.78   64.73
   1   2   0    0.90    2.21
  -1   2   0    5.72    2.72
   2   2   0   38.23    4.55
  -2   2   0   32.07    4.61
  -3   2   0  403.75   21.56
   3   2   0  394.64   20.73
   4   2   0  120.88    7.69
  -4   2   0  109.92    8.56
   5   2   0 1286.05   56.47
   5   2   0 1221.45   55.23
   5  -2   0 1243.49   55.47
  -6   2   0  165.95   11.58
   6  -2   0  153.03   10.39
  -6   2   0  156.29    9.93
   6   2   0  196.91   11.02
   6   2   0  171.66   10.25
   7   2   0    6.19    1.87
   7  -2   0    5.41    2.42
  -7   2   0    5.69    2.80
   7   2   0    1.06    2.00
  -7   2   0    5.46    2.16
  -7  -2   0    6.53    2.25
  -8   2   0  320.23   18.27
  -8  -2   0  329.50   18.21
   8  -2   0  314.40   18.99
   8   2   0  328.91   19.17
   8   2   0  301.43   15.95
  -9  -2   0  131.25   10.13
   9  -2   0  111.16   10.42
   9   2   0  125.66   10.78
  -9   2   0  120.86    9.95
  10   2   0  113.47   10.84
 -10  -2   0  111.00    9.81
 -10   2   0  103.97    9.67
  10  -2   0  105.96   10.53
  11  -2   0   95.79   10.69
  11   2   0   92.24   10.45
 -11  -2   0  116.27   10.42
 -11   2   0  109.96   10.27
  12   2   0  158.51   14.52
 -12  -2   0  170.78   11.13
  12  -2   0  152.55   14.54
 -12   2   0  162.06   13.78
 -12  -2   0  161.16   13.46
  13  -2   0 1257.94   65.12
 -13  -2   0 1236.35   62.97
 -13  -2   0 1277.55   58.36
 -13   2   0 1278.88   57.78
 -13   2   0 1263.73   63.11
  13   2   0 1210.27   64.71
  14   2   0   62.32    9.55
  14  -2   0   58.94    9.47
 -14   2   0   41.48    7.77
 -14   2   0   62.90    5.98
 -14  -2   0   68.06    8.89
 -14  -2   0   62.53    6.36
  15  -2   0  376.13   27.94
 -15  -2   0  396.34   26.60
 -15  -2   0  408.25   22.08
  15   2   0  359.40   27.68
 -15   2   0  411.32   21.50
 -15   2   0  402.15   26.91
 -15   2   0  388.03   20.71
 -16   2   0 1441.13   67.43
 -16   2   0 1553.50   75.89
  16  -2   0 1462.86   77.58
 -16  -2   0 1572.57   69.13
 -16   2   0 1453.25   67.98
  16   2   0 1397.62   77.23
 -16  -2   0 1567.54   75.86
 -16  -2   0 1507.57   67.66
 -17   2   0  115.59    8.66
 -17   2   0  112.70   13.06
 -17  -2   0  107.33    8.54
  17  -2   0   89.12   13.08
  17   2   0  123.95   14.88
 -17  -2   0  118.79   13.46
 -17   2   0  114.25    8.89
  18   2   0  457.23   34.63
 -18  -2   0  531.72   26.65
 -18   2   0  521.66   26.79
 -18   2   0  514.29   26.37
  18  -2   0  463.60   34.70
 -19   2   0  344.70   19.98
 -19  -2   0  388.06   20.17
 -19   2   0  346.76   19.65
  19   2   0  325.08   27.51
 -20  -2   0    9.06    2.99
  20   2   0   14.48    5.73
 -20   2   0   10.86    2.86
 -21  -2   0  649.60   34.50
 -21   2   0  691.52   33.62
 -21  -2   0  696.05   33.87
 -22   2   0  151.94   10.13
 -22  -2   0  130.56    9.78
 -22  -2   0  139.96   10.65
 -23  -2   0  443.51   22.58
 -23   2   0  411.66   21.33
 -23  -2   0  388.20   21.34
 -23  -2   0  401.01   20.83
 -24  -2   0  476.84   24.07
 -24  -2   0  484.68   24.84
 -25  -2   0   18.27    3.31
 -25  -2   0   13.48    2.62
 -26  -2   0  264.68   14.27
 -27  -2   0  111.45    6.88
   0   3   0    0.79    2.87
   1   3   0   86.00    9.03
  -1   3   0   88.65    9.12
   2   3   0   28.33    5.04
  -2   3   0   37.74    5.95
   3   3   0    2.15    2.70
  -4   3   0  606.07   28.68
  -4   3   0  564.17   28.11
  -5   3   0    1.52    1.87
   5   3   0    1.66    1.90
  -5   3   0    6.98    2.25
  -6   3   0  228.84   13.10
   6   3   0  222.16   13.25
  -7  -3   0   58.23    5.59
  -7   3   0   70.92    5.99
   7   3   0   67.98    5.97
   8   3   0   36.97    4.52
  -8   3   0   36.33    4.41
  -8  -3   0   36.78    4.46
  -9  -3   0  300.24   17.11
   9   3   0  298.38   16.79
  -9   3   0  290.30   16.43
 -10   3   0    1.06    2.17
 -10  -3   0    2.67    2.39
  10   3   0    1.93    2.11
 -11   3   0   34.96    4.86
  11   3   0   41.63    4.91
 -11   3   0   34.68    4.23
 -11  -3   0   34.06    4.95
 -12   3   0  489.57   25.13
 -12  -3   0  519.01   26.59
  12   3   0  497.71   25.62
 -12   3   0  502.29   26.23
 -12   3   0  472.06   24.85
  13   3   0   32.19    4.52
 -13   3   0   31.99    5.04
 -13   3   0   27.36    4.21
 -13  -3   0   40.58    5.68
 -14   3   0  325.41   18.58
  14   3   0  308.96   17.86
 -14  -3   0  302.54   18.70
 -15  -3   0  203.09   13.65
  15   3   0  164.24   11.88
 -15   3   0  196.51   12.92
  16   3   0    0.52    2.13
 -16  -3   0    3.99    2.97
 -16   3   0   -0.56    2.89
 -17  -3   0  362.59   20.72
  17   3   0  317.25   18.85
 -17   3   0  359.48   19.70
 -18  -3   0   19.43    4.54
  18   3   0   29.26    4.30
  19   3   0   73.27    6.59
 -19  -3   0   78.35    7.88
  20   3   0   50.91    5.15
 -20  -3   0   59.17    6.56
 -20  -3   0   57.77    5.94
 -21  -3   0   53.34    6.04
 -21  -3   0   42.46    4.97
 -22  -3   0  360.94   19.04
 -22  -3   0  372.65   19.95
 -23  -3   0  116.28    7.78
 -23  -3   0  133.22    8.89
 -24  -3   0   20.84    3.11
 -24  -3   0   20.85    2.47
   0   4   0   13.14    3.72
   0   4   0   15.44    3.54
   1   4   0   23.41    3.83
  -1   4   0   27.11    4.10
  -1   4   0   24.63    4.35
   1   4   0   31.72    4.83
  -2   4   0   18.82    3.77
   2   4   0   12.53    3.15
   2   4   0   13.57    3.54
  -2   4   0    8.72    3.23
   3   4   0  111.88    8.78
   3   4   0   91.15    7.43
  -3   4   0   90.62    7.80
  -3   4   0  100.33    8.48
  -4  -4   0    4.53    2.31
  -4   4   0    4.89    3.30
  -4   4   0   11.85    3.52
   4   4   0    3.27    2.82
  -5  -4   0  293.44   16.89
  -5   4   0  287.28   17.29
  -5   4   0  306.06   17.16
   5   4   0  302.15   17.55
  -6   4   0   26.15    4.38
  -6  -4   0   27.47    4.15
   6   4   0   22.10    4.23
  -7  -4   0    1.60    2.39
   7   4   0    2.20    2.83
  -7   4   0    1.52    2.61
  -8   4   0  216.73   14.00
  -8  -4   0  218.33   13.72
   8   4   0  198.39   13.37
  -8   4   0  200.74   13.12
  -9   4   0   18.53    3.97
   9   4   0   20.68    4.09
  -9  -4   0   26.44    4.44
  -9  -4   0   20.90    3.60
  -9   4   0   19.06    4.10
 -10  -4   0  126.78    9.70
 -10   4   0  102.51    9.10
  10   4   0  113.15    9.07
 -10  -4   0  120.79    8.95
 -11  -4   0   53.92    6.34
 -11  -4   0   64.53    6.29
  11   4   0   62.31    6.46
 -11   4   0   70.06    6.99
 -12  -4   0   30.73    4.96
  12   4   0   30.46    4.62
 -12  -4   0   31.35    4.50
 -12   4   0   30.82    4.78
 -13   4   0   24.27    4.34
 -13  -4   0   13.18    3.31
 -13  -4   0   23.83    4.44
  13   4   0   17.46    3.40
  14   4   0   27.32    4.13
 -14  -4   0   36.08    4.97
 -14  -4   0   26.21    4.26
 -14   4   0   20.46    3.94
  15   4   0    0.42    2.39
 -15  -4   0    2.56    2.52
 -15   4   0    1.40    2.55
 -15  -4   0    1.62    2.45
 -16  -4   0   17.70    3.74
 -16  -4   0   15.78    3.57
  16   4   0   15.68    2.69
 -16   4   0   13.86    3.25
 -17  -4   0   17.18    3.50
 -17  -4   0   13.56    3.23
 -17   4   0   16.74    3.17
 -18  -4   0    7.16    2.60
 -18  -4   0   11.52    3.06
 -19  -4   0    0.75    1.98
 -19  -4   0    2.21    2.09
 -20  -4   0    1.26    1.77
 -21  -4   0   -0.76    1.42
 -22  -4   0   15.32    1.95
 -22  -4   0   17.27    2.04
   0   5   0   -0.71    2.01
   0   5   0    3.10    2.36
   1   5   0   46.80    5.17
   1   5   0   32.05    3.94
   2   5   0  113.51    8.44
   3   5   0    0.88    2.26
   4   5   0  132.54    9.27
   5   5   0    4.13    2.39
   6   5   0    0.40    2.07
   7   5   0   44.46    4.79
   8   5   0   13.01    2.76
  -8  -5   0    6.41    1.91
  -9  -5   0    4.76    1.89
   9   5   0    3.55    2.05
 -10  -5   0    2.09    1.56
 -11  -5   0   10.59    2.17
 -12  -5   0   81.56    5.89
 -13  -5   0   52.04    4.36
 -14  -5   0    1.96    1.40
 -15  -5   0   13.28    1.97
 -16  -5   0    3.07    1.19
 -30   0   1    0.65    0.83
 -30   0   1    1.04    1.20
 -29   0   1    0.30    1.51
 -28   0   1    1.54    1.98
 -27   0   1   -3.71    2.67
 -26   0   1    0.53    2.53
 -25   0   1   -0.59    3.18
 -24   0   1    0.63    2.95
  23   0  -1    7.03    5.65
 -23   0   1    1.99    3.25
 -22   0   1    0.67    2.93
 -22   0   1    0.43    1.97
  22   0  -1   -2.35    5.26
 -21   0   1    2.66    3.15
 -21   0   1    1.79    1.87
 -21   0   1    1.89    4.55
  21   0  -1    2.31    5.96
  20   0  -1    6.67    6.08
 -20   0   1   -1.94    2.94
 -20   0   1   -1.83    4.08
 -20   0   1   -0.45    1.48
 -19   0   1    1.33    1.76
 -19   0   1   -0.62    2.92
  19   0  -1   -2.10    5.74
 -19   0   1   -1.74    4.19
 -18   0   1    3.41    1.87
 -18   0   1    1.63    3.93
  18   0  -1    1.95    4.36
 -17   0   1   -1.62    2.22
  17   0  -1    1.78    3.98
 -17   0   1   -3.03    4.14
 -16   0   1   -1.39    4.39
  16   0  -1    1.60    5.26
 -15   0   1    1.27    3.84
  15   0  -1    1.43    5.06
 -14   0   1    5.79    4.10
  13   0  -1   -2.27    4.14
 -13   0   1    1.05    3.70
 -12   0   1   -0.95    2.98
  12   0  -1   -2.05    4.29
  11   0  -1    1.85    3.95
 -11   0   1    0.85    3.19
  10   0  -1   -1.64    4.35
 -10   0   1    2.26    3.37
   9   0  -1    0.72    3.26
  -9   0   1    1.34    2.72
  -8   0   1    1.75    2.60
  -7   0   1   -2.00    2.41
  -5   0   1    0.66    2.16
  -4   0   1    3.78    1.95
  -3   0   1    0.22    1.56
  -2   0   1    0.35    1.15
  -1   0   1    1.12    1.02
   0   0   1   -0.12    0.87
   1   0   1   -0.83    1.10
   2   0   1   -1.13    1.67
   3   0   1    2.64    2.01
   4   0   1    2.22    2.63
   5   0   1    2.25    3.12
  -6   0  -1    1.51    0.74
   6   0   1    2.67    3.37
   7   0   1    2.50    3.60
   8   0   1   -0.72    3.93
   9   0   1    1.64    3.89
  10   0   1    0.93    3.87
  11   0   1   -1.04    4.25
  12   0   1   -1.17    4.38
  13   0   1   -1.30    4.26
  14   0   1   -1.43    4.88
  15   0   1    3.14    4.96
 -15   0  -1    1.42    2.29
  16   0   1    3.43    5.41
 -16   0  -1   -1.52    4.38
 -16   0  -1    0.51    2.29
 -17   0  -1    1.11    2.25
  17   0   1    3.71    4.79
 -17   0  -1    1.64    3.95
  18   0   1   -5.98    6.80
 -18   0  -1   -6.97    5.50
 -18   0  -1    0.59    2.59
 -19   0  -1    1.25    2.54
  19   0   1    4.21    5.08
 -19   0  -1    3.63    4.37
  20   0   1   -2.20    5.30
 -20   0  -1   -0.65    2.78
 -20   0  -1    1.87    3.82
  21   0   1    6.79    5.46
 -21   0  -1    5.34    3.33
 -21   0  -1    1.91    4.26
 -21   0  -1    1.53    2.02
 -22   0  -1   -0.98    1.94
 -22   0  -1    1.91    4.60
 -23   0  -1    1.29    3.28
 -23   0  -1   -0.45    2.05
 -24   0  -1   -1.22    3.24
 -24   0  -1    0.40    1.70
 -25   0  -1    0.56    2.69
 -26   0  -1   -0.99    2.58
 -27   0  -1    3.37    2.17
 -28   0  -1   -0.69    1.63
 -29   0  -1    1.30    1.50
 -30   0  -1    1.15    0.90
 -29   1   1  288.44   14.36
 -29  -1   1  283.05   14.25
 -28  -1   1   58.45    4.87
 -28   1   1   49.16    4.71
 -27  -1   1   32.36    4.25
 -27   1   1   36.98    4.34
 -26   1   1   20.77    3.64
 -26  -1   1   17.47    3.64
 -25   1   1   95.05    8.06
 -25  -1   1   90.16    7.91
 -25  -1   1   91.15    7.19
 -24  -1   1   90.84    7.68
 -24   1   1  100.10    8.75
 -24  -1   1   96.40    8.39
 -23  -1   1   78.22    7.19
 -23   1   1   73.31    7.65
 -23  -1   1   83.58    7.86
 -22   1   1   24.02    4.43
  22   1  -1   23.83    8.20
  22  -1  -1   17.96    6.55
 -22  -1   1   26.09    4.27
 -22  -1   1   25.83    4.71
 -21   1   1   34.16    5.21
 -21  -1   1   37.51    5.16
  21   1  -1   25.92    8.71
 -21  -1   1   37.81    5.56
  21  -1  -1   40.17   10.08
 -20   1   1  181.09   18.50
  20   1  -1  183.15   20.12
 -20  -1   1  168.10   12.11
  20  -1  -1  141.12   18.47
 -20  -1   1  172.07   11.88
 -20   1   1  172.58   12.28
 -19  -1   1    5.03    5.07
  19  -1  -1    4.15    5.98
 -19  -1   1    2.39    2.55
 -19   1   1    1.70    3.48
 -19   1   1    3.00    2.68
  19   1  -1    2.02    5.20
 -19  -1   1    5.55    2.91
 -18   1   1  722.30   44.77
 -18  -1   1  700.42   36.60
 -18  -1   1  782.54   45.72
  18   1  -1  817.50   48.73
 -18  -1   1  754.66   36.59
  18  -1  -1  784.46   48.42
 -18   1   1  747.01   36.98
 -17  -1   1   24.38    4.07
 -17  -1   1   35.49    7.37
  17  -1  -1   25.32    8.17
 -17   1   1   30.40    4.50
 -17   1   1   43.68    8.22
  17   1  -1   31.80    8.15
 -17  -1   1   31.93    4.51
  16   1  -1   14.53    6.12
 -16   1   1   20.29    3.61
 -16  -1   1   17.76    5.76
 -16  -1   1   19.13    3.39
  16  -1  -1   19.80    7.26
 -16   1   1   20.88    6.14
  15  -1  -1  513.73   33.52
 -15  -1   1  499.15   25.39
 -15   1   1  557.32   32.94
 -15   1   1  504.28   25.11
  15   1  -1  436.92   31.84
 -15  -1   1  515.79   31.79
  14   1  -1   83.52   10.86
 -14  -1   1   89.07   10.74
 -14   1   1  101.38   11.14
  14  -1  -1   88.95   11.15
 -13  -1   1  127.00   11.94
  13   1  -1  113.34   12.10
  13  -1  -1  112.73   11.98
 -13   1   1   95.95   11.04
  12   1  -1  655.35   39.20
 -12   1   1  768.58   39.92
  12  -1  -1  723.90   40.04
 -12  -1   1  777.29   39.76
  11  -1  -1  371.87   23.70
 -11  -1   1  409.85   23.58
 -11   1   1  385.77   23.30
  11   1  -1  350.02   23.17
 -10  -1   1 1469.99   69.23
  10  -1  -1 1465.94   70.12
  10   1  -1 1477.17   70.07
 -10   1   1 1480.57   69.47
   9  -1  -1  511.32   28.79
   9   1  -1  520.51   28.78
  -9  -1   1  495.86   27.96
  -9   1   1  563.43   28.49
   8   1  -1  437.76   24.75
  -8  -1   1  505.22   24.87
  -8   1   1  447.55   24.71
   8  -1  -1  421.63   24.57
   7  -1  -1  669.60   34.37
  -7   1   1  670.35   34.01
  -7  -1   1  744.10   34.28
   7   1  -1  695.58   34.59
  -6   1   1 2972.48  126.70
  -6  -1   1 2836.54  126.46
  -5  -1   1  802.50   37.06
  -5   1   1  799.50   37.21
  -4   1   1 9813.61  420.47
  -4  -1   1 9999.00  420.57
  -4   1   1 9895.40  420.55
  -3  -1   1 1338.97   56.48
  -3   1   1 1235.46   56.21
  -2   1   1   34.64    2.88
  -2  -1   1   37.98    3.00
  -1   1   1   34.08    2.62
  -1  -1   1   35.16    2.66
   0   1   1    2.69    1.05
   0   1  -1    3.07    1.06
   0  -1   1    1.69    1.02
   0  -1  -1    3.16    1.09
   1   1   1  499.36   22.52
   1  -1   1  494.70   22.49
   2   1   1   10.24    2.03
   2  -1   1    8.63    1.88
   3   1   1    8.80    2.43
   3  -1   1   10.23    2.48
   4   1   1 3453.11  148.70
   4  -1   1 3422.94  148.67
   5  -1   1  131.12    9.54
   5   1   1  118.14    9.14
  -6   1  -1  377.34   18.57
   6   1   1  414.27   21.06
  -7   1  -1   19.31    2.98
   7   1   1   27.98    5.01
   7  -1   1   27.01    4.98
  -8   1  -1  151.19    9.22
   8  -1   1  135.90   11.47
   8   1   1  155.31   12.05
  -9   1  -1  276.84   15.13
   9   1   1  303.72   19.25
   9  -1   1  291.68   19.04
  10  -1   1  187.30   15.41
  10   1   1  202.73   15.73
  11  -1   1  287.70   21.05
  11   1   1  313.89   21.38
  12  -1   1   50.70    8.26
  12   1   1   39.18    8.03
  13  -1   1  163.42   15.99
  13   1   1  181.21   16.57
  14   1   1   15.88    5.82
  14  -1   1   38.92    8.16
 -15   1  -1    8.47    2.74
 -15  -1  -1    5.49    3.97
  15   1   1   11.03    5.57
 -15   1  -1    4.19    3.84
 -15   1  -1    8.31    2.56
  15  -1   1    9.47    5.58
 -15  -1  -1   10.78    2.72
  16  -1   1  197.36   19.76
 -16  -1  -1  198.12   12.84
 -16   1  -1  225.76   19.74
 -16   1  -1  193.75   12.49
 -16  -1  -1  218.64   19.11
 -16   1  -1  220.74   13.27
  16   1   1  199.74   19.74
  17  -1   1  110.59   14.22
 -17   1  -1   80.40   11.91
 -17   1  -1   79.30    7.42
 -17   1  -1   86.22    7.22
  17   1   1   93.12   13.39
 -17  -1  -1   84.30    7.63
 -17  -1  -1   91.58   12.32
 -18  -1  -1  246.44   15.29
 -18   1  -1  250.90   15.44
  18   1   1  197.43   21.32
 -18   1  -1  241.09   22.15
 -18  -1  -1  236.81   21.58
  18  -1   1  244.93   23.44
 -19  -1  -1   49.96    6.01
 -19   1  -1   30.02    7.85
  19   1   1   56.81   11.00
 -19  -1  -1   53.79    9.86
 -19  -1  -1   53.03    6.00
  19  -1   1   49.47   10.84
 -19   1  -1   64.45    6.71
 -20  -1  -1    1.21    2.59
  20   1   1    6.28    5.05
 -20  -1  -1   -1.79    4.60
 -20   1  -1    5.45    4.38
  20  -1   1    2.13    5.15
 -21  -1  -1  342.75   27.70
 -21   1  -1  328.70   27.60
 -21  -1  -1  342.20   19.92
  21  -1   1  400.36   31.48
  21   1   1  338.46   29.00
 -22   1  -1   53.26    6.44
 -22  -1  -1   54.33    6.53
 -22  -1  -1   47.31    5.76
 -22  -1  -1   50.02    9.87
  22   1   1   56.51   11.17
  22  -1   1   42.97   10.22
 -22   1  -1   58.20   10.70
 -23   1  -1    4.80    2.68
 -23  -1  -1    3.80    2.80
 -23  -1  -1    2.99    2.94
 -24  -1  -1  359.55   20.25
 -24   1  -1  371.93   20.40
 -24  -1  -1  348.50   19.56
 -25   1  -1  354.81   19.54
 -25  -1  -1  365.20   19.65
 -25  -1  -1  342.79   18.74
 -26   1  -1  216.36   12.36
 -26  -1  -1  180.04   11.11
 -26  -1  -1  187.79   11.86
 -27   1  -1   80.30    6.40
 -27  -1  -1   88.19    6.64
 -28  -1  -1   20.31    2.84
 -28   1  -1   24.64    2.97
 -29   1  -1   17.33    2.07
 -29  -1  -1   15.52    2.10
 -27  -2   1  168.98    9.39
 -26  -2   1   14.30    2.72
 -25  -2   1  164.18   10.14
 -25  -2   1  184.45   11.10
 -24  -2   1  565.20   28.19
 -24   2   1  546.99   27.21
 -24  -2   1  563.81   27.53
 -23  -2   1    1.39    2.19
 -23  -2   1   -1.07    2.58
 -23   2   1    0.44    1.89
 -23  -2   1    2.61    1.70
 -22  -2   1  319.59   18.47
 -22  -2   1  289.86   17.38
 -22  -2   1  305.84   16.97
 -22   2   1  322.46   17.63
 -21  -2   1   84.36    8.04
 -21  -2   1   83.61    7.30
 -21   2   1   78.11    7.08
 -21  -2   1   77.34    6.98
  20   2  -1   60.20   11.09
 -20  -2   1   74.82    7.57
 -20  -2   1   79.18    7.10
 -20   2   1   73.58    6.89
  19   2  -1   69.18   11.93
 -19   2   1   84.95    7.43
 -19  -2   1   78.60    8.04
 -19  -2   1   99.06    7.99
 -18   2   1    1.02    2.03
 -18  -2   1    4.69    2.47
  18   2  -1   -1.79    4.61
  18  -2  -1    3.59    3.65
  17   2  -1  359.84   28.20
  17  -2  -1  368.23   28.75
 -17   2   1  383.07   20.56
 -17  -2   1  384.72   20.65
  16   2  -1  352.14   26.43
  16  -2  -1  346.11   26.45
 -16   2   1  318.87   18.17
 -16   2   1  334.08   18.57
  15   2  -1   45.79    8.35
 -15   2   1   29.08    4.04
 -15   2   1   37.85    4.64
 -15  -2   1   32.67    4.86
  15  -2  -1   31.88    7.46
 -14  -2   1 1022.58   49.13
  14  -2  -1 1126.41   57.24
 -14   2   1 1062.29   48.65
  14   2  -1  965.94   55.77
 -13   2   1  189.12   11.68
  13   2  -1  182.79   16.58
 -13   2   1  174.29   10.70
 -13  -2   1  187.45   11.96
  13  -2  -1  157.00   15.59
  12  -2  -1 1116.01   58.19
 -12  -2   1 1152.28   52.46
  12   2  -1 1114.59   58.37
 -12   2   1 1124.65   51.88
  11  -2  -1  726.66   41.08
  11   2  -1  806.90   42.11
  10  -2  -1  575.21   33.37
  10   2  -1  645.22   34.24
   9  -2  -1 2561.09  111.89
   9   2  -1 2415.79  107.12
   9   2  -1 2475.78  111.66
   8   2  -1 2607.26  111.93
   8   2  -1 2538.20  108.75
   8  -2  -1 2299.98  111.12
   7  -2  -1  156.72   11.54
   7   2  -1  185.62   11.05
   7   2  -1  185.19   12.09
   6   2  -1   70.38    6.29
   6   2  -1   76.67    6.53
   6  -2  -1   80.60    6.60
   5   2  -1  846.66   36.97
   5   2  -1  841.49   35.66
   4   2  -1  255.24   13.58
   4   2  -1  198.36   10.55
   3   2  -1  327.51   18.21
   2   2  -1   13.45    3.33
   1   2  -1  842.70   40.35
   0   2   1 1019.27   49.24
   0   2  -1 1126.15   50.16
   1   2   1   18.29    3.45
  -1   2  -1   15.71    3.53
  -2   2  -1  638.44   31.93
  -3   2  -1  154.41    8.27
   3   2   1  206.38    8.61
  -4   2  -1   39.77    3.42
   4   2   1   44.29    3.47
  -5  -2  -1 2224.54  101.71
  -5   2  -1 2353.93  102.11
   5  -2   1 2297.93  102.08
   5   2   1 2498.11  102.14
   6   2   1  147.93    9.75
  -6  -2  -1  137.54    9.32
   6  -2   1  134.87    9.57
  -6   2  -1  135.95    9.49
  -6   2  -1  148.58   10.84
  -7   2  -1 2189.03  100.22
   7  -2   1 2280.88  100.77
  -7  -2  -1 2164.96   99.93
   7   2   1 2252.29  100.49
  -7   2  -1 2415.70  101.33
  -8  -2  -1   75.59    7.43
   8  -2   1   83.21    8.17
  -8   2  -1   83.39    7.88
  -8   2  -1   88.64    8.02
   8   2   1   70.12    7.65
  -9  -2  -1    6.33    2.73
   9   2   1    7.97    3.26
  -9   2  -1    4.37    2.50
  -9   2  -1    4.99    2.68
   9  -2   1    6.45    3.38
 -10  -2  -1  634.55   34.08
 -10   2  -1  657.47   34.62
  10   2   1  648.76   35.33
  10  -2   1  612.48   34.94
 -11   2  -1   87.68    9.44
  11   2   1   78.07    9.66
  11  -2   1   86.44   10.08
 -11  -2  -1   88.52    9.41
 -12   2  -1  217.89   16.92
 -12   2  -1  223.85   13.43
 -12   2  -1  241.14   13.62
  12  -2   1  207.77   17.59
  12   2   1  195.74   17.35
 -12  -2  -1  237.88   17.29
  13  -2   1  310.95   23.98
 -13   2  -1  359.03   19.36
 -13   2  -1  350.79   23.84
  13   2   1  303.91   23.85
 -13   2  -1  375.11   19.38
 -13  -2  -1  338.16   23.22
 -14  -2  -1  503.91   32.33
 -14   2  -1  540.83   27.73
 -14   2  -1  543.31   33.10
 -14   2  -1  551.32   27.76
 -14  -2  -1  558.52   28.48
  14   2   1  567.16   35.13
  14  -2   1  539.53   34.74
 -15   2  -1  339.87   24.74
 -15   2  -1  331.01   19.01
  15  -2   1  309.71   25.48
 -15  -2  -1  386.72   20.86
  15   2   1  382.40   27.55
 -15  -2  -1  401.25   25.88
 -15   2  -1  372.71   19.98
 -15   2  -1  364.89   20.20
  16  -2   1   42.69    8.77
 -16   2  -1   38.32    7.47
 -16   2  -1   44.59    5.37
  16   2   1   33.10    7.88
 -16  -2  -1   47.31    5.96
 -16   2  -1   42.16    5.57
 -16  -2  -1   31.19    6.87
 -17  -2  -1  250.38   16.22
 -17  -2  -1  227.34   20.41
  17   2   1  255.40   23.07
  17  -2   1  251.63   22.49
 -17   2  -1  265.12   15.59
 -17   2  -1  256.06   21.12
 -17   2  -1  262.69   15.27
 -18   2  -1  108.19    8.76
 -18  -2  -1  119.36    9.09
 -18   2  -1   99.94    8.75
 -18  -2  -1  136.44   10.43
  18  -2   1  115.72   14.41
 -18   2  -1  130.09   14.14
  18   2   1  110.84   14.56
 -19   2  -1  143.35   16.38
  19   2   1  162.20   18.01
 -19   2  -1  175.43   11.89
 -19  -2  -1  173.73   11.78
 -19   2  -1  177.83   11.67
 -20   2  -1  653.09   31.72
 -20   2  -1  607.26   39.09
 -20  -2  -1  620.20   31.67
 -21  -2  -1  474.66   24.74
 -21   2  -1  468.32   24.50
 -22  -2  -1    3.50    2.96
 -22  -2  -1    8.13    2.76
 -22   2  -1    2.29    2.05
 -23  -2  -1  357.63   19.37
 -23   2  -1  369.49   19.26
 -23  -2  -1  365.16   20.31
 -24  -2  -1  147.81    9.07
 -24  -2  -1  156.87    9.77
 -24  -2  -1  149.92   10.32
 -25  -2  -1    9.80    2.21
 -25  -2  -1    7.91    2.45
 -26  -2  -1  276.42   14.65
 -27  -2  -1    8.74    1.76
 -26  -3   1  238.20   11.86
 -24  -3   1    1.38    1.26
 -23  -3   1  244.03   13.30
 -23  -3   1  249.56   14.35
 -22  -3   1   72.15    6.77
 -22  -3   1   71.97    6.01
  22   3  -1   68.40    5.73
 -21  -3   1  175.07   11.14
  21   3  -1  165.45   10.77
 -21  -3   1  175.61   11.91
 -20  -3   1  581.75   29.79
 -20  -3   1  613.89   30.92
  20   3  -1  596.87   29.60
 -19  -3   1   11.14    3.60
 -19  -3   1   13.84    3.60
  19   3  -1   10.02    3.23
 -18   3   1  632.18   32.60
  18   3  -1  637.24   32.62
 -18  -3   1  718.76   33.56
 -18  -3   1  643.63   33.78
  17   3  -1   52.90    6.14
 -17   3   1   66.90    6.47
 -17  -3   1   49.59    6.53
 -16   3   1  445.56   23.55
  16   3  -1  414.78   23.38
 -16  -3   1  450.21   24.63
 -15  -3   1  530.20   27.06
 -15   3   1  518.99   25.93
 -14   3   1   34.48    4.80
  14   3  -1   39.35    5.35
 -14  -3   1   44.04    5.77
 -13   3   1 1348.38   62.06
 -13  -3   1 1343.86   63.56
 -13   3   1 1357.09   62.80
  13   3  -1 1398.04   63.11
 -12   3   1  744.26   37.13
 -12   3   1  765.15   36.59
  12   3  -1  802.01   37.56
 -12  -3   1  721.13   37.49
 -11   3   1   48.14    5.17
 -11  -3   1   40.70    5.43
 -11   3   1   59.41    5.97
  11   3  -1   40.10    5.34
  10   3  -1  980.21   45.12
 -10  -3   1  961.89   45.39
 -10   3   1  941.63   44.43
 -10   3   1  913.17   44.89
  -9   3   1  158.52   11.22
   9   3  -1  178.23   11.29
  -9  -3   1  160.55   11.11
  -8  -3   1  640.81   32.93
   8   3  -1  716.55   33.31
  -7   3   1  720.40   33.16
  -7  -3   1  696.58   33.31
   7   3  -1  684.70   33.29
   7   3  -1  630.33   34.62
   6   3  -1    0.88    1.92
  -6   3   1   -0.80    1.85
  -6   3   1    3.22    1.94
   6   3  -1    3.50    2.55
  -5   3   1  981.07   45.77
   5   3  -1 1021.52   46.21
   5   3  -1  965.48   48.79
  -4   3   1  760.14   36.64
   4   3  -1  781.34   40.18
   4   3  -1  799.48   37.14
   3   3  -1   79.53    8.85
   3   3  -1   95.64    7.28
   2   3  -1  456.63   26.51
   1   3  -1   35.71    6.01
   0   3  -1 1269.69   61.83
  -1   3  -1 1411.66   67.95
  -2   3  -1  318.30   20.79
  -3   3  -1 2194.55  101.42
  -4   3  -1  615.08   33.69
  -4   3  -1  583.91   28.88
  -4   3  -1  613.89   29.50
  -5   3  -1  381.82   19.37
  -5   3  -1  365.17   19.57
  -5   3  -1  364.50   23.36
   6   3   1 1010.28   47.08
  -6   3  -1  982.69   47.24
  -6   3  -1 1072.88   47.19
  -7   3  -1  114.09    8.58
   7   3   1  109.82    8.23
  -7   3  -1  136.76    8.76
  -7  -3  -1  123.53    8.53
  -7   3  -1  121.10   11.51
  -8  -3  -1  380.56   19.60
   8   3   1  364.23   18.98
  -8   3  -1  353.27   18.96
  -8   3  -1  346.86   18.92
  -8   3  -1  338.19   18.77
  -9   3  -1 1683.45   76.18
  -9  -3  -1 1662.81   76.77
  -9   3  -1 1683.34   76.28
   9   3   1 1788.77   76.49
 -10   3  -1   78.65    6.83
 -10   3  -1   88.80    7.16
  10   3   1   75.19    6.73
 -10  -3  -1   80.61    7.29
 -11   3  -1  768.13   37.90
  11   3   1  802.66   37.84
 -11   3  -1  775.08   38.74
 -11  -3  -1  813.93   38.91
 -12   3  -1  613.25   31.33
 -12  -3  -1  628.55   32.37
  12   3   1  656.03   31.37
 -13   3  -1   57.12    6.03
  13   3   1   44.63    5.31
 -13  -3  -1   60.04    6.82
 -14   3  -1  362.94   19.71
 -14  -3  -1  405.85   21.36
 -15   3  -1   13.87    3.57
 -15  -3  -1   10.56    3.59
  15   3   1    9.14    2.63
  16   3   1  296.08   17.04
 -16  -3  -1  320.55   18.98
  17   3   1  597.57   30.01
 -17  -3  -1  632.99   32.25
  18   3   1   41.75    4.58
 -18   3  -1   31.63    4.85
 -18  -3  -1   32.18    5.43
 -19  -3  -1  555.28   27.75
 -19   3  -1  478.53   26.08
 -20  -3  -1  537.76   28.15
 -21  -3  -1   80.78    7.45
 -22  -3  -1  549.87   27.47
 -22  -3  -1  590.71   28.60
 -23  -3  -1   18.70    2.87
 -23  -3  -1   23.34    3.53
 -24  -3  -1  249.57   12.99
 -24  -3  -1  270.89   14.02
 -25  -3  -1  378.77   18.36
 -22  -4   1  278.54   13.34
 -22  -4   1  267.44   13.46
 -21  -4   1  164.65    9.43
 -21  -4   1  162.56    9.24
 -20  -4   1    8.96    2.45
 -19  -4   1  292.12   16.00
  18   4  -1    9.08    2.43
 -18  -4   1   12.62    3.19
 -18  -4   1   16.48    3.37
 -17  -4   1  403.92   21.24
 -17  -4   1  396.46   21.11
  17   4  -1  385.32   20.20
 -16  -4   1  635.24   30.13
 -16  -4   1  585.75   29.80
  16   4  -1  551.74   28.89
 -16   4   1  607.07   29.09
  15   4  -1   17.81    3.66
 -15  -4   1   15.85    3.81
 -15  -4   1   18.22    3.92
 -15   4   1   22.25    3.66
 -14  -4   1  633.40   30.19
 -14   4   1  572.45   28.84
  14   4  -1  528.89   28.85
 -14  -4   1  594.63   29.70
 -13  -4   1  285.33   16.77
 -13   4   1  260.79   15.94
  13   4  -1  280.10   16.54
 -13  -4   1  288.31   17.01
  12   4  -1  115.91    9.43
 -12  -4   1  108.27    9.08
 -12   4   1  119.19    9.24
 -12  -4   1  144.63   10.26
 -11   4   1  727.42   35.47
  11   4  -1  704.07   35.75
 -11  -4   1  695.92   35.37
 -11  -4   1  755.79   36.32
 -10   4   1   13.69    3.32
 -10  -4   1    8.20    3.33
  10   4  -1   13.39    4.00
 -10  -4   1   10.47    3.24
 -10   4   1   11.66    3.61
  -9   4   1  247.23   15.52
  -9   4   1  272.93   15.90
   9   4  -1  267.93   16.25
  -9  -4   1  265.61   16.13
  -9  -4   1  247.48   15.28
  -8  -4   1 1021.38   49.97
   8   4  -1 1162.92   51.56
  -8   4   1 1050.18   50.55
  -8   4   1 1103.96   50.69
  -8  -4   1 1070.32   50.94
  -7   4   1    1.05    2.34
  -7  -4   1   -1.62    2.74
  -7   4   1    0.51    2.65
   7   4  -1    0.58    2.74
  -6   4   1 1447.48   66.08
   6   4  -1 1454.47   66.57
  -6   4   1 1393.80   65.86
  -6  -4   1 1473.74   66.04
  -5  -4   1   82.71    7.32
  -5   4   1   83.19    7.58
   5   4  -1   85.77    7.88
   4   4  -1  785.81   38.74
  -4   4   1  802.04   38.31
  -4   4   1  777.29   38.28
  -4  -4   1  789.86   37.80
  -3   4   1  649.42   31.89
   3   4  -1  661.00   32.61
  -3  -4   1  639.53   31.22
  -3   4   1  612.69   31.84
   2   4  -1    7.11    2.59
  -2   4   1   11.46    3.20
   2   4  -1    8.42    3.64
  -2   4   1   13.00    3.72
   1   4  -1  641.88   32.15
  -1   4   1  658.76   31.69
   1   4  -1  609.73   30.84
  -1   4   1  637.18   31.86
   0   4  -1  559.63   29.80
   0   4   1  612.88   29.90
   0   4  -1  561.51   28.81
   0   4   1  612.72   29.61
  -1   4  -1   96.45    8.51
  -1   4  -1   94.83    7.77
   1   4   1   96.01    8.12
   2   4   1  674.12   34.61
  -2   4  -1  743.00   34.62
  -2   4  -1  700.56   35.20
   3   4   1   93.27    8.08
  -3   4  -1  101.79    8.06
  -4   4  -1  987.18   46.87
   4   4   1 1012.54   47.24
  -5   4  -1 1225.32   56.43
  -5  -4  -1 1163.20   56.09
   5   4   1 1291.24   56.86
   6   4   1   -2.54    2.89
  -6   4  -1    1.47    2.60
  -6  -4  -1    1.51    2.20
  -7   4  -1  876.81   43.42
   7   4   1  968.24   44.01
   8   4   1 1542.69   70.07
   9   4   1   72.73    6.82
  -9   4  -1   85.95    7.91
  10   4   1  528.42   27.05
 -10   4  -1  540.41   28.25
  11   4   1   51.66    5.47
 -11   4  -1   52.15    6.20
 -11  -4  -1   45.78    5.21
 -12  -4  -1  242.77   14.76
 -12   4  -1  267.49   15.92
  12   4   1  239.75   14.47
 -13  -4  -1  668.42   34.72
  13   4   1  719.03   34.21
 -13   4  -1  766.40   35.91
 -14  -4  -1  106.65    8.73
 -14  -4  -1  134.67    9.96
 -14   4  -1  117.77    9.25
 -15  -4  -1 1006.50   44.68
 -15  -4  -1  880.43   43.60
 -15   4  -1  898.04   43.62
 -16  -4  -1  378.06   20.19
 -16   4  -1  345.90   19.41
 -16  -4  -1  370.99   19.90
 -17   4  -1  110.44    8.10
 -17  -4  -1  118.54    8.66
 -17  -4  -1  106.73    8.27
 -18  -4  -1  732.16   35.02
 -18   4  -1  703.93   34.59
 -18  -4  -1  791.76   35.52
 -19  -4  -1   73.71    5.95
 -19  -4  -1   72.87    5.86
 -20  -4  -1  274.27   14.33
 -20  -4  -1  276.14   14.44
 -21  -4  -1  342.65   16.64
 -22  -4  -1   -0.49    0.93
 -16  -5   1   27.37    2.63
 -15  -5   1  322.67   15.74
 -14  -5   1  112.20    7.01
 -13  -5   1  453.88   21.86
 -12  -5   1  636.77   29.61
  12   5  -1  629.93   29.34
  11   5  -1    3.04    1.92
 -11  -5   1    2.73    1.66
  10   5  -1  371.78   19.82
 -10  -5   1  418.97   19.84
   9   5  -1  254.93   14.74
  -9  -5   1  285.15   14.51
  -8  -5   1   18.68    2.78
   8   5  -1   16.65    3.38
  -7  -5   1  239.42   13.36
   7   5  -1  277.94   14.93
   6   5  -1   17.03    3.50
  -5   5   1  353.57   18.73
   5   5  -1  359.44   19.30
  -4   5   1  146.44    9.67
   4   5  -1  144.75   10.07
   3   5  -1   11.50    3.56
  -3   5   1   16.16    3.26
   2   5  -1  598.87   29.65
  -2   5   1  594.31   29.04
   1   5  -1  721.27   33.36
  -1   5   1  641.22   32.27
   0   5  -1  338.45   17.56
   0   5   1  280.30   16.27
  -1   5  -1  929.67   40.05
   1   5   1  765.88   38.44
   2   5   1   21.17    3.88
   2   5   1   28.60    3.65
   3   5   1  627.29   30.64
   3   5   1  689.80   31.61
   4   5   1  311.80   16.94
  -4   5  -1  328.76   17.64
   5   5   1   46.00    4.65
  -5   5  -1   48.61    5.17
   6   5   1  365.29   19.66
  -6   5  -1  429.08   20.78
  -7   5  -1  137.24    9.24
  -8   5  -1  402.99   20.64
  -9  -5  -1  412.42   20.45
  -9   5  -1  435.58   21.34
 -10  -5  -1   13.54    2.38
 -10   5  -1   24.32    3.37
 -11   5  -1  296.62   14.61
 -11  -5  -1  256.90   14.14
 -12   5  -1  252.13   12.93
 -12  -5  -1  239.11   12.90
 -13  -5  -1   20.70    2.66
 -13   5  -1   19.27    2.50
 -14   5  -1  450.95   22.19
 -14  -5  -1  523.62   22.73
 -15  -5  -1   -0.71    0.96
 -30   0   2  121.59    8.16
 -30   0   2  268.38    9.86
 -29   0   2   18.86    2.86
 -29   0   2   16.48    2.52
 -28   0   2  277.52   15.33
 -27   0   2  103.44    8.20
 -26   0   2  349.12   19.71
 -25   0   2 1571.46   72.39
 -24   0   2  396.72   22.66
 -23   0   2  183.28   12.93
  23   0  -2  140.04   19.13
  22   0  -2 1740.48  100.37
 -22   0   2 1941.30   86.74
 -21   0   2    0.67    3.43
  21   0  -2    7.04    6.41
 -20   0   2  402.07   22.43
  20   0  -2  346.48   31.29
 -19   0   2  969.91   45.58
  19   0  -2  825.32   55.93
 -18   0   2   26.29    4.45
  18   0  -2   32.70    9.00
 -18   0   2   18.03    6.43
 -17   0   2 1031.98   47.77
  17   0  -2  887.87   55.98
 -17   0   2 1047.22   56.81
 -16   0   2  369.03   20.46
  16   0  -2  369.37   27.87
 -16   0   2  417.78   27.79
 -15   0   2  953.17   49.04
  15   0  -2  785.48   48.22
  14   0  -2 2676.90  131.20
 -14   0   2 2946.03  130.65
 -13   0   2   85.97   10.11
  13   0  -2   73.51   10.44
 -12   0   2 1760.30   81.35
  12   0  -2 1633.55   81.76
 -11   0   2  131.69    8.48
 -11   0   2  147.13   12.22
 -10   0   2   12.96    4.16
 -10   0   2   15.50    2.74
  -9   0   2 3347.33  148.23
  -8   0   2  278.71   17.01
  -8   0   2  274.96   16.77
  -7   0   2  670.64   33.90
  -7   0   2  709.35   34.11
  -6   0   2  678.98   32.97
  -5   0   2  889.07   41.46
  -4   0   2 3613.33  156.10
  -3   0   2  922.78   42.09
  -2   0   2   80.87    5.98
  -1   0   2   10.82    2.25
   0   0   2 9049.56  384.40
   1   0   2  123.90    7.91
   2   0   2 2972.57  128.84
   3   0   2 2824.46  123.35
   4   0   2  677.35   33.13
   5   0   2 2701.28  119.38
   6   0   2 1813.76   82.65
   7   0   2 2694.84  120.79
   8   0   2  233.97   17.83
  -8   0  -2  260.60   11.86
   9   0   2 4490.38  198.54
  10   0   2  842.60   45.02
  11   0   2 1717.68   83.23
  12   0   2 5225.43  232.90
  13   0   2 1445.37   74.20
  14   0   2 1564.79   80.23
  15   0   2 1378.20   74.05
 -15   0  -2 1398.31   63.81
  16   0   2  235.70   21.69
 -16   0  -2  216.64   13.88
  17   0   2 1427.74   82.25
 -17   0  -2 1575.83   70.79
  18   0   2  463.27   35.99
 -18   0  -2  449.77   34.65
 -18   0  -2  541.35   27.28
 -19   0  -2   56.90   10.78
  19   0   2   74.94   13.28
 -19   0  -2   74.69    7.51
  20   0   2 1311.39   76.23
 -20   0  -2 1364.92   63.31
 -20   0  -2 1328.87   73.89
 -21   0  -2 2389.82  113.04
  21   0   2 2041.79  113.22
 -21   0  -2 2232.84  100.62
 -22   0  -2 2674.07  138.57
 -22   0  -2 2936.77  128.23
  22   0   2 2723.69  141.73
 -22   0  -2 2935.25  126.67
 -23   0  -2 1153.93   53.25
 -24   0  -2  223.26   14.27
 -24   0  -2  206.83   12.53
 -25   0  -2  760.13   37.26
 -26   0  -2  472.40   24.32
 -27   0  -2  309.28   16.66
 -28   0  -2  390.70   19.47
 -29   0  -2  161.28    8.89
 -29   1   2  249.20   12.17
 -29  -1   2  219.06   11.90
 -28   1   2  140.52    8.95
 -28  -1   2  150.99    9.07
 -27   1   2   95.79    7.24
 -27  -1   2  120.79    8.27
 -27   1   2  115.85    8.25
 -26  -1   2  588.49   29.67
 -26   1   2  599.46   29.78
 -25  -1   2   20.93    4.15
 -25  -1   2   20.71    3.28
 -25   1   2   17.72    4.18
 -24  -1   2  865.18   40.83
 -24  -1   2  794.47   39.22
 -24   1   2  830.91   40.59
 -23  -1   2  519.71   27.53
 -23  -1   2  480.55   26.23
 -23   1   2  552.85   27.89
 -22  -1   2  216.49   14.29
 -22   1   2  210.56   14.33
 -22  -1   2  217.65   13.73
  22   1  -2  186.06   21.49
  22  -1  -2  202.92   22.90
 -21  -1   2 1027.95   49.03
 -21   1   2 1029.73   49.11
 -21  -1   2 1068.91   48.59
  21  -1  -2  985.66   62.04
  20   1  -2  647.12   46.17
  20  -1  -2  602.89   45.91
 -20  -1   2  707.88   35.95
 -20   1   2  699.99   35.93
 -20  -1   2  779.05   35.72
 -19  -1   2  214.61   13.43
 -19  -1   2  199.33   12.11
 -19  -1   2  203.38   13.64
 -19   1   2  208.92   13.77
  19   1  -2  197.06   21.10
  19  -1  -2  210.37   22.06
  18   1  -2 1561.59   84.72
 -18   1   2 1624.91   73.65
 -18  -1   2 1599.87   73.49
 -18  -1   2 1621.33   73.27
  18  -1  -2 1610.24   85.78
  17  -1  -2    8.97    5.90
 -17  -1   2    4.81    2.49
  17   1  -2    6.95    5.49
 -17  -1   2    7.04    2.72
 -17   1   2    5.38    2.74
 -16  -1   2 1396.78   63.93
  16   1  -2 1385.32   73.29
  16  -1  -2 1342.88   73.35
 -16   1   2 1425.06   64.19
 -16  -1   2 1411.26   64.08
 -15   1   2  710.09   40.23
 -15  -1   2  669.91   32.80
 -15  -1   2  721.35   40.31
  15   1  -2  593.32   39.27
 -15   1   2  675.34   32.89
  15  -1  -2  623.58   40.13
 -15  -1   2  696.21   32.88
 -14  -1   2   34.78    7.09
  14   1  -2   36.27    7.71
 -14   1   2   42.58    7.46
  14  -1  -2   29.28    7.33
  13  -1  -2 2052.82  102.18
  13   1  -2 2108.79  102.18
 -13   1   2 2181.40  101.40
 -13  -1   2 2272.13  101.80
  12   1  -2   23.74    6.00
 -12   1   2   31.04    5.89
 -12  -1   2   23.78    5.24
  12  -1  -2   23.23    5.97
 -11  -1   2  122.09   11.71
  11   1  -2  128.25   12.39
 -11   1   2  160.85   12.72
  11  -1  -2  137.34   12.79
 -10  -1   2    1.52    3.03
 -10   1   2    7.75    3.68
  10   1  -2    9.42    3.99
 -10   1   2    8.49    2.26
 -10  -1   2    4.76    1.99
  10  -1  -2   13.15    4.53
  -9  -1   2    0.67    2.89
  -9   1   2    4.78    2.86
  -7  -1   2  636.34   31.96
  -7   1   2  640.18   31.74
  -6   1   2   19.70    3.69
  -6  -1   2   18.69    3.69
  -5   1   2 9889.97  416.63
  -5  -1   2 9667.20  416.60
  -4  -1   2 6357.83  272.37
  -4   1   2 6383.59  272.38
  -3  -1   2 5789.61  245.89
  -3   1   2 5715.00  245.85
  -2  -1   2   20.32    2.89
  -2   1   2   18.45    2.79
  -1  -1   2   56.91    4.55
  -1   1   2   50.51    4.43
   0   1  -2 3118.16  133.79
   0   1   2 3250.20  134.03
   0  -1   2 3012.52  133.75
   0  -1  -2 3073.90  133.80
  -1  -1  -2  467.08   22.59
  -1   1  -2  476.62   22.67
   1  -1   2  472.13   22.58
   1   1   2  476.91   22.67
   2  -1   2  754.34   36.71
   2   1   2  839.97   37.00
   3   1   2 1104.95   49.12
   3  -1   2 1038.68   48.96
   4  -1   2  336.11   18.81
   4   1   2  357.77   18.93
   5   1   2 2182.89   99.07
   5  -1   2 2265.10   99.20
   6   1   2  232.85   14.92
   6  -1   2  220.40   14.77
   7   1   2  217.40   14.94
   7  -1   2  212.43   14.98
   8  -1   2 2501.98  116.65
  -8   1  -2 2645.45  112.74
   8   1   2 2531.98  117.39
  -9   1  -2  238.20   13.41
   9   1   2  211.60   16.76
  10  -1   2  215.81   16.58
  10   1   2  221.79   16.74
 -10   1  -2  197.39   11.79
 -11   1  -2 1999.93   88.17
  11   1   2 2052.60   95.97
  11  -1   2 1982.50   95.63
  12  -1   2   96.46   11.70
  12   1   2  106.68   12.01
  13   1   2 2442.17  116.84
  13  -1   2 2470.33  117.00
  14   1   2  834.52   50.16
 -14  -1  -2  856.32   41.28
 -14   1  -2  842.73   41.22
  14  -1   2  819.66   49.58
 -14   1  -2  897.06   41.48
 -14   1  -2  919.85   40.97
 -15   1  -2   78.88    7.00
  15  -1   2   82.38   11.90
 -15  -1  -2   80.04    7.04
  15   1   2   69.47   11.46
 -15   1  -2   73.40    6.87
 -15   1  -2   80.91    6.56
  16  -1   2 2860.77  143.42
 -16   1  -2 2956.13  132.13
 -16  -1  -2 2927.03  132.14
 -16   1  -2 3086.06  132.37
 -16   1  -2 3127.45  131.49
  16   1   2 2880.35  143.44
 -17   1  -2  382.78   20.07
 -17   1  -2  407.32   29.22
  17  -1   2  359.91   29.18
 -17   1  -2  351.13   20.49
 -17  -1  -2  379.56   20.89
  17   1   2  347.53   28.86
 -17  -1  -2  343.22   27.91
 -17   1  -2  372.25   20.70
 -18  -1  -2  706.28   34.26
  18  -1   2  718.68   45.50
 -18   1  -2  652.21   33.97
 -18  -1  -2  686.51   43.11
 -18   1  -2  665.27   43.27
  18   1   2  607.56   43.36
 -19  -1  -2  199.61   13.52
 -19   1  -2  201.10   13.58
  19  -1   2  211.88   21.93
 -19  -1  -2  192.71   19.52
  19   1   2  182.93   20.57
 -19   1  -2  179.81   19.54
 -20   1  -2   11.35    3.53
  20   1   2   25.12    7.64
  20  -1   2   14.87    6.44
 -20   1  -2   12.95    5.08
 -20  -1  -2    1.82    4.70
 -20  -1  -2   18.21    3.99
  21   1   2  473.27   35.46
 -21   1  -2  478.86   25.52
 -21  -1  -2  456.12   25.40
 -21  -1  -2  489.02   25.38
  21  -1   2  397.11   33.55
 -21  -1  -2  416.84   32.29
 -21   1  -2  466.86   33.77
 -22  -1  -2  148.21   10.88
 -23  -1  -2  322.72   17.81
 -23  -1  -2  297.59   17.82
 -23   1  -2  283.18   17.59
 -24  -1  -2  506.79   26.81
 -24   1  -2  533.34   27.03
 -24  -1  -2  515.38   26.43
 -25   1  -2  308.95   17.32
 -25  -1  -2  286.59   16.59
 -25  -1  -2  333.90   17.60
 -26  -1  -2  203.69   11.74
 -26  -1  -2  207.06   12.39
 -26   1  -2  211.12   12.39
 -27  -1  -2  928.67   43.35
 -27  -1  -2  931.02   42.52
 -27   1  -2 1005.17   43.54
 -28  -1  -2   32.84    3.20
 -28   1  -2   27.38    3.05
 -28  -2   2   74.09    4.76
 -27  -2   2   59.81    4.40
 -26  -2   2   17.66    2.85
  26   2  -2   20.55    2.87
 -25  -2   2  483.85   23.80
 -25  -2   2  493.69   24.40
 -24   2   2   19.30    3.29
 -24  -2   2   23.55    3.71
 -24  -2   2   29.33    3.74
 -23  -2   2   59.86    5.48
 -23   2   2   70.47    6.48
 -23  -2   2   73.96    7.01
 -22  -2   2  477.26   23.98
 -22  -2   2  476.10   25.32
 -22   2   2  480.60   24.51
 -22  -2   2  451.68   24.47
 -21  -2   2    6.01    2.47
 -21  -2   2    4.21    2.69
 -21   2   2    6.56    2.50
 -21  -2   2    7.81    3.39
 -21   2   2    7.17    2.70
 -20  -2   2  768.02   38.41
 -20  -2   2  809.04   37.40
 -20   2   2  743.11   37.35
  20   2  -2  684.35   46.32
 -20  -2   2  793.99   37.72
 -20   2   2  752.66   36.85
  19   2  -2  275.00   25.07
 -19  -2   2  304.60   17.46
 -19   2   2  322.20   17.81
 -19  -2   2  303.62   17.64
 -19  -2   2  326.14   18.73
 -19   2   2  285.36   16.93
 -18  -2   2  126.06    9.69
 -18  -2   2  107.10    8.52
 -18   2   2  102.55    8.39
 -18  -2   2  100.75    8.49
  18   2  -2   89.89   13.13
  18  -2  -2   88.85   13.03
 -17  -2   2 1337.55   60.91
  17  -2  -2 1247.19   70.74
  17   2  -2 1290.50   71.14
 -17   2   2 1350.13   61.13
 -17   2   2 1318.99   60.85
 -16   2   2   84.17    7.16
 -16  -2   2   77.73    7.03
  16   2  -2  106.45   13.15
 -16   2   2   84.69    7.39
  16  -2  -2   88.69   12.03
 -15   2   2  211.73   13.37
 -15   2   2  241.94   13.86
  15  -2  -2  217.43   19.56
  15   2  -2  234.16   20.24
 -14   2   2  771.98   36.53
 -14   2   2  800.00   37.50
  14  -2  -2  729.40   44.50
  14   2  -2  835.88   46.12
 -13  -2   2  109.45    8.41
  13   2  -2  115.62   12.67
 -13   2   2  108.51    8.00
 -13   2   2   96.94    7.26
  13  -2  -2  110.18   12.47
  12  -2  -2 1386.92   71.96
 -12   2   2 1569.97   66.26
  12   2  -2 1387.61   72.08
 -12  -2   2 1429.70   66.62
  11   2  -2  634.75   34.93
  11  -2  -2  579.78   34.16
  10  -2  -2  582.46   33.69
  10   2  -2  664.96   34.75
   9  -2  -2 6759.67  262.18
   9   2  -2 5397.63  260.55
   8   2  -2   27.09    4.96
   8  -2  -2   28.30    4.68
   7   2  -2 1332.69   64.20
   7  -2  -2 1443.18   64.51
   6  -2  -2  547.17   28.33
   6   2  -2  572.47   28.52
   5  -2  -2    0.84    1.68
   5   2  -2    1.27    1.81
   4   2  -2 2027.27   92.76
   4  -2  -2 2226.15   93.08
   3  -2  -2  498.94   22.92
   3   2  -2  484.61   22.90
   2   2  -2   20.01    2.09
  -1   2   2 3198.06  136.15
   0   2   2  504.36   22.48
   1   2   2 1316.76   57.17
   2   2   2  370.38   17.78
   3  -2   2   13.98    2.17
   3   2   2   17.10    2.47
   4   2   2 1548.41   68.37
   4  -2   2 1526.39   68.12
   5   2   2  633.23   31.33
   5  -2   2  627.28   31.51
  -5   2  -2  687.96   33.31
   6   2   2 1021.62   48.75
  -6   2  -2 1054.62   49.76
   6  -2   2 1033.70   49.01
  -7   2  -2  955.43   45.10
   7  -2   2  895.77   44.76
   7   2   2  902.95   44.62
  -8   2  -2  147.03   11.07
   8  -2   2  125.82   11.01
   8   2   2  148.81   11.70
   9   2   2  502.42   27.82
  -9   2  -2  483.28   25.98
   9  -2   2  431.56   26.89
  10   2   2  821.70   44.30
  10  -2   2  852.56   44.67
 -10   2  -2  848.14   41.91
  11   2   2  168.81   14.86
 -11   2  -2  173.22   12.44
 -11   2  -2  162.17   10.84
  11  -2   2  170.67   14.98
 -12   2  -2  430.08   22.21
 -12   2  -2  428.44   22.03
  12  -2   2  383.00   26.81
 -12   2  -2  365.31   25.78
 -12  -2  -2  457.14   27.30
  12   2   2  401.44   27.11
  13  -2   2  140.67   14.51
 -13   2  -2  154.33   10.35
  13   2   2  145.32   14.71
 -13  -2  -2  145.76   14.04
 -13   2  -2  118.29   13.00
 -13   2  -2  149.65   10.44
  14  -2   2   86.65   11.57
  14   2   2  109.41   12.90
 -14   2  -2   94.25    8.02
 -14   2  -2   80.12    7.56
 -14  -2  -2  118.17   12.41
 -14   2  -2   84.24   11.03
 -14   2  -2  102.30    7.54
 -15   2  -2   61.12    5.97
 -15   2  -2   63.63    6.48
  15   2   2   74.60   11.17
 -15   2  -2   63.36    6.57
 -15  -2  -2   63.86    9.74
  15  -2   2   70.87   10.41
 -15   2  -2   72.83   10.16
 -16  -2  -2  107.10   12.91
 -16   2  -2  116.07    9.29
 -16   2  -2   92.34    8.26
 -16  -2  -2  113.25    8.63
 -16   2  -2   99.14   12.51
  16   2   2  139.35   15.22
  16  -2   2   93.27   13.07
 -16   2  -2  117.44    8.58
  17   2   2   47.15    9.61
 -17  -2  -2   59.32    6.90
 -17   2  -2   47.51    5.45
  17  -2   2   31.21    7.97
 -17   2  -2   49.93    5.86
 -17  -2  -2   43.15    5.21
 -17   2  -2   35.74    7.68
 -17  -2  -2   47.30    8.31
 -17   2  -2   43.31    5.68
 -18  -2  -2  247.91   16.23
 -18   2  -2  226.58   20.43
 -18   2  -2  266.56   15.50
  18   2   2  228.12   21.77
  19   2   2  110.38   15.25
 -19   2  -2  112.80   14.04
 -19   2  -2  138.08   10.07
 -19   2  -2  154.19   10.50
 -19  -2  -2  159.38   11.62
 -20  -2  -2  196.10   12.70
 -20   2  -2  192.14   12.47
 -21  -2  -2   90.14    7.60
 -21   2  -2   89.50    7.46
 -22   2  -2  204.25   12.19
 -22  -2  -2  183.71   11.98
 -23  -2  -2   90.44    7.00
 -23   2  -2   87.20    6.72
 -24  -2  -2   17.86    3.40
 -24  -2  -2   10.97    2.38
 -25  -2  -2  138.17    8.45
 -25  -2  -2  154.09    9.53
 -26  -2  -2  106.84    7.04
 -27  -2  -2  303.23   14.79
 -26  -3   2   89.32    5.37
 -25  -3   2    0.26    1.55
  24   3  -2   23.26    2.76
 -24  -3   2   28.58    2.83
  23   3  -2   78.36    6.12
 -23  -3   2   90.44    6.18
  22   3  -2   10.75    2.75
 -22  -3   2   11.32    2.45
 -21  -3   2  264.64   15.83
  21   3  -2  246.36   14.82
 -21  -3   2  269.08   15.01
  20   3  -2   71.77    6.80
 -20  -3   2   64.59    7.15
  19   3  -2   53.34    6.04
 -19  -3   2   63.22    6.35
 -19  -3   2   54.85    6.49
 -18  -3   2   13.19    3.65
  18   3  -2   18.23    4.09
 -18  -3   2   23.58    4.56
 -17  -3   2    5.14    3.21
 -17   3   2    4.13    2.90
  17   3  -2    4.21    3.15
 -17  -3   2    3.27    2.74
 -16   3   2    2.08    2.56
  16   3  -2   11.93    3.67
 -16  -3   2    6.61    3.25
 -15   3   2   35.20    4.70
 -15  -3   2   27.04    4.88
  15   3  -2   32.80    5.12
 -14  -3   2  649.95   35.37
 -14   3   2  697.48   34.00
 -14   3   2  755.51   34.90
  14   3  -2  690.66   35.57
 -13   3   2  234.60   14.47
 -13  -3   2  229.50   15.25
  13   3  -2  253.91   15.54
 -13  -3   2  226.84   14.81
 -13   3   2  239.29   14.27
 -12   3   2    3.75    2.49
 -12  -3   2    0.61    2.66
  12   3  -2    0.58    2.43
 -12   3   2    2.00    2.18
 -12  -3   2    2.27    2.58
 -11   3   2  152.92   10.29
  11   3  -2  158.90   11.00
 -11  -3   2  146.77   10.71
 -11   3   2  150.86   10.41
 -11  -3   2  141.81   10.81
 -10  -3   2  970.37   46.83
 -10  -3   2  954.25   46.49
  10   3  -2  911.02   46.22
 -10   3   2  989.45   46.17
 -10   3   2 1092.44   46.38
  -9   3   2   44.03    5.00
  -9  -3   2   38.04    4.86
  -9  -3   2   45.44    5.34
  -9   3   2   37.24    4.61
   9   3  -2   45.74    5.23
  -8  -3   2  425.79   23.09
   8   3  -2  460.05   23.21
  -8  -3   2  480.12   23.48
  -8   3   2  413.93   22.57
   8   3  -2  431.39   24.81
   7   3  -2   75.16    8.08
  -7  -3   2   74.55    6.74
   7   3  -2   74.97    6.73
  -7  -3   2   76.05    6.67
  -7   3   2   83.82    6.62
  -6  -3   2   90.35    7.02
   6   3  -2   79.45    8.42
  -6  -3   2   84.13    6.83
   6   3  -2   75.41    6.73
  -5   3   2  326.55   17.92
  -5  -3   2  352.87   18.44
   5   3  -2  373.31   22.01
  -4  -3   2   -0.39    1.75
   4   3  -2   -0.86    3.03
  -4   3   2    3.40    2.26
   3   3  -2  492.00   28.49
  -2   3   2  157.54    9.88
   2   3  -2  145.56   12.69
   1   3  -2    8.99    3.96
  -1   3   2   13.17    2.83
   1   3  -2   14.70    3.02
   0   3  -2 1771.88   85.85
   0   3  -2 1863.66   81.58
   0   3   2 1825.47   81.07
   1   3   2   13.23    2.78
  -1   3  -2   18.33    4.99
  -1   3  -2   18.30    3.22
  -2   3  -2  196.90   11.66
   2   3   2  181.22   11.17
  -2   3  -2  168.78   14.37
  -3   3  -2    6.56    3.63
  -3   3  -2    8.14    2.41
   3   3   2    3.55    2.17
  -3   3  -2    2.55    2.03
   4   3   2  757.11   35.26
  -4   3  -2  722.34   39.95
  -4   3  -2  741.53   35.41
  -4   3  -2  733.08   34.94
   5   3   2  607.80   28.86
  -5   3  -2  597.48   29.11
  -5   3  -2  566.94   28.56
   6   3   2  106.40    7.78
  -6   3  -2  104.29    7.96
  -6   3  -2  101.53    7.88
  -6   3  -2  111.97    7.95
  -7   3  -2   99.57    7.61
  -7   3  -2  101.57   10.80
   7   3   2  113.60    7.84
  -7   3  -2   96.27    7.75
   7   3   2   99.46    7.41
  -7   3  -2  109.46    8.00
  -8   3  -2  805.20   39.30
  -8  -3  -2  811.76   39.44
   8   3   2  865.85   38.92
  -8   3  -2  834.70   39.53
  -8   3  -2  812.49   44.26
  -9   3  -2  436.91   26.45
  -9  -3  -2  394.39   22.01
  -9   3  -2  428.13   22.20
 -10  -3  -2  516.96   27.26
 -10   3  -2  542.87   27.31
 -11  -3  -2  283.10   17.10
 -11   3  -2  298.96   17.06
 -12  -3  -2  504.61   28.06
 -12   3  -2  542.36   28.33
 -12   3  -2  567.52   28.16
 -13   3  -2    0.56    2.64
 -13  -3  -2    4.39    2.86
 -13   3  -2    2.41    2.69
 -14  -3  -2   31.74    4.70
 -14   3  -2   25.90    4.63
 -14   3  -2   29.94    4.74
 -15  -3  -2    1.98    2.95
 -15   3  -2    0.59    2.76
 -15   3  -2   -0.57    2.58
 -16  -3  -2   49.74    6.08
 -16   3  -2   33.06    5.21
 -16   3  -2   41.90    5.65
 -17   3  -2   13.68    3.90
 -17  -3  -2   12.42    3.95
 -18  -3  -2  310.50   18.67
 -18   3  -2  310.26   17.79
 -19  -3  -2  148.83   11.18
 -19   3  -2  150.40   10.52
 -20   3  -2    7.98    2.94
 -20  -3  -2    0.54    2.96
 -21  -3  -2   99.00    8.12
 -22  -3  -2   14.94    2.82
 -22  -3  -2   10.62    3.05
 -23  -3  -2   -1.97    1.74
 -23  -3  -2   -0.71    1.98
 -24  -3  -2   61.36    4.88
 -24  -3  -2   57.91    4.22
 -25  -3  -2   47.85    3.72
 -22  -4   2   13.45    1.77
 -22  -4   2   13.38    1.97
 -21  -4   2   40.48    3.81
 -21  -4   2   37.74    3.54
 -20  -4   2   15.57    2.82
  20   4  -2   12.08    2.23
  19   4  -2    7.27    2.26
 -19  -4   2    6.93    2.40
  18   4  -2   10.53    2.62
 -18  -4   2   10.39    2.90
 -18  -4   2   10.20    2.84
 -17  -4   2    3.18    2.15
  17   4  -2    0.83    2.14
 -17  -4   2    5.21    2.59
 -16  -4   2    7.62    3.05
  16   4  -2    6.96    2.72
 -16  -4   2    7.41    3.03
 -15  -4   2    5.35    2.54
  15   4  -2    4.08    2.79
 -15   4   2    3.53    2.21
 -15  -4   2    2.64    2.68
 -14  -4   2    4.97    2.81
  14   4  -2    5.50    3.10
 -14   4   2    4.11    2.26
 -14  -4   2    4.98    3.15
  13   4  -2    1.75    2.87
 -13  -4   2    1.72    2.91
 -13   4   2    0.42    2.01
 -13  -4   2   -1.12    2.51
 -12  -4   2   19.82    4.19
 -12  -4   2   24.80    4.43
  12   4  -2   29.26    5.12
 -12   4   2   30.58    4.07
 -12   4   2   26.07    4.36
 -11  -4   2   21.15    4.30
 -11  -4   2   24.56    4.19
  11   4  -2   21.58    4.64
 -11   4   2   25.43    3.85
 -10  -4   2   10.56    3.19
 -10   4   2    7.70    2.47
  10   4  -2   11.52    3.73
 -10  -4   2    9.84    2.89
  -9  -4   2   46.62    5.59
   9   4  -2   51.47    6.35
  -9   4   2   57.02    6.20
  -9  -4   2   53.15    6.11
  -9   4   2   55.99    5.58
   8   4  -2   53.35    6.41
  -8   4   2   59.06    5.90
  -8  -4   2   57.06    5.94
  -8  -4   2   59.90    6.55
  -8   4   2   71.46    6.79
  -7  -4   2  156.46   10.72
   7   4  -2  146.45   10.86
  -7  -4   2  140.57    9.90
  -7   4   2  120.72    9.34
  -7   4   2  137.59   10.21
   6   4  -2    0.58    2.76
  -6  -4   2    2.10    2.58
  -6   4   2    3.96    2.12
  -6   4   2    1.04    2.33
   5   4  -2  207.42   13.96
  -5   4   2  205.77   13.65
  -5  -4   2  243.31   13.95
  -4   4   2    5.19    2.93
   4   4  -2    5.73    3.14
  -4  -4   2    5.26    2.51
  -3   4   2   34.46    4.84
  -3   4   2   40.41    5.08
  -3  -4   2   45.15    5.01
  -2   4   2    0.48    2.51
   2   4  -2    3.50    3.53
  -1   4   2   19.61    3.83
   1   4  -2    9.54    4.65
   0   4  -2    3.36    2.14
   0   4   2    4.27    2.29
   0   4  -2   -1.21    2.70
  -1   4  -2   68.29    9.65
   1   4   2   80.18    7.00
  -1   4  -2   76.78    6.58
   2   4   2    2.34    2.30
  -2   4  -2    0.57    2.96
  -2   4  -2    2.22    2.33
  -3   4  -2   11.97    4.11
   3   4   2    8.38    2.97
  -4   4  -2  140.97   10.64
   4   4   2  144.91   10.02
  -5   4  -2    1.68    2.93
   5   4   2   -0.46    2.12
   6   4   2  207.74   12.93
  -6   4  -2  220.55   13.94
   7   4   2   24.69    3.76
   8   4   2  125.58    8.91
   9   4   2   10.37    2.73
 -10   4  -2  197.22   13.60
 -11   4  -2    1.21    3.22
 -12  -4  -2   44.50    5.13
 -12   4  -2   46.66    5.89
 -13   4  -2   35.59    5.17
 -13  -4  -2   21.61    3.95
 -14  -4  -2   99.28    7.95
 -15  -4  -2  100.13    7.96
 -16  -4  -2   20.64    3.64
 -17  -4  -2    6.50    2.67
 -17  -4  -2    8.62    2.47
 -18  -4  -2   22.05    3.48
 -18  -4  -2   20.44    3.12
 -19  -4  -2   55.30    4.84
 -19  -4  -2   77.82    5.70
 -20  -4  -2   16.72    2.27
 -20  -4  -2   18.89    2.66
 -21  -4  -2    6.07    1.31
 -16  -5   2   47.75    3.53
 -15  -5   2   -0.42    1.26
  14   5  -2   29.71    2.98
 -14  -5   2   35.59    3.42
  13   5  -2    2.03    1.60
 -13  -5   2   -0.54    1.34
 -12  -5   2    0.29    1.74
  12   5  -2    2.08    1.69
 -11  -5   2   15.12    2.60
  11   5  -2   14.21    2.86
 -10  -5   2   68.74    5.33
  10   5  -2   59.61    5.61
  -9  -5   2   39.33    4.08
   9   5  -2   43.05    4.82
  -8  -5   2   10.31    2.19
   8   5  -2    7.79    2.76
  -7  -5   2   58.45    4.81
  -7   5   2   55.79    5.37
   7   5  -2   52.48    5.61
   6   5  -2   19.22    3.69
  -6   5   2   14.37    3.04
  -5   5   2    1.99    2.08
   5   5  -2    1.80    2.22
  -4   5   2    2.02    2.36
   4   5  -2    3.63    2.62
  -3   5   2    6.46    2.98
   3   5  -2    3.66    2.58
   2   5  -2  437.28   22.93
  -2   5   2  441.82   22.52
  -1   5   2  119.04    8.64
   1   5  -2  131.83    9.41
   0   5   2  140.73    9.46
   1   5   2   18.90    3.20
   2   5   2    1.81    2.24
   3   5   2    0.68    1.83
   4   5   2   16.51    2.69
  -5   5  -2    0.44    2.24
  -6   5  -2    2.13    2.09
  -7   5  -2   22.08    3.52
  -8   5  -2   10.50    2.80
  -9   5  -2   77.22    6.23
 -10   5  -2    3.01    2.06
 -10  -5  -2    5.25    1.60
 -11   5  -2   36.81    3.81
 -11  -5  -2   30.18    3.35
 -12   5  -2    0.27    1.46
 -12  -5  -2    0.25    1.41
 -13   5  -2   12.93    2.12
 -13  -5  -2   11.23    1.96
 -14  -5  -2   37.92    3.26
 -14   5  -2   50.64    3.69
 -30   0   3   -0.39    1.17
 -30   0   3    0.66    0.86
 -29   0   3    0.29    1.69
 -29   0   3    0.26    1.50
 -28   0   3   -1.14    2.14
 -28   0   3    1.05    1.53
 -27   0   3    0.93    2.28
 -26   0   3    0.54    2.36
 -26   0   3    1.06    2.51
 -25   0   3   -0.59    2.90
 -24   0   3    0.64    3.02
 -23   0   3   -3.33    3.10
  23   0  -3   -2.39    6.16
  22   0  -3   -2.41    5.38
 -22   0   3    0.68    2.91
 -21   0   3    0.68    3.26
  21   0  -3   -2.35    6.07
 -20   0   3    0.66    3.00
  20   0  -3   -6.73    7.08
  19   0  -3   -2.10    5.73
 -19   0   3   -0.63    3.10
 -18   0   3    0.60    2.25
  18   0  -3    5.85    6.16
 -17   0   3    2.81    2.51
  17   0  -3    1.81    4.95
  16   0  -3   -1.70    5.81
 -16   0   3    1.57    2.38
  15   0  -3    1.56    4.72
 -15   0   3    0.48    1.81
  14   0  -3    4.26    4.84
 -13   0   3   -2.56    2.58
 -12   0   3   -0.39    2.02
 -11   0   3    0.36    1.98
 -10   0   3    4.86    3.84
 -10   0   3    2.27    1.99
  -9   0   3   -0.73    3.21
  -9   0   3    4.13    2.12
  -8   0   3   -1.34    2.99
  -7   0   3    3.04    2.60
  -6   0   3    0.56    2.83
  -5   0   3   -1.03    2.93
  -4   0   3   -0.47    2.83
  -3   0   3    2.20    2.70
  -2   0   3    0.41    2.54
  -1   0   3    0.39    2.64
   0   0   3    3.09    2.59
   1   0   3    3.04    2.94
   2   0   3   -0.47    2.95
   3   0   3    0.52    3.20
  -3   0  -3   -0.47    1.90
   4   0   3    1.75    3.09
   5   0   3    0.65    3.09
   6   0   3    1.46    3.52
   7   0   3    3.27    3.88
   8   0   3   -0.91    3.53
   9   0   3    4.07    3.94
  10   0   3   -1.13    4.48
  11   0   3    1.25    3.93
  12   0   3    6.84    5.59
  13   0   3    1.50    4.72
  14   0   3    1.63    4.92
 -14   0  -3    2.05    2.19
 -15   0  -3   -1.09    2.54
  15   0   3    3.51    5.31
 -15   0  -3   -0.46    1.89
  16   0   3   -1.88    4.54
 -16   0  -3   -0.58    2.46
  17   0   3    4.00    5.16
 -17   0  -3    3.03    2.87
 -18   0  -3   -1.26    3.03
  18   0   3   -2.10    4.28
 -19   0  -3    1.94    2.76
 -19   0  -3   -1.95    5.01
  19   0   3    4.34    5.93
 -20   0  -3    3.26    3.52
 -20   0  -3    1.97    4.41
  20   0   3    4.41    5.32
  21   0   3   -2.20    4.01
 -21   0  -3   -0.65    3.13
 -21   0  -3    5.81    4.99
 -22   0  -3    1.90    2.64
 -23   0  -3   -2.40    2.74
 -23   0  -3    0.46    1.89
 -24   0  -3    0.40    1.99
 -25   0  -3    0.98    2.48
 -26   0  -3   -0.42    2.15
 -27   0  -3    1.70    1.94
 -28   0  -3    1.56    1.42
 -29   0  -3    0.17    0.85
 -29  -1   3   88.24    5.55
 -29   1   3   96.85    5.71
 -28   1   3   19.07    2.61
 -28  -1   3   23.08    3.00
 -28   1   3   27.17    3.21
 -27  -1   3   51.83    5.25
 -27   1   3   64.90    5.59
 -27   1   3   52.79    4.81
 -26  -1   3   24.72    4.12
 -26   1   3   21.78    3.86
 -26   1   3   21.45    3.45
 -25   1   3  128.99    9.51
 -25  -1   3  125.98    9.95
 -25   1   3  146.16   10.31
 -24  -1   3    4.04    2.98
 -24   1   3    0.58    2.53
 -24  -1   3   -1.27    1.72
 -23  -1   3   -1.43    1.94
 -23   1   3    1.23    2.63
 -23  -1   3    3.68    2.68
 -22   1   3   44.05    5.93
  22  -1  -3   39.27    9.80
 -22  -1   3   39.37    5.58
  22   1  -3   37.50    9.80
 -22  -1   3   42.11    5.14
 -21  -1   3    8.33    3.60
 -21  -1   3    1.07    2.30
  21   1  -3    4.41    4.92
 -21   1   3    5.16    3.58
  21  -1  -3   13.83    6.97
 -20  -1   3   69.10    6.68
  20   1  -3   76.90   12.93
 -20   1   3   66.30    7.11
 -20  -1   3   64.48    7.13
  20  -1  -3   60.19   12.35
  19  -1  -3   56.91   11.82
  19   1  -3   52.60   10.89
 -19  -1   3   39.43    4.96
 -19  -1   3   36.77    5.32
 -19   1   3   43.86    5.81
 -18  -1   3   10.85    2.48
 -18   1   3   16.53    3.69
  18   1  -3    9.42    5.45
 -18  -1   3   11.56    3.11
 -18  -1   3   14.04    3.57
  18  -1  -3   11.76    6.21
 -17  -1   3  227.36   13.10
 -17   1   3  234.35   14.48
 -17  -1   3  218.74   14.22
 -17  -1   3  234.60   14.12
  17   1  -3  193.94   19.76
  17  -1  -3  236.03   21.72
 -16   1   3  202.52   12.91
 -16  -1   3  197.30   11.69
 -16  -1   3  203.41   12.54
  16   1  -3  203.95   19.16
 -16  -1   3  199.84   12.77
  16  -1  -3  151.21   17.35
 -15   1   3   49.94    5.40
  15  -1  -3   65.95   10.53
  15   1  -3   37.86    8.20
 -15  -1   3   48.43    5.24
 -15  -1   3   50.83    5.30
  14   1  -3   60.07    9.47
  14  -1  -3   49.21    9.52
  13  -1  -3   82.75   10.75
  13   1  -3   57.09    9.11
 -12   1   3   13.55    2.97
 -12  -1   3   20.77    3.39
 -11  -1   3    9.67    2.68
 -11   1   3    7.78    2.61
 -10  -1   3    2.29    1.96
 -10   1   3    3.88    1.87
  -9   1   3  347.91   21.04
  -9  -1   3  347.53   17.44
  -9  -1   3  349.40   20.99
  -9   1   3  343.35   17.40
  -8   1   3  181.05   13.08
  -8  -1   3  190.76   13.31
  -7   1   3  507.39   26.57
  -7  -1   3  484.34   26.48
  -6   1   3  496.19   26.75
  -6  -1   3  542.00   27.18
  -5   1   3 1022.57   47.49
  -5  -1   3  992.93   47.45
  -4   1   3    1.91    2.38
  -4  -1   3   -0.48    2.15
  -3   1   3   16.52    3.32
  -3  -1   3   19.35    3.37
  -2   1   3  622.12   31.07
  -2  -1   3  652.59   31.18
  -1   1   3  695.26   34.09
  -1  -1   3  736.52   34.27
   0  -1  -3   20.86    3.30
   0   1   3   24.00    3.71
   0  -1   3   23.79    3.57
   0   1  -3   20.64    3.37
   1   1   3  246.73   14.27
  -1   1  -3  248.29   14.28
   1  -1   3  257.30   14.26
  -1  -1  -3  242.86   14.22
  -2   1  -3 1154.42   52.36
   2  -1   3 1030.20   52.37
  -2  -1  -3 1236.34   52.65
   2   1   3 1124.64   52.61
   3  -1   3  429.08   23.73
   3   1   3  473.88   24.15
   4  -1   3 1010.44   49.09
   4   1   3 1054.45   49.29
   5   1   3 1758.98   80.32
   5  -1   3 1745.64   80.17
   6  -1   3  754.19   37.72
   6   1   3  695.39   37.05
   7  -1   3   86.42    8.83
   7   1   3   66.85    8.12
   8   1   3  804.35   40.80
   8  -1   3  718.46   40.17
  -9   1  -3  578.10   28.87
   9  -1   3  594.03   34.00
   9   1   3  631.64   34.50
 -10   1  -3   12.92    2.56
  10   1   3    3.39    4.39
  10  -1   3    7.82    4.46
  11  -1   3  399.82   26.33
 -11   1  -3  381.39   19.80
  11   1   3  366.41   25.88
  12   1   3   34.35    7.36
 -12   1  -3   36.15    3.91
  12  -1   3   43.41    8.44
  13  -1   3  738.19   44.12
 -13   1  -3  737.20   35.39
  13   1   3  709.47   43.28
  14  -1   3   11.26    5.29
  14   1   3    3.25    4.69
 -14   1  -3    4.59    2.56
 -14   1  -3   10.39    2.94
 -14   1  -3    8.55    2.42
 -14  -1  -3    5.59    2.60
  15  -1   3   50.23   10.12
  15   1   3   48.87    9.94
 -15   1  -3   30.82    4.71
 -15  -1  -3   38.19    5.10
 -15   1  -3   40.80    4.68
 -15   1  -3   44.59    5.41
 -16   1  -3  265.29   15.08
 -16   1  -3  266.03   16.02
 -16  -1  -3  263.02   15.96
  16  -1   3  254.93   23.24
 -16   1  -3  257.22   15.76
  16   1   3  231.97   22.89
 -17   1  -3  700.69   32.98
  17  -1   3  678.99   44.49
 -17   1  -3  646.87   33.85
 -17  -1  -3  673.37   33.98
  17   1   3  562.58   42.52
 -17   1  -3  703.14   34.24
 -18  -1  -3  486.65   26.42
 -18   1  -3  502.39   26.66
  18   1   3  510.57   36.88
 -18   1  -3  478.11   34.91
 -18  -1  -3  505.49   35.23
 -18   1  -3  506.45   26.60
  18  -1   3  459.07   35.87
 -19  -1  -3  293.10   26.32
  19  -1   3  333.14   28.82
 -19   1  -3  328.90   19.22
  19   1   3  308.20   27.92
 -19  -1  -3  336.83   19.44
 -19   1  -3  307.99   26.67
  20   1   3    8.30    5.36
 -20   1  -3    8.16    3.36
 -20  -1  -3    7.49    3.39
  20  -1   3   10.48    6.05
 -20  -1  -3   14.80    6.09
 -20   1  -3    7.54    5.71
  21   1   3  120.09   15.90
 -21   1  -3  113.11    9.76
 -21  -1  -3  126.53    9.87
  21  -1   3  123.96   16.55
 -22   1  -3   14.86    3.78
 -22  -1  -3   14.23    3.92
 -22  -1  -3   21.92    4.17
 -23  -1  -3   62.04    6.39
 -24   1  -3   22.85    3.96
 -24  -1  -3   18.40    3.46
 -24  -1  -3   19.40    3.81
 -25  -1  -3   34.08    4.51
 -25   1  -3   35.62    4.51
 -25  -1  -3   34.12    4.15
 -26  -1  -3  205.46   11.41
 -26  -1  -3  202.24   11.81
 -26   1  -3  200.35   11.75
 -27   1  -3  121.88    7.37
 -27  -1  -3  125.53    7.47
 -27  -1  -3  101.71    6.62
 -28  -1  -3    6.37    1.47
 -28   1  -3    4.04    1.33
  27   2  -3   41.70    3.53
 -27  -2   3   23.99    2.99
 -26  -2   3  144.82    8.70
 -25  -2   3   81.86    6.53
 -25  -2   3   90.20    6.38
 -24   2   3   41.72    4.60
 -24  -2   3   46.31    5.09
 -24  -2   3   52.22    4.93
 -23  -2   3  210.88   13.31
 -23   2   3  200.72   12.78
 -23  -2   3  226.51   13.16
 -22  -2   3  290.07   16.57
 -22   2   3  314.09   17.08
 -22   2   3  302.89   17.49
 -22  -2   3  329.06   17.77
 -22  -2   3  319.79   18.15
 -21  -2   3  155.39   10.69
 -21  -2   3  171.49   11.97
 -21   2   3  178.32   11.69
 -21  -2   3  167.50   11.51
 -21   2   3  171.91   11.20
 -20  -2   3  535.61   25.84
 -20  -2   3  525.32   26.28
 -20  -2   3  448.43   26.20
 -20   2   3  492.93   25.62
 -20   2   3  481.62   25.97
 -19  -2   3   13.23    3.18
 -19   2   3   15.56    3.34
  19   2  -3    1.84    5.59
 -19  -2   3   11.99    3.26
 -19  -2   3   15.47    4.14
 -19  -2   3   15.06    3.43
 -18  -2   3  157.38   10.79
 -18  -2   3  150.49   11.47
 -18   2   3  158.71   11.01
 -18   2   3  159.40   10.87
  18   2  -3  148.37   16.95
 -18  -2   3  159.25   11.08
  18  -2  -3  128.75   16.53
 -17  -2   3  324.27   18.18
  17  -2  -3  298.62   25.58
 -17  -2   3  329.59   19.02
  17   2  -3  289.40   24.98
 -17   2   3  321.98   18.13
 -17  -2   3  314.14   18.28
 -17   2   3  328.74   18.33
 -16  -2   3  113.35    8.75
 -16  -2   3  111.66    9.40
  16   2  -3   86.80   12.84
 -16   2   3  106.17    8.56
 -16   2   3  125.65    8.96
 -16  -2   3  123.13    9.07
  16  -2  -3   92.72   13.05
 -15   2   3  827.30   35.95
 -15   2   3  709.48   34.37
 -15  -2   3  796.59   36.12
 -15   2   3  694.70   35.42
  15  -2  -3  727.32   43.90
 -15   2   3  699.28   35.45
  15   2  -3  674.20   43.14
 -14   2   3    9.87    2.70
  14  -2  -3    5.60    4.26
  14   2  -3    8.29    4.57
 -14   2   3   14.05    2.71
 -14  -2   3   10.13    2.86
 -14   2   3   15.78    3.01
 -14   2   3   15.75    2.92
  13   2  -3  500.66   32.93
 -13   2   3  541.34   26.81
 -13  -2   3  564.72   27.53
 -13   2   3  577.60   26.51
 -13   2   3  543.98   27.04
 -12  -2   3  963.57   44.08
  12   2  -3  952.31   50.39
 -12  -2   3  878.54   44.12
 -12   2   3  980.31   43.52
  12  -2  -3  892.98   49.84
 -12   2   3  942.66   43.07
 -11  -2   3   57.69    5.70
  11  -2  -3   60.41    8.41
 -11  -2   3   59.84    5.57
  11   2  -3   50.56    7.85
  10   2  -3  143.99   13.05
  10  -2  -3  154.15   13.28
   9  -2  -3  445.72   25.72
   9   2  -3  399.51   25.20
   8  -2  -3  428.44   24.86
  -5   2   3 1215.96   56.64
  -5  -2   3 1265.59   57.23
  -4   2   3  719.65   34.49
  -4  -2   3  731.64   34.87
   3   2  -3    9.84    2.32
  -3   2   3   10.83    2.36
  -3  -2   3   15.51    2.73
   3  -2  -3   12.25    2.41
   2  -2  -3 1235.21   56.25
  -2  -2   3 1268.25   56.38
  -2   2   3 1233.74   56.03
   2   2  -3 1253.22   56.17
   1  -2  -3  637.11   29.10
  -1   2   3  613.91   28.76
  -1  -2   3  577.31   28.69
   1   2  -3  581.70   28.66
   0  -2   3 1079.92   49.30
   0   2   3 1089.34   49.25
   1   2   3  979.95   45.14
   1  -2   3  985.52   45.19
   2  -2   3    4.07    1.97
   2   2   3    2.87    1.76
   3   2   3  560.80   28.02
   3  -2   3  567.49   28.02
   4  -2   3  476.23   23.76
   4   2   3  426.96   23.44
   5   2   3   32.43    4.55
   5  -2   3   31.98    4.42
   6  -2   3  339.89   20.05
  -6   2  -3  342.83   19.99
   6   2   3  307.86   19.46
  -7   2  -3 1032.24   49.75
   7   2   3  978.09   50.14
   7  -2   3 1053.56   50.73
   8  -2   3  505.34   28.31
  -8   2  -3  473.95   26.51
   8   2   3  475.88   27.74
  -9   2  -3 1474.56   70.11
   9  -2   3 1623.51   73.23
   9   2   3 1423.74   71.84
  10  -2   3   39.71    6.96
  10   2   3   33.86    6.30
 -10   2  -3   32.85    4.56
 -10   2  -3   47.98    6.08
 -11   2  -3   61.70    7.09
  11   2   3   68.29    8.93
  11  -2   3   64.11    9.19
 -11   2  -3   63.24    6.23
  12   2   3 1120.91   58.25
 -12   2  -3 1028.97   52.49
 -12   2  -3 1118.01   51.24
  12  -2   3 1107.48   58.13
 -12   2  -3 1109.69   51.52
  13  -2   3   48.17    9.04
 -13   2  -3   56.65    5.50
  13   2   3   63.84    9.59
 -13   2  -3   56.42    5.96
 -13   2  -3   46.16    5.72
 -14   2  -3  643.99   30.93
 -14   2  -3  626.90   31.77
 -14   2  -3  605.77   31.27
  14   2   3  623.76   38.99
  14  -2   3  616.38   38.90
  15  -2   3   43.59    8.89
 -15   2  -3   34.81    4.53
 -15  -2  -3   48.04    5.21
 -15  -2  -3   42.55    8.22
  15   2   3   53.62    9.76
 -15   2  -3   45.74    8.48
 -15   2  -3   47.64    5.61
 -15   2  -3   38.03    5.44
 -16  -2  -3  257.36   15.29
 -16   2  -3  245.30   15.15
  16   2   3  264.78   23.08
 -16  -2  -3  256.33   21.32
 -16   2  -3  259.30   21.64
  16  -2   3  237.95   22.09
 -16   2  -3  269.17   15.84
 -17  -2  -3  994.29   46.02
 -17   2  -3  988.36   45.87
  17   2   3  914.84   55.14
 -17   2  -3  886.15   53.63
  17  -2   3  905.80   55.26
 -17   2  -3  981.75   45.97
  18   2   3   10.51    5.60
 -18   2  -3   22.73    4.06
 -18   2  -3   10.78    5.13
 -18  -2  -3   27.10    5.16
 -18   2  -3   17.75    3.69
 -18  -2  -3   30.48    4.52
 -19  -2  -3  396.33   21.81
 -19  -2  -3  414.76   23.23
 -19   2  -3  406.81   21.83
 -20  -2  -3  383.93   21.93
 -21   2  -3   -0.90    2.10
 -21  -2  -3   -1.42    2.24
 -21  -2  -3    3.57    3.21
 -22   2  -3  251.39   14.54
 -22  -2  -3  268.55   14.96
 -23  -2  -3  135.42    8.85
 -24  -2  -3   69.79    5.42
 -25  -2  -3  158.34    9.69
 -26  -2  -3  132.36    7.93
 -27  -2  -3  105.49    5.98
 -25  -3   3   77.54    5.28
  25   3  -3   75.14    4.90
 -24  -3   3  384.98   18.71
  24   3  -3  356.09   18.08
  23   3  -3   40.01    4.29
 -23  -3   3   38.71    3.75
 -22  -3   3  372.50   19.04
  22   3  -3  377.13   19.65
  21   3  -3  430.21   22.25
 -21  -3   3  414.53   21.57
  20   3  -3   -0.52    2.86
 -20  -3   3   -0.91    2.60
 -20  -3   3   -1.65    3.44
  19   3  -3  581.72   28.79
 -19  -3   3  592.10   29.31
 -18  -3   3  359.38   20.57
  18   3  -3  377.21   20.62
 -18  -3   3  319.56   19.29
 -17  -3   3  257.84   16.32
  17   3  -3  286.76   17.53
 -17  -3   3  276.26   17.25
  16   3  -3 1181.72   56.38
 -16  -3   3 1177.33   55.22
 -16  -3   3 1158.18   55.90
 -15   3   3  415.14   21.75
 -15  -3   3  421.21   23.75
  15   3  -3  416.09   23.90
 -15   3   3  414.16   22.10
 -14  -3   3  347.39   20.14
  14   3  -3  317.33   19.71
 -14   3   3  356.49   18.78
 -14   3   3  322.11   18.31
 -13   3   3 1860.73   82.44
 -13  -3   3 1801.47   83.98
  13   3  -3 1848.66   83.88
 -13   3   3 1848.31   82.39
 -12  -3   3   54.37    6.17
 -12  -3   3   42.59    5.77
 -12   3   3   59.90    5.67
 -12   3   3   51.26    5.61
 -11  -3   3 1319.58   63.35
 -11  -3   3 1414.37   64.08
 -11   3   3 1318.56   62.21
 -11   3   3 1469.69   63.00
 -10   3   3  311.53   17.77
 -10  -3   3  350.21   18.76
 -10  -3   3  343.48   18.97
 -10   3   3  305.62   17.39
  -9  -3   3  828.28   40.05
  -9   3   3  860.61   39.64
  -9   3   3  789.60   38.80
  -9  -3   3  854.63   40.37
  -8  -3   3 1104.92   49.72
  -8  -3   3 1145.40   50.07
  -8   3   3 1000.62   48.33
   8   3  -3  996.42   52.04
  -7  -3   3    1.47    2.09
   7   3  -3   -0.48    2.49
  -7  -3   3    1.90    2.29
   7   3  -3    1.75    2.88
  -6  -3   3  467.56   23.94
   6   3  -3  442.79   23.85
   6   3  -3  464.61   27.64
  -6  -3   3  491.23   24.26
   5   3  -3  351.88   19.21
  -5  -3   3  350.59   19.03
  -5  -3   3  355.63   19.00
   5   3  -3  372.55   23.11
  -4  -3   3   70.26    6.28
  -4  -3   3   74.51    6.39
   4   3  -3   84.53    9.34
   4   3  -3   90.81    7.08
  -3   3   3  904.03   41.45
  -3  -3   3  878.83   41.15
   3   3  -3  871.84   41.57
  -3  -3   3  879.53   41.19
   3   3  -3  860.60   45.79
  -2  -3   3   38.37    4.40
   2   3  -3   50.98    5.41
  -2   3   3   56.77    5.29
   2   3  -3   57.02    7.79
   1   3  -3  532.27   26.98
  -1   3   3  545.00   26.75
   1   3  -3  532.60   31.11
   0   3   3 1198.13   55.86
   0   3  -3 1251.29   56.17
   0   3  -3 1231.98   61.07
   1   3   3   36.15    4.47
  -1   3  -3   43.38    4.84
  -1   3  -3   32.29    6.45
  -2   3  -3 1128.75   52.05
   2   3   3 1131.92   51.96
  -2   3  -3 1132.78   57.10
  -3   3  -3  809.02   38.65
  -3   3  -3  841.23   39.06
  -3   3  -3  826.43   43.96
   3   3   3  810.27   38.87
  -4   3  -3  453.39   24.40
  -4   3  -3  486.68   24.69
   4   3   3  519.90   24.95
  -5   3  -3 1486.39   65.65
   5   3   3 1451.49   65.71
  -5   3  -3 1412.10   65.48
   6   3   3    0.93    2.16
  -6   3  -3    0.47    2.18
  -6   3  -3    4.04    2.13
  -6   3  -3    3.12    3.55
  -7   3  -3  835.24   40.45
   7   3   3  879.74   40.93
  -7   3  -3  889.78   41.10
  -7   3  -3  797.29   45.10
   8   3   3  451.30   22.72
  -8   3  -3  412.69   26.65
  -8   3  -3  441.58   22.38
  -8  -3  -3  388.91   22.03
  -8   3  -3  444.42   22.90
   9   3   3  175.95   11.32
  -9   3  -3  165.49   14.50
  -9   3  -3  178.55   11.72
  -9  -3  -3  152.78   11.01
 -10   3  -3  800.23   44.11
 -10  -3  -3  798.56   40.01
 -10   3  -3  835.21   40.37
  10   3   3  864.23   39.79
 -11   3  -3   50.67    5.92
 -11  -3  -3   40.89    5.36
 -12   3  -3  669.56   34.10
 -12  -3  -3  690.30   34.06
 -12   3  -3  642.34   33.54
 -13   3  -3  711.72   38.07
 -13   3  -3  755.39   38.19
 -14  -3  -3   12.35    3.86
 -14   3  -3    7.84    3.18
 -14   3  -3    9.52    3.45
 -15   3  -3  726.25   36.50
 -15   3  -3  665.78   36.19
 -16   3  -3  327.08   19.91
 -16   3  -3  351.78   20.18
 -17  -3  -3   62.28    6.87
 -17   3  -3   60.22    6.43
 -17   3  -3   51.67    6.05
 -18   3  -3  627.17   32.49
 -18  -3  -3  713.81   34.08
 -19  -3  -3   77.78    7.38
 -19   3  -3   82.90    7.00
 -20  -3  -3  269.88   15.15
 -20   3  -3  230.10   13.97
 -21  -3  -3  581.06   28.79
 -22  -3  -3   26.73    3.58
 -23  -3  -3  502.75   24.29
 -23  -3  -3  540.47   25.06
 -24  -3  -3  120.16    7.03
 -24  -3  -3  149.31    7.94
 -22  -4   3   31.58    2.79
 -22  -4   3   29.55    2.52
 -21  -4   3  264.49   12.53
  21   4  -3  223.97   12.01
 -21  -4   3  251.10   12.80
  20   4  -3  581.73   27.73
 -20  -4   3  586.72   28.31
 -20  -4   3  626.40   28.13
 -19  -4   3   26.75    3.66
  19   4  -3   26.38    3.44
 -18  -4   3 1147.92   51.58
  18   4  -3 1098.00   51.01
 -17  -4   3  840.39   39.97
  17   4  -3  835.31   39.97
 -17  -4   3  865.61   40.38
 -16  -4   3    2.48    2.75
 -16  -4   3    2.35    2.61
  16   4  -3    4.53    2.94
 -15  -4   3  449.98   24.05
 -15  -4   3  450.22   24.23
  15   4  -3  476.10   24.77
 -14  -4   3  393.71   21.11
 -14  -4   3  355.99   20.75
  14   4  -3  386.21   21.83
 -13  -4   3  345.73   19.51
 -13  -4   3  333.76   19.42
  13   4  -3  358.37   20.18
 -13   4   3  325.58   18.41
 -12  -4   3  397.24   21.33
 -12  -4   3  364.15   21.02
 -12   4   3  407.40   20.75
 -12   4   3  348.42   19.14
  12   4  -3  393.63   21.72
 -11   4   3   -2.48    2.79
 -11  -4   3    0.57    2.68
  11   4  -3    3.02    3.48
 -11   4   3   -0.36    1.81
 -11  -4   3    1.16    2.41
 -10  -4   3  842.39   41.51
 -10  -4   3  853.26   41.32
  10   4  -3  855.26   41.73
  -9  -4   3  379.09   20.87
  -9  -4   3  367.82   20.99
  -8  -4   3   97.69    8.43
  -8  -4   3   98.67    8.26
  -7  -4   3  432.75   22.70
  -7  -4   3  393.94   21.99
  -7   4   3  413.58   22.46
  -6  -4   3  969.77   45.90
  -6  -4   3  976.88   46.29
  -6   4   3  978.98   46.43
  -5  -4   3  486.92   25.39
  -5   4   3  502.14   26.21
  -5  -4   3  542.16   26.27
   5   4  -3  447.44   29.79
   4   4  -3 2296.75   99.77
  -4  -4   3 2181.92   98.54
   4   4  -3 2171.69  104.90
   3   4  -3    8.34    4.98
  -3  -4   3    3.73    2.66
   3   4  -3    6.90    3.48
  -2  -4   3 1344.03   60.04
   2   4  -3 1339.38   61.31
   2   4  -3 1201.59   66.05
   1   4  -3  372.96   26.83
   1   4  -3  430.05   22.88
   0   4   3  187.85   11.90
   0   4  -3  156.36   16.05
   1   4   3  972.65   45.89
  -1   4  -3 1028.99   47.77
  -1   4  -3  990.91   53.81
  -2   4  -3  145.03   14.69
   2   4   3  143.07    9.89
  -2   4  -3  173.83   11.72
  -3   4  -3  404.42   21.45
   3   4   3  370.06   19.66
  -3   4  -3  346.88   25.51
  -4   4  -3 1022.53   54.68
  -4   4  -3 1019.32   48.66
  -5   4  -3   72.44    7.42
  -5   4  -3  102.26   11.96
  -6   4  -3  636.25   30.85
  -6   4  -3  575.77   29.62
  -7   4  -3  117.55    8.67
  -8   4  -3   64.92    6.15
  -9   4  -3  439.93   22.88
 -10   4  -3    0.45    2.26
 -11   4  -3  782.95   37.30
 -12   4  -3  355.57   18.94
 -13   4  -3   14.90    2.94
 -13  -4  -3   14.08    3.14
 -14  -4  -3  896.17   41.87
 -14   4  -3  875.15   42.34
 -15  -4  -3  573.39   27.44
 -15   4  -3  530.10   27.66
 -16  -4  -3  218.59   12.44
 -16   4  -3  214.00   12.83
 -17  -4  -3  579.00   27.22
 -17   4  -3  560.04   27.52
 -18  -4  -3    6.45    2.47
 -18  -4  -3   11.84    2.24
 -18   4  -3    8.07    2.20
 -19  -4  -3  322.74   15.72
 -19  -4  -3  291.04   14.85
 -20  -4  -3   83.97    5.54
 -21  -4  -3    3.67    1.19
  15   5  -3    4.02    1.23
 -15  -5   3    3.08    1.32
  14   5  -3  326.89   16.48
 -14  -5   3  354.95   16.66
  13   5  -3  239.98   13.21
 -13  -5   3  263.32   13.16
 -12  -5   3   20.36    2.84
  12   5  -3   25.53    3.50
  11   5  -3  306.00   16.70
 -11  -5   3  318.83   16.07
  10   5  -3   80.80    6.66
 -10  -5   3   79.12    5.95
   9   5  -3  397.36   19.48
  -9  -5   3  338.83   18.05
  -8  -5   3  546.46   26.01
   8   5  -3  555.02   27.12
  -8   5   3  533.81   26.33
  -7  -5   3   64.35    5.44
   7   5  -3   82.87    6.73
  -7   5   3   77.65    6.25
  -6  -5   3  588.92   28.24
  -6   5   3  623.05   29.28
  -5   5   3  463.18   23.30
  -4   5   3  192.54   11.76
  -3   5   3  521.69   25.84
  -2   5   3   67.83    5.98
  -1   5   3  100.42    7.58
   0   5  -3 1488.68   66.79
   0   5   3 1468.26   66.18
  -1   5  -3   76.89    6.60
   1   5   3   54.77    5.37
  -2   5  -3  430.76   21.93
   2   5   3  412.28   21.19
   3   5   3  467.64   23.08
   4   5   3   34.52    3.85
   5   5   3  225.01   12.23
  -6   5  -3   37.40    4.53
  -7   5  -3  140.76    9.52
  -8   5  -3  537.73   26.42
  -9   5  -3    0.70    2.08
 -10   5  -3  701.85   32.84
 -11   5  -3  289.28   14.98
 -12   5  -3   64.79    4.89
 -13   5  -3  255.57   12.88
 -14   5  -3   53.55    3.81
 -30   0   4    2.77    1.15
 -29   0   4  657.19   32.91
 -29   0   4  820.13   33.62
 -28   0   4  274.34   14.92
 -27   0   4  176.88   11.36
 -26   0   4  809.37   39.27
 -25   0   4   15.14    3.95
 -24   0   4  402.42   22.90
 -23   0   4  623.68   32.65
 -22   0   4   14.99    4.29
  22   0  -4    7.17    7.25
 -21   0   4 1757.75   79.63
  21   0  -4 1615.17   92.64
 -20   0   4  863.35   42.57
  20   0  -4  823.39   54.23
 -19   0   4  169.77   12.43
  19   0  -4  145.67   18.77
 -18   0   4 1065.45   50.15
  18   0  -4  963.54   60.56
 -17   0   4    3.57    2.55
  17   0  -4    7.83    5.36
 -16   0   4 1538.78   71.60
  16   0  -4 1671.37   83.57
 -15   0   4  110.37    8.63
 -15   0   4   80.90    7.49
  15   0  -4  100.56   13.63
 -14   0   4  226.93   14.54
 -14   0   4  251.15   14.46
 -13   0   4 2848.79  124.94
 -12   0   4 1763.98   85.83
 -12   0   4 1800.77   79.86
 -11   0   4 1094.23   53.46
 -11   0   4 1004.68   47.32
 -10   0   4 3103.60  137.07
 -10   0   4 3319.63  143.09
  -9   0   4  628.06   34.18
  -8   0   4 2517.99  113.98
  -7   0   4  965.12   47.70
  -6   0   4  284.44   17.99
  -5   0   4 1641.52   75.60
  -4   0   4  623.40   32.25
  -3   0   4 1646.76   75.32
  -2   0   4 3861.86  168.59
  -1   0   4 1182.38   55.12
   0   0   4 3585.39  152.24
   0   0  -4 3373.49  151.92
  -1   0  -4 2409.01  105.89
   1   0   4 2345.75  105.85
   2   0   4   35.40    5.83
  -2   0  -4   34.07    5.01
   3   0   4  639.79   32.01
  -3   0  -4  559.84   30.69
   4   0   4  140.67   11.79
   5   0   4  612.68   33.14
   6   0   4   89.11    9.71
   7   0   4  851.61   45.09
   8   0   4 1559.82   76.06
   9   0   4 4286.49  192.61
  10   0   4  444.09   29.15
  11   0   4  933.20   52.14
  12   0   4  858.53   49.48
 -13   0  -4  218.80   13.58
  13   0   4  198.39   19.49
 -14   0  -4  772.85   36.72
 -14   0  -4  779.13   37.88
  14   0   4  702.13   46.34
  15   0   4  136.58   16.74
 -15   0  -4  135.41    9.51
 -15   0  -4  122.80    9.96
 -16   0  -4  536.69   26.91
 -16   0  -4  526.87   27.78
  17   0   4  488.08   36.21
 -17   0  -4  468.41   25.74
 -18   0  -4  559.94   29.03
  18   0   4  491.61   38.39
  19   0   4  641.55   46.18
 -19   0  -4  701.00   35.31
 -20   0  -4   38.36    5.59
 -20   0  -4   33.57    8.93
  20   0   4   26.10    8.54
 -21   0  -4    5.69    3.00
 -22   0  -4 1187.37   56.02
 -23   0  -4   35.24    5.24
 -24   0  -4  574.84   27.89
 -25   0  -4   22.71    3.79
 -26   0  -4  106.77    7.57
 -27   0  -4  624.54   29.15
 -28   0  -4    2.19    1.15
 -29  -1   4   60.90    4.08
 -29   1   4   71.87    4.34
 -28   1   4   59.90    4.88
 -28   1   4   87.19    5.76
 -28  -1   4   76.85    5.46
 -28  -1   4   69.79    5.47
 -27   1   4  308.27   16.41
 -27  -1   4  283.94   16.62
 -27  -1   4  342.05   17.09
 -27   1   4  349.39   17.20
 -26   1   4   59.90    5.81
 -26  -1   4   53.81    5.61
 -26   1   4   64.15    5.79
 -25   1   4  661.79   31.68
 -25   1   4  615.10   31.83
 -25  -1   4  632.35   31.74
 -24  -1   4  406.50   21.72
 -24   1   4  364.50   21.26
 -24   1   4  385.82   21.28
 -23   1   4   59.98    6.86
 -23   1   4   83.55    7.79
 -23  -1   4   66.50    7.11
 -23  -1   4   65.71    6.08
 -22  -1   4  629.16   33.01
 -22  -1   4  700.38   34.92
 -22   1   4  749.96   35.41
 -22  -1   4  666.49   34.71
 -21   1   4   63.48    7.18
 -21  -1   4   58.54    6.08
  21  -1  -4   52.91   11.57
 -21  -1   4   59.85    7.09
  21   1  -4   59.06   11.55
  20   1  -4  206.28   22.07
 -20  -1   4  217.53   14.66
 -20  -1   4  222.08   13.73
  20  -1  -4  209.89   22.81
 -20   1   4  204.31   14.37
 -19  -1   4  420.84   22.20
 -19  -1   4  433.25   23.43
 -19   1   4  384.96   22.83
  19   1  -4  381.83   31.42
  19  -1  -4  381.19   31.91
 -18  -1   4   30.52    4.91
  18   1  -4   32.69    8.71
 -18  -1   4   31.09    4.56
 -18   1   4   40.08    5.44
 -17   1   4 1661.55   74.77
  17   1  -4 1540.19   84.81
 -17  -1   4 1578.78   72.48
 -17  -1   4 1667.57   73.92
 -17  -1   4 1676.79   74.67
  17  -1  -4 1578.11   86.04
  16  -1  -4  328.38   27.39
 -16  -1   4  345.15   17.98
 -16  -1   4  353.93   19.04
 -16   1   4  344.49   19.57
 -16  -1   4  338.99   19.34
  16   1  -4  272.10   25.61
 -15  -1   4  289.10   16.21
 -15  -1   4  269.67   15.22
  15  -1  -4  279.36   23.78
 -15   1   4  287.76   16.60
 -15  -1   4  292.88   16.56
  15   1  -4  261.02   23.07
  14   1  -4  878.60   53.57
 -14  -1   4 1029.25   46.01
 -14   1   4 1005.20   46.48
 -14   1   4  956.72   46.18
 -14  -1   4  922.35   45.90
  14  -1  -4 1029.61   56.11
 -14  -1   4 1036.89   46.76
 -13   1   4  138.10    9.61
 -13  -1   4  133.69    9.61
 -12  -1   4 1830.42   82.73
 -12   1   4 1884.77   82.78
 -11   1   4  786.14   36.30
 -11   1   4  733.41   41.27
 -11  -1   4  753.32   36.22
 -11  -1   4  779.55   41.85
 -10   1   4   88.57    9.41
 -10  -1   4   76.54    9.19
 -10   1   4   77.39    6.29
 -10  -1   4   88.40    6.57
  -9  -1   4 3083.30  133.85
  -9  -1   4 2919.31  128.51
  -9   1   4 2926.59  128.45
  -9   1   4 3069.38  133.76
  -8  -1   4  510.54   29.47
  -8   1   4  551.76   29.71
  -7  -1   4  555.92   30.29
  -7   1   4  557.75   30.47
  -6  -1   4  927.93   47.05
  -6   1   4 1000.14   47.44
  -5  -1   4  882.33   44.82
  -5   1   4  954.99   45.16
  -4   1   4 2651.33  113.98
  -4  -1   4 2453.35  113.76
  -3   1   4 1783.17   82.01
  -3  -1   4 1810.93   81.79
  -2  -1   4  582.24   30.68
  -2   1   4  625.00   31.18
  -1   1   4 3360.20  147.48
  -1  -1   4 3361.97  147.44
   0  -1  -4  279.56   16.35
   0   1  -4  245.27   15.84
   0   1   4  274.33   16.40
   0  -1   4  285.50   16.47
   1   1   4  955.77   47.64
   1  -1   4 1054.33   47.94
  -1  -1  -4 1010.52   47.73
  -1   1  -4  979.17   47.59
   2   1   4 2376.80  115.27
   2  -1   4 2745.16  115.80
  -2   1  -4 2553.25  115.52
  -2  -1  -4 2750.04  115.97
   3  -1   4  395.15   22.07
   3  -1   4  364.41   21.29
   3   1   4  364.91   21.95
   4  -1   4 3275.07  147.66
   4   1   4 3382.64  147.88
   5  -1   4 1939.88   87.98
   5   1   4 1856.77   88.26
   6  -1   4  660.16   35.62
   6   1   4  661.01   35.97
   7  -1   4 2253.09  107.06
   7   1   4 2391.55  107.39
   8  -1   4  774.66   41.65
   8   1   4  757.27   41.85
   9  -1   4 1253.63   65.39
   9   1   4 1366.16   66.30
  10  -1   4  860.75   47.74
  10   1   4  872.61   48.15
 -10   1  -4  871.24   41.19
  11  -1   4    4.07    3.95
  11   1   4   20.63    6.66
 -11   1  -4   16.81    2.96
  12  -1   4  351.41   26.31
  12   1   4  339.55   26.26
 -12   1  -4  332.02   18.55
 -12   1  -4  372.73   19.47
 -12   1  -4  394.19   19.92
 -12  -1  -4  341.64   19.39
  13  -1   4  919.74   56.92
 -13   1  -4 1030.84   48.66
 -13   1  -4 1088.83   49.29
 -13  -1  -4 1077.55   49.17
 -13   1  -4 1037.52   47.78
  13   1   4  958.91   57.16
 -14   1  -4  249.26   15.64
 -14   1  -4  268.58   15.78
 -14  -1  -4  261.65   15.78
 -14   1  -4  264.11   14.64
  14   1   4  260.19   22.99
  14  -1   4  224.65   21.75
  15   1   4  681.93   47.01
 -15   1  -4  808.42   38.83
 -15  -1  -4  795.36   38.68
 -15   1  -4  809.62   37.24
 -15   1  -4  760.95   38.25
  15  -1   4  746.70   48.04
 -16   1  -4  628.70   31.76
  16  -1   4  584.78   41.22
 -16   1  -4  636.15   32.07
 -16  -1  -4  656.52   32.28
 -16   1  -4  599.51   30.31
  16   1   4  614.01   41.84
 -17   1  -4  397.88   22.55
 -17  -1  -4  371.30   22.24
 -17   1  -4  427.97   22.58
 -17   1  -4  413.99   21.25
  17  -1   4  382.07   31.22
  17   1   4  395.56   31.73
 -18   1  -4 2199.73   97.24
 -18  -1  -4 2162.85   97.03
 -18   1  -4 2180.74   96.83
  18  -1   4 2041.24  109.01
  18   1   4 1984.15  108.79
 -19   1  -4  179.51   12.56
 -19  -1  -4  181.80   12.74
 -19  -1  -4  172.06   18.66
 -19   1  -4  155.99   18.46
  19  -1   4  166.96   19.47
  19   1   4  170.43   19.40
 -20   1  -4  506.38   27.25
  20   1   4  465.37   35.98
 -20  -1  -4  528.62   27.43
 -20  -1  -4  531.19   36.92
 -20   1  -4  519.92   36.55
  20  -1   4  495.58   37.11
 -21  -1  -4  252.86   15.75
 -21   1  -4  245.45   15.53
 -22   1  -4  140.15   10.43
 -22  -1  -4  136.85   10.35
 -23  -1  -4  641.97   31.88
 -24   1  -4   -1.34    2.37
 -24  -1  -4   -1.70    2.16
 -24  -1  -4    3.14    2.38
 -25   1  -4  162.94    9.97
 -25  -1  -4  142.21    9.45
 -25  -1  -4  164.01   10.06
 -26  -1  -4  344.97   17.53
 -26  -1  -4  343.68   17.17
 -26   1  -4  349.68   17.47
 -27  -1  -4   15.23    1.91
 -27   1  -4   12.84    2.03
  27   2  -4    7.96    1.94
 -27  -2   4    3.38    1.14
 -26  -2   4  232.53   13.77
 -26  -2   4  324.37   14.23
 -25  -2   4  149.02    9.44
 -25  -2   4  154.41    9.46
 -25  -2   4  158.63    9.14
 -24  -2   4    6.08    2.04
 -24  -2   4    3.19    2.06
 -23  -2   4  386.93   20.08
 -23   2   4  362.55   19.87
 -23  -2   4  394.97   20.63
 -22  -2   4   -0.36    1.76
 -22  -2   4   -0.52    2.36
 -22   2   4    0.47    2.18
 -22  -2   4    0.47    2.05
 -22   2   4    0.42    1.81
 -21   2   4  137.24    9.59
 -21  -2   4  143.16    9.38
 -21  -2   4  121.71    9.81
 -21  -2   4  130.42    9.72
 -21   2   4  133.78    9.88
 -20  -2   4  101.67    7.90
 -20   2   4   95.95    8.36
 -20  -2   4  104.57    8.88
 -20   2   4   98.44    8.11
 -20  -2   4  102.53    8.42
 -19  -2   4   29.27    4.86
 -19   2   4   32.00    4.44
 -19   2   4   29.96    4.57
 -19  -2   4   33.59    4.96
 -19  -2   4   30.47    4.37
  19   2  -4   25.72    7.78
 -18  -2   4  717.50   33.91
 -18   2   4  678.27   33.95
 -18  -2   4  676.72   34.08
 -18   2   4  656.47   33.98
 -18  -2   4  714.09   35.00
  18   2  -4  616.38   42.73
 -17  -2   4   26.70    4.51
 -17  -2   4   27.39    4.18
 -17   2   4   26.33    4.20
 -17  -2   4   24.58    4.32
 -17   2   4   22.06    3.93
  17   2  -4   17.30    5.99
  17  -2  -4   24.78    7.97
 -16  -2   4   76.85    7.05
  16  -2  -4   61.70   10.47
 -16  -2   4   78.39    7.50
 -16   2   4   73.11    6.95
 -16  -2   4   82.42    7.20
 -16   2   4   76.12    7.19
  16   2  -4   80.04   11.79
 -15   2   4  480.12   24.87
 -15  -2   4  505.96   25.04
 -15  -2   4  468.93   25.31
 -15   2   4  477.87   24.87
  15   2  -4  402.50   30.95
  15  -2  -4  453.84   32.15
 -15   2   4  471.13   23.27
 -14   2   4   42.70    4.77
 -14  -2   4   35.17    4.61
  14   2  -4   34.88    7.63
 -14  -2   4   35.58    4.96
 -14   2   4   30.20    4.41
 -14   2   4   35.11    3.95
  14  -2  -4   19.08    6.15
  13  -2  -4  871.95   51.02
 -13  -2   4  859.40   43.29
 -13   2   4 1020.30   44.04
 -13   2   4  906.26   43.33
  13   2  -4  932.90   51.56
 -13   2   4  928.57   42.40
 -12   2   4  296.33   16.28
  12  -2  -4  268.51   21.32
  12   2  -4  268.48   21.50
 -12   2   4  290.30   15.38
 -12  -2   4  288.90   16.37
 -11  -2   4   45.57    4.97
  11   2  -4   55.29    8.47
  11  -2  -4   41.72    7.62
 -10  -2   4  449.60   21.77
 -10  -2   4  424.13   22.04
 -10  -2   4  425.87   22.54
 -10   2   4  416.36   21.35
  -9   2   4  803.45   37.08
  -8   2   4 1205.24   53.83
  -7   2   4  974.46   48.63
  -7  -2   4 1028.29   49.48
  -6   2   4  474.60   26.13
  -6  -2   4  495.74   26.77
  -5   2   4  639.01   32.74
  -5  -2   4  649.68   33.20
  -4   2   4  890.77   43.13
  -4  -2   4  898.46   43.57
   3   2  -4 1417.23   66.30
  -3   2   4 1466.83   66.46
  -3  -2   4 1420.31   66.69
   3  -2  -4 1486.18   66.76
  -2   2   4  184.73   12.50
  -2  -2   4  204.61   13.12
   2  -2  -4  199.33   12.95
   2   2  -4  195.28   12.74
   1   2  -4    8.02    2.59
   1  -2  -4    5.61    2.24
  -1   2   4    7.02    2.42
  -1  -2   4    3.90    2.45
   0   2   4  884.69   42.37
   0  -2   4  873.46   42.44
   1   2   4 1891.77   84.60
   1  -2   4 1850.69   84.61
   2   2   4 2275.49  100.49
   2  -2   4 2206.13  100.40
   3   2   4 2517.29  111.86
   3  -2   4 2487.65  111.80
   4   2   4 1245.56   59.82
   4  -2   4 1287.67   60.00
   5   2   4 1548.65   72.57
   5  -2   4 1559.02   72.51
   6   2   4 1839.82   81.79
   6  -2   4 1742.80   81.27
   6   2   4 1713.76   76.84
   7   2   4   79.75    6.15
   7  -2   4   67.67    8.57
   7  -2   4   96.51    9.38
   7   2   4   74.51    8.66
   8   2   4  723.38   39.54
   8   2   4  699.46   34.13
  -8   2  -4  760.77   35.00
   8  -2   4  720.10   39.67
  -8   2  -4  720.35   37.61
   9   2   4  504.19   31.41
  -9   2  -4  546.48   26.91
  -9   2  -4  531.74   29.42
   9  -2   4  521.20   31.79
  10   2   4  421.54   27.10
 -10   2  -4  387.14   23.38
  10  -2   4  408.27   26.91
  11   2   4 1193.96   63.32
  11  -2   4 1253.37   63.95
 -11   2  -4 1219.45   58.80
 -12   2  -4  550.85   30.37
 -12   2  -4  556.79   28.72
 -12   2  -4  579.13   28.30
  12  -2   4  581.87   35.94
  12   2   4  545.32   35.22
  13  -2   4 2081.60  104.14
  13   2   4 2065.98  103.94
 -13   2  -4 2208.31   94.97
 -13  -2  -4 2120.42   94.96
 -13   2  -4 2186.53   95.57
 -13   2  -4 2049.30   96.60
 -14  -2  -4  585.78   29.42
  14   2   4  539.04   37.25
 -14   2  -4  618.51   29.60
 -14   2  -4  580.16   29.70
  14  -2   4  534.48   36.84
 -15   2  -4  165.83   11.34
 -15  -2  -4  173.38   11.64
 -15   2  -4  181.10   11.92
  15   2   4  183.13   18.02
  15  -2   4  155.05   16.91
  16  -2   4  419.46   32.01
 -16   2  -4  482.75   24.34
 -16  -2  -4  493.75   24.62
 -16   2  -4  391.92   30.74
 -16   2  -4  471.27   24.43
  16   2   4  375.62   31.13
 -17  -2  -4  294.08   17.03
  17   2   4  329.42   25.66
 -17   2  -4  299.42   17.08
 -17   2  -4  291.81   16.89
 -18   2  -4  264.31   15.98
 -18  -2  -4  284.87   16.49
 -18   2  -4  281.98   16.15
 -19  -2  -4  390.90   21.18
 -19  -2  -4  425.84   22.85
 -19   2  -4  361.19   21.68
 -19   2  -4  396.02   21.00
 -19   2  -4  391.56   21.01
 -20  -2  -4  233.90   15.26
 -21   2  -4  368.20   19.35
 -21  -2  -4  366.74   20.70
  22   2   4  566.02   26.72
 -22  -2  -4  561.82   27.30
 -23  -2  -4   42.10    4.13
 -24  -2  -4  261.10   13.29
 -26  -2  -4   16.50    2.13
  25   3  -4   59.99    4.32
 -25  -3   4   63.58    4.38
  24   3  -4   77.33    5.62
 -24  -3   4   79.61    5.70
 -23  -3   4    4.41    1.58
 -23  -3   4    6.88    2.23
  23   3  -4    5.37    2.20
 -22  -3   4  167.32   10.19
  22   3  -4  191.08   11.33
 -21  -3   4   57.20    5.49
  21   3  -4   88.30    7.11
 -20  -3   4   34.82    4.43
  20   3  -4   39.23    5.19
 -19  -3   4    9.47    2.87
  19   3  -4    2.89    3.08
 -18  -3   4    0.60    2.63
 -18  -3   4   -1.03    2.60
 -17  -3   4  550.70   29.12
 -17  -3   4  598.00   30.29
 -16  -3   4   37.41    5.64
 -16  -3   4   36.76    5.06
 -15  -3   4   11.07    3.78
 -15   3   4    8.50    2.90
 -15  -3   4    9.25    3.44
 -14  -3   4 1612.05   75.23
 -14   3   4 1642.64   73.25
 -13  -3   4  247.90   16.15
  13   3  -4  258.82   15.93
 -13   3   4  246.22   14.75
 -12  -3   4  730.40   36.72
 -12  -3   4  751.84   37.45
  12   3  -4  738.78   36.87
 -12   3   4  746.08   35.22
 -12   3   4  736.23   35.77
 -11  -3   4  174.53   12.34
  11   3  -4  175.57   12.08
 -11   3   4  159.98   10.49
 -11  -3   4  189.04   12.34
 -11   3   4  183.94   11.61
 -10  -3   4  422.39   23.71
  10   3  -4  448.97   23.93
 -10  -3   4  436.94   24.23
 -10   3   4  478.90   23.59
   9   3  -4  157.10   13.02
  -9  -3   4  172.93   11.17
   9   3  -4  136.68   10.38
  -9  -3   4  144.04   10.83
  -8  -3   4  345.54   19.41
  -8  -3   4  347.97   19.60
   8   3  -4  344.35   19.33
   8   3  -4  360.20   22.96
  -7  -3   4   46.99    5.53
  -7  -3   4   43.44    5.26
   7   3  -4   43.33    5.26
   7   3  -4   59.33    7.84
  -6  -3   4  106.59    8.41
  -6  -3   4  110.14    8.58
   6   3  -4  110.47    8.48
   5   3  -4  328.09   18.00
  -5  -3   4  326.32   17.88
  -5  -3   4  313.93   17.96
  -4  -3   4  249.10   14.36
  -4  -3   4  236.84   14.28
   4   3  -4  252.61   14.59
   4   3  -4  237.43   14.08
  -3   3   4   12.32    3.00
   3   3  -4    7.36    2.47
  -3  -3   4   11.16    2.90
  -3  -3   4    9.83    2.67
   3   3  -4    9.53    2.91
  -2  -3   4   61.23    5.66
  -2  -3   4   65.91    5.79
   2   3  -4   62.51    5.95
  -2   3   4   53.88    5.61
   2   3  -4   59.22    5.63
  -1   3   4  281.74   15.93
   1   3  -4  279.02   15.95
  -1  -3   4  276.82   15.47
   1   3  -4  276.38   15.73
   0  -3   4  265.52   14.82
   0   3  -4  267.82   15.33
   0   3   4  264.32   15.33
   0   3  -4  281.05   19.83
   0   3  -4  253.98   15.13
   1  -3   4  318.75   16.69
   1   3   4  312.88   17.40
  -1   3  -4  309.74   17.25
  -1   3  -4  301.67   21.43
  -1   3  -4  295.65   17.13
  -2   3  -4  629.03   31.97
   2   3   4  682.99   32.43
  -2   3  -4  680.17   32.43
  -2   3  -4  623.43   36.89
  -3   3  -4   47.11    5.38
  -3   3  -4   61.35    8.40
   3   3   4   52.70    5.63
  -3   3  -4   59.67    5.76
   4   3   4   29.46    4.33
  -4   3  -4   21.13    3.71
  -4   3  -4   28.58    4.46
   5   3   4  112.49    8.61
  -5   3  -4  107.94    8.27
  -5   3  -4  101.10    8.38
  -5   3  -4  109.70   11.40
  -6   3  -4   -1.37    2.53
   6   3   4   -1.06    2.65
  -6   3  -4   -1.04    2.69
  -6   3  -4    2.17    3.57
  -7   3  -4  939.83   45.85
  -7   3  -4  973.13   46.73
   7   3   4 1081.18   47.43
  -7   3  -4  950.95   51.29
  -8   3  -4    0.56    2.48
  -8   3  -4   -1.09    3.45
   8   3   4    2.26    2.67
  -9   3  -4    3.47    2.93
  -9  -3  -4    1.55    2.22
  -9   3  -4    4.33    3.69
   9   3   4    2.29    2.61
 -10   3  -4   48.34    5.72
 -10  -3  -4   47.52    5.62
 -10   3  -4   37.15    6.56
  10   3   4   49.10    5.90
 -11   3  -4   12.24    3.82
 -11  -3  -4   14.31    3.60
 -11   3  -4    8.18    3.88
  11   3   4   13.78    3.66
 -12  -3  -4   94.56    8.48
 -12   3  -4   78.07    8.02
  12   3   4  105.13    8.40
 -12   3  -4   82.32    8.16
 -13  -3  -4   16.73    4.09
 -13   3  -4   16.96    3.82
 -13   3  -4   19.81    4.36
 -14  -3  -4  259.88   15.70
 -14   3  -4  222.73   14.91
 -14   3  -4  214.51   14.56
 -15  -3  -4  445.00   23.62
 -15   3  -4  409.47   23.03
 -15   3  -4  401.51   22.70
 -16  -3  -4    4.22    3.11
 -16   3  -4    5.32    2.79
 -16   3  -4    4.58    3.05
 -17  -3  -4  164.60   11.23
 -17   3  -4  133.09   10.38
 -17   3  -4  148.68   10.35
 -18  -3  -4  154.15   10.62
 -18   3  -4  132.12    9.58
 -19  -3  -4  164.40   10.96
 -19   3  -4  159.47   10.30
 -20  -3  -4  151.05   10.08
 -21  -3  -4  227.82   13.11
 -22  -3  -4  237.74   12.96
 -23  -3  -4  304.89   15.46
 -23  -3  -4  343.81   16.11
 -24  -3  -4    1.51    0.99
 -21  -4   4    8.96    1.63
 -21  -4   4    7.63    1.73
  21   4  -4   10.71    1.81
 -20  -4   4    8.36    2.12
  20   4  -4   12.85    2.31
 -20  -4   4    9.60    2.01
 -19  -4   4   93.08    6.67
  19   4  -4   85.77    6.44
  18   4  -4  349.11   18.52
 -18  -4   4  357.22   18.60
 -17  -4   4    5.59    2.67
  17   4  -4    8.07    3.07
 -16  -4   4   10.50    3.00
  16   4  -4    9.71    3.49
 -16  -4   4   14.55    3.32
 -15  -4   4   12.55    3.27
 -15  -4   4   11.37    3.44
 -14  -4   4   17.13    3.70
 -14  -4   4   14.78    3.47
 -13  -4   4   40.15    5.22
 -13  -4   4   34.95    4.88
 -13   4   4   32.69    4.51
 -12  -4   4   79.03    7.32
 -12   4   4   90.15    7.19
 -11   4   4    0.96    2.64
 -11  -4   4    7.24    3.21
 -11  -4   4    5.60    2.89
 -10  -4   4   90.27    7.87
 -10  -4   4   81.82    7.57
  10   4  -4   83.93    8.01
 -10   4   4   72.51    7.21
  -9  -4   4  200.58   13.11
  -9  -4   4  188.94   12.76
   9   4  -4  184.75   12.89
  -9   4   4  189.34   12.55
  -8  -4   4   61.36    6.43
  -8  -4   4   48.66    5.83
   8   4  -4   63.61    6.70
  -7  -4   4   17.39    3.81
  -7  -4   4   18.13    3.64
   7   4  -4   16.15    4.00
  -6  -4   4   22.24    4.00
   6   4  -4   13.85    3.88
   6   4  -4   20.68    4.83
  -6   4   4   21.32    4.12
   5   4  -4   94.71   11.11
   5   4  -4  114.49    9.32
  -5  -4   4  109.62    8.75
   4   4  -4  160.11   15.28
   4   4  -4  176.28   12.32
  -4  -4   4  186.83   11.91
  -3  -4   4   25.88    4.04
   3   4  -4   30.32    4.78
   3   4  -4   15.78    5.17
   2   4  -4   65.49    6.83
  -2  -4   4   65.47    6.13
   2   4  -4   69.11    6.08
   2   4  -4   50.77    8.28
   1   4  -4    0.88    1.91
  -1  -4   4   -0.44    1.79
   1   4  -4    2.28    2.70
   1   4  -4   -1.26    3.43
   0   4  -4  134.89   14.16
   0   4  -4  148.07   10.86
   0   4  -4  142.71    9.80
  -1   4  -4    1.36    2.26
  -1   4  -4    2.27    3.01
  -1   4  -4    6.38    4.20
  -2   4  -4   33.34    7.24
  -2   4  -4   49.89    5.93
  -2   4  -4   42.44    4.97
  -3   4  -4    1.41    2.14
  -3   4  -4   -1.66    2.89
  -3   4  -4   -1.28    3.51
   4   4   4  157.55   11.37
  -4   4  -4  183.47   12.12
  -4   4  -4  191.97   16.55
  -4   4  -4  162.23   11.15
  -5   4  -4    9.70    2.83
  -5   4  -4   12.17    3.37
   5   4   4    9.17    3.18
  -6   4  -4   -0.98    2.37
  -6   4  -4   -0.51    2.68
   6   4   4    1.00    2.14
  -6   4  -4   -2.43    2.93
  -7   4  -4   44.40    5.17
   7   4   4   34.18    4.66
   8   4   4  122.97    8.94
  -8   4  -4  111.76    8.79
  -9   4  -4   76.03    6.88
 -10   4  -4    8.40    3.38
 -10   4  -4    3.27    2.60
 -11   4  -4   40.00    5.48
 -11   4  -4   33.67    4.55
 -12   4  -4    1.27    2.16
 -12   4  -4    4.86    3.11
 -13   4  -4   24.62    4.23
 -13   4  -4   20.99    3.46
 -14   4  -4  146.29    9.46
 -14   4  -4  153.36   10.41
 -15   4  -4    0.81    2.16
 -16  -4  -4   15.24    2.43
 -16   4  -4   22.14    3.32
 -17  -4  -4    7.70    1.75
 -17   4  -4    4.00    2.02
 -18  -4  -4   85.56    6.12
 -18   4  -4   89.01    6.03
 -19  -4  -4    9.39    1.88
 -20  -4  -4   17.33    2.00
 -15  -5   4    2.23    1.03
  15   5  -4    0.81    0.92
 -14  -5   4   35.96    3.09
  14   5  -4   26.95    3.05
 -13  -5   4    7.65    1.87
  13   5  -4    9.46    2.25
 -12  -5   4    9.44    1.94
  12   5  -4    4.08    2.12
 -11  -5   4   41.03    3.83
 -10  -5   4   -0.56    1.70
  -9  -5   4    2.29    1.46
  -9   5   4    3.32    2.01
  -8  -5   4   28.14    3.32
  -8   5   4   22.87    3.38
  -7  -5   4    3.96    1.76
  -7   5   4    5.76    2.23
  -6  -5   4   97.83    6.55
   6   5  -4  102.39    7.62
  -6   5   4   96.93    7.20
  -5   5   4   16.14    3.12
   5   5  -4   18.29    3.42
   4   5  -4   45.91    4.95
  -4   5   4   44.15    4.72
   3   5  -4   26.30    3.93
  -3   5   4   22.56    3.65
   2   5  -4   40.95    4.60
  -2   5   4   38.87    4.47
   1   5  -4    1.21    2.33
  -1   5   4    1.11    2.05
   0   5  -4   11.54    2.91
   0   5   4   10.25    2.67
  -1   5  -4    6.61    2.50
   1   5   4    6.83    2.42
   2   5   4   17.85    3.05
   3   5   4    0.67    1.90
   4   5   4  102.98    7.09
   5   5   4   83.58    6.06
   6   5   4    8.26    1.87
  -6   5  -4    7.47    2.68
  -7   5  -4   18.61    3.28
  -8   5  -4   29.55    3.77
  -9   5  -4    8.64    2.36
 -10   5  -4    8.93    2.34
 -29   0   5    1.33    1.14
 -28   0   5    0.63    1.59
 -27   0   5    1.99    1.88
 -26   0   5    0.47    2.25
 -25   0   5   -1.09    2.68
 -24   0   5    1.21    2.71
 -23   0   5   -0.65    3.15
 -22   0   5    0.69    3.06
  21   0  -5   11.50    6.29
 -21   0   5    3.51    3.14
 -20   0   5   -2.11    3.21
  20   0  -5   -2.27    5.06
 -19   0   5    0.68    2.55
 -19   0   5    1.38    2.75
  19   0  -5    2.25    4.58
 -18   0   5   -0.66    2.68
  18   0  -5    2.18    5.63
 -17   0   5   -0.63    2.81
  17   0  -5   10.37    6.81
 -16   0   5    0.60    2.61
 -16   0   5   -1.26    3.03
  16   0  -5    7.78    6.39
 -15   0   5   -0.59    2.91
 -15   0   5   -0.56    2.11
 -14   0   5   -1.05    2.09
 -14   0   5    1.68    2.84
 -13   0   5    1.05    2.38
 -13   0   5    1.96    2.23
 -13   0   5   -1.32    5.11
 -12   0   5    1.23    3.88
 -12   0   5    1.46    2.31
 -11   0   5   -0.91    2.49
 -11   0   5    1.14    4.04
 -10   0   5    2.15    3.79
  -9   0   5    1.00    3.88
  -8   0   5    2.28    2.17
  -8   0   5   -2.83    3.75
  -7   0   5    0.36    1.85
  -7   0   5   -1.79    3.26
  -6   0   5    1.02    1.91
  -6   0   5    5.09    3.54
  -5   0   5    0.32    1.94
  -5   0   5   -2.42    3.03
  -4   0   5   -0.31    1.73
  -4   0   5    0.77    3.37
  -3   0   5   -0.75    3.34
  -2   0   5   -0.73    2.75
  -1   0   5    2.16    3.01
   0   0  -5    0.72    2.78
   0   0   5   -0.72    2.87
  -1   0  -5    2.21    2.77
   1   0   5    4.42    3.35
   1   0   5    1.19    1.84
   2   0   5    3.82    3.61
  -2   0  -5   -2.27    3.01
   2   0   5   -0.62    1.75
  -3   0  -5   -1.59    2.61
   3   0   5    3.21    3.87
   3   0   5   -0.66    2.15
   4   0   5    0.92    3.56
   4   0   5   -1.05    2.00
   5   0   5    2.94    3.89
   6   0   5    1.05    4.05
   7   0   5   -1.13    3.70
   8   0   5    1.21    4.28
   9   0   5   -1.31    4.46
  10   0   5    1.41    4.64
  11   0   5    1.53    4.41
 -11   0  -5   -0.52    2.69
  12   0   5   -1.65    4.24
 -12   0  -5    0.56    2.64
 -12   0  -5    0.87    2.20
  13   0   5   -1.76    4.82
 -13   0  -5    2.35    2.68
 -13   0  -5   -1.37    2.04
  14   0   5   -1.88    4.52
 -14   0  -5    0.61    2.50
 -14   0  -5   -0.48    2.15
  15   0   5    1.98    4.41
 -15   0  -5   -1.27    2.90
 -15   0  -5    3.02    2.63
  16   0   5    4.12    5.31
 -16   0  -5    0.65    3.04
 -16   0  -5   -0.52    2.37
  17   0   5   -4.24    6.12
 -17   0  -5   -1.33    3.03
  18   0   5    6.44    5.18
 -18   0  -5    4.65    3.15
  19   0   5    4.28    5.17
 -19   0  -5    0.66    3.16
 -20   0  -5    0.63    3.06
 -21   0  -5   -0.60    2.63
 -22   0  -5    1.11    2.83
 -23   0  -5   -1.01    2.30
 -24   0  -5   -1.69    1.88
 -25   0  -5   -0.37    2.04
  25   0   5   -0.92    2.14
 -26   0  -5    0.30    1.58
 -27   0  -5   -0.64    1.20
 -28   1   5   84.96    5.44
 -28  -1   5   70.24    5.27
 -28   1   5   70.42    4.93
 -28  -1   5   82.80    5.40
 -27   1   5   88.32    6.27
 -27  -1   5   92.47    6.68
 -27  -1   5   96.87    6.66
 -27   1   5   81.79    6.34
 -26   1   5   26.57    3.71
 -26  -1   5   20.91    3.45
 -26  -1   5   25.93    3.72
 -26   1   5   22.61    3.56
 -25  -1   5  133.73    9.96
 -25  -1   5  147.90   10.07
 -25   1   5  134.90    9.83
 -25   1   5  157.34   10.12
 -24  -1   5   17.02    3.75
 -24   1   5    5.39    2.94
 -24   1   5   11.66    3.33
 -23  -1   5   56.66    5.47
 -23   1   5   74.95    7.13
 -23  -1   5   67.77    6.99
 -23   1   5   73.44    7.23
 -22   1   5   15.05    3.57
 -22  -1   5   13.64    2.99
 -22  -1   5   19.93    4.26
 -22   1   5   15.80    4.04
  21   1  -5   47.06   10.12
 -21   1   5   57.37    6.55
 -21  -1   5   35.65    4.72
 -21  -1   5   50.45    6.19
 -21   1   5   44.67    6.16
  21  -1  -5   47.56   10.69
  20   1  -5  692.54   49.58
 -20   1   5  921.79   41.13
 -20  -1   5  753.29   38.87
 -20  -1   5  827.77   40.68
 -20   1   5  816.75   40.66
  20  -1  -5  814.58   52.75
  19   1  -5    4.12    4.97
 -19   1   5    4.53    3.18
 -19  -1   5    5.22    2.57
 -19  -1   5    1.31    2.80
 -19   1   5    5.33    3.27
  19  -1  -5    2.17    5.24
 -18  -1   5  265.88   16.34
 -18   1   5  249.64   15.99
 -18  -1   5  243.17   14.99
  18   1  -5  256.72   24.36
 -17  -1   5  123.16    9.19
 -17  -1   5  112.33    9.48
 -17   1   5  128.18   10.02
  17  -1  -5  114.57   16.09
 -17  -1   5  114.73    8.22
  17   1  -5  102.85   15.14
 -16  -1   5   42.99    4.58
 -16  -1   5   49.23    5.45
 -16   1   5   48.87    5.97
 -16  -1   5   42.13    5.76
  16  -1  -5   45.31   10.49
  16   1  -5   41.19    9.54
 -15  -1   5   58.27    6.45
 -15   1   5   48.25    5.78
 -15  -1   5   43.56    4.61
 -15  -1   5   56.26    5.70
  15   1  -5   31.59    8.38
 -15  -1   5   39.37    5.25
 -15   1   5   41.11    5.42
  15  -1  -5   40.59    9.26
 -14   1   5    8.24    3.18
 -14  -1   5   20.03    3.97
 -14  -1   5   12.24    2.63
 -14  -1   5   13.12    3.05
 -14  -1   5   15.89    3.43
 -14   1   5   17.70    3.47
 -13  -1   5   12.06    3.35
 -13   1   5   10.88    3.11
 -13   1   5   19.77    3.65
 -13  -1   5   14.72    3.03
 -13  -1   5    9.92    2.94
 -13   1   5   11.52    3.18
 -12   1   5  105.72    8.23
 -12  -1   5  119.82    8.75
 -12   1   5  117.63   12.41
 -12  -1   5   94.19   11.42
 -12  -1   5   86.62    7.65
 -12   1   5   99.29    8.01
 -12   1   5  121.33    8.66
 -11  -1   5   -0.46    2.26
 -11  -1   5    1.16    2.98
 -11   1   5   -3.44    3.76
 -11   1   5   -0.45    2.31
 -10  -1   5  274.69   15.24
 -10   1   5  258.87   15.03
 -10   1   5  254.10   19.41
 -10  -1   5  280.65   19.92
  -9   1   5  232.18   18.03
  -9  -1   5  274.24   18.92
  -8   1   5   64.64    8.15
  -8  -1   5   62.36    8.40
  -7  -1   5   86.57    9.54
  -7   1   5   95.20    6.97
  -7  -1   5   92.34    6.97
  -7   1   5  109.39   10.53
  -6  -1   5  373.23   19.14
  -6   1   5  390.81   23.51
  -6  -1   5  358.50   23.00
  -6   1   5  374.82   19.11
  -5   1   5   40.84    4.29
  -5  -1   5   41.34    4.23
  -5   1   5   48.05    6.69
  -5  -1   5   44.11    6.46
  -4   1   5  513.74   24.95
  -4  -1   5  523.96   25.01
  -4   1   5  498.68   29.00
  -4  -1   5  531.01   29.30
  -3   1   5 1173.93   52.32
  -3  -1   5 1130.76   52.23
  -3  -1   5 1144.98   56.58
  -3   1   5 1269.16   57.16
  -2   1   5   38.26    6.36
  -2  -1   5   58.64    7.02
  -1  -1   5   -0.75    2.65
   1  -1  -5    1.46    2.91
  -1   1   5    3.03    3.16
   1   1  -5    2.17    2.80
   0  -1  -5 1641.12   77.92
   0   1  -5 1668.17   77.99
   0  -1   5 1722.27   78.13
   0   1   5 1670.50   77.97
   1  -1   5  607.52   29.24
   1   1   5  676.53   34.02
   1  -1   5  612.20   33.40
  -1  -1  -5  636.97   33.36
  -1   1  -5  663.00   33.68
   1   1   5  614.22   29.39
  -2   1  -5   92.03    9.53
  -2  -1  -5  102.24    9.83
   2   1   5  109.33    7.19
   2  -1   5  100.68    6.96
   2   1   5  100.44    9.70
   2  -1   5   94.53    9.52
   3  -1   5   35.80    4.11
   3   1   5   47.03    6.75
   3  -1   5   44.35    6.69
  -3  -1  -5   53.07    7.03
  -3   1  -5   41.26    6.40
   3   1   5   42.52    4.27
   4  -1   5  409.58   21.39
   4   1   5  434.50   21.56
   4   1   5  476.73   26.30
   4  -1   5  430.37   25.50
   5   1   5   55.47    7.64
   5   1   5   37.36    4.32
   5  -1   5   40.77    4.49
   5  -1   5   37.33    6.62
   6   1   5   34.88    7.05
   6  -1   5   37.72    7.37
   7  -1   5    8.98    4.47
   7   1   5    6.80    4.74
   8   1   5  135.40   14.28
   8  -1   5  157.97   14.48
   9  -1   5   94.83   12.06
   9   1   5  106.38   12.35
  10   1   5   -1.42    4.47
 -10   1  -5   -0.89    2.69
  10   1   5    1.60    2.96
  10  -1   5    2.79    3.82
 -10  -1  -5    0.50    2.49
 -11   1  -5  136.35    9.49
 -11   1  -5  115.28    9.03
 -11   1  -5  128.83    9.67
 -11  -1  -5  153.68   10.31
  11   1   5  133.93   14.82
  12   1   5   92.97   12.89
 -12   1  -5  116.69    9.11
 -12   1  -5  110.32    8.56
  12  -1   5   99.80   13.40
 -12  -1  -5  103.29    8.71
 -13   1  -5   -5.40    3.03
  13  -1   5   -1.71    5.18
  13   1   5   -1.74    4.19
 -13   1  -5   -0.59    2.68
 -13  -1  -5    2.93    2.97
 -14   1  -5  262.38   16.33
 -14   1  -5  288.00   17.01
 -14  -1  -5  280.02   17.02
  14  -1   5  259.68   24.04
  14   1   5  246.28   23.44
  15   1   5   48.21   10.10
  15  -1   5   34.29    8.51
 -15   1  -5   41.49    5.89
 -15  -1  -5   38.82    5.84
 -15   1  -5   47.18    5.84
 -16   1  -5  286.32   17.45
 -16  -1  -5  279.64   17.34
 -16   1  -5  293.41   17.17
  16  -1   5  239.41   23.82
  16   1   5  253.34   24.51
  17  -1   5    2.02    5.22
  17   1   5    6.11    5.57
 -17   1  -5    3.21    3.05
 -17  -1  -5    5.77    3.51
 -17   1  -5    9.61    3.47
  18  -1   5    8.15    5.60
  18   1   5   22.50    7.00
 -18   1  -5   16.55    4.22
 -18  -1  -5   10.17    3.80
 -18   1  -5   16.13    4.12
  19   1   5   -2.02    4.11
 -19  -1  -5    0.62    2.82
 -19   1  -5   -0.62    2.71
  19  -1   5   -2.02    4.50
 -20  -1  -5  161.88   11.76
 -20   1  -5  167.05   11.94
 -21  -1  -5   -0.55    2.68
 -21   1  -5    8.32    2.99
 -22   1  -5   55.30    5.80
 -22  -1  -5   49.31    5.57
 -23  -1  -5  240.34   13.74
 -23  -1  -5  207.65   13.26
 -23   1  -5  227.77   13.57
  24   1   5   -0.46    2.12
  24  -1   5    0.47    1.96
 -24   1  -5   -0.38    2.17
 -24  -1  -5    2.63    2.14
 -25  -1  -5   95.41    6.70
  25  -1   5   94.39    7.28
 -25   1  -5  111.21    7.09
 -25  -1  -5  103.53    6.97
 -26  -1  -5   35.45    3.18
 -26   1  -5   38.57    3.37
 -26  -1  -5   38.26    3.39
  27   2  -5   96.91    6.08
 -26  -2   5   50.69    3.95
 -25  -2   5  120.36    7.02
 -25  -2   5   92.30    6.71
 -24  -2   5  130.54    8.13
 -24  -2   5  120.14    7.67
 -23  -2   5   19.15    3.12
 -23  -2   5   14.92    3.01
 -23  -2   5   15.66    2.89
 -22   2   5   61.06    5.68
 -22  -2   5   52.86    5.68
 -22  -2   5   57.83    5.61
 -22   2   5   50.62    5.42
 -21   2   5  222.79   13.86
 -21  -2   5  228.27   13.20
 -21  -2   5  248.74   14.73
 -21  -2   5  218.58   13.80
 -21   2   5  236.79   14.08
 -20  -2   5    1.13    2.25
 -20   2   5   -0.51    2.31
 -20  -2   5    5.58    2.25
 -20  -2   5    6.20    2.49
 -20   2   5    1.04    2.06
 -19  -2   5  377.93   20.16
 -19   2   5  340.36   20.35
 -19  -2   5  368.64   21.09
 -19  -2   5  398.78   21.02
 -19   2   5  388.89   20.92
 -18  -2   5   85.45    7.22
 -18   2   5   76.12    7.32
 -18  -2   5   81.68    7.84
 -18   2   5   79.82    7.39
 -18  -2   5   94.97    7.88
  18   2  -5   58.44   10.77
 -17   2   5   22.00    4.37
 -17  -2   5   31.84    4.52
 -17  -2   5   22.52    3.86
 -17  -2   5   27.68    4.77
 -17   2   5   40.58    4.92
  17   2  -5   29.25    7.61
 -16  -2   5  360.54   19.71
 -16   2   5  325.24   19.69
 -16  -2   5  412.43   21.17
 -16  -2   5  366.12   19.94
 -16   2   5  347.98   19.81
  16  -2  -5  281.89   25.75
  16   2  -5  338.25   26.77
 -15  -2   5  745.98   34.93
 -15   2   5  715.31   35.11
 -15  -2   5  688.93   35.31
 -15  -2   5  749.38   34.88
 -15   2   5  700.79   34.80
  15  -2  -5  657.37   43.12
 -14  -2   5  906.74   41.14
 -14  -2   5  870.54   40.83
 -14   2   5  894.05   41.34
 -14   2   5  858.76   40.88
  14  -2  -5  813.76   49.35
 -14  -2   5  796.67   41.26
 -13  -2   5 1021.41   48.60
 -13   2   5 1080.03   48.93
 -13  -2   5 1081.28   49.38
  13  -2  -5  944.34   56.29
 -13   2   5 1026.42   48.42
  13   2  -5  967.73   56.30
 -13   2   5 1030.31   47.07
 -12  -2   5  164.07   10.46
 -12  -2   5  128.57    9.72
 -12   2   5  132.63    9.56
  12  -2  -5  154.26   15.61
 -12   2   5  148.00   10.17
 -12   2   5  147.44    9.80
  12   2  -5  158.56   15.31
 -12   2   5  125.97    8.77
 -11   2   5 1056.73   50.24
 -11  -2   5 1068.61   50.92
 -11  -2   5 1107.54   50.72
 -11   2   5 1183.98   51.28
 -11   2   5 1077.50   50.41
 -10  -2   5  155.94   10.56
 -10   2   5  145.51   10.00
 -10  -2   5  158.55   10.39
 -10   2   5  186.60   11.07
  -9   2   5  379.24   20.02
  -9  -2   5  377.86   20.67
  -9  -2   5  395.82   20.51
  -9   2   5  366.55   24.14
  -9  -2   5  410.59   25.45
  -9   2   5  416.73   20.88
  -9  -2   5  413.90   21.27
  -8  -2   5  160.51   10.18
  -8   2   5  155.94    9.96
  -8  -2   5  183.97   11.18
  -8   2   5  170.21   13.72
  -8  -2   5  160.92   13.84
  -7  -2   5  363.48   18.74
  -7   2   5  325.81   21.37
  -7  -2   5  332.86   21.79
  -7   2   5  340.53   17.70
  -6   2   5  293.26   18.77
  -6  -2   5  275.62   18.95
  -5   2   5  540.88   30.76
  -5  -2   5  605.23   31.77
  -4   2   5  200.35   11.48
   4  -2  -5  218.29   15.03
  -4   2   5  208.41   14.73
  -4  -2   5  210.73   14.96
   4   2  -5  207.69   14.60
  -3   2   5  484.81   23.92
  -3   2   5  486.83   27.52
  -3  -2   5  536.76   28.53
   3  -2  -5  504.89   27.94
   3   2  -5  514.23   27.71
  -2   2   5  644.67   33.62
  -2  -2   5  619.34   33.70
   2  -2  -5  658.49   33.86
  -2   2   5  616.93   29.60
   2   2  -5  660.93   33.56
  -1   2   5   18.67    2.65
   1  -2  -5   22.07    4.37
   1   2  -5   29.61    4.92
  -1   2   5   17.83    4.05
  -1  -2   5   25.83    4.78
   0   2  -5 2663.11  117.43
   0   2   5 2576.49  117.37
   0  -2   5 2504.15  117.28
   0  -2  -5 2695.67  117.90
   1   2   5  333.86   20.54
   1  -2   5  325.88   20.44
   2   2   5  891.63   45.28
   2  -2   5  904.99   45.56
   3   2   5  397.86   23.70
   3  -2   5  384.21   23.50
   4   2   5   25.00    3.21
   4   2   5   22.74    4.80
   4  -2   5   15.60    4.21
   5   2   5 1386.43   62.33
   5   2   5 1353.26   67.27
   5  -2   5 1451.56   67.75
   6   2   5  277.18   19.07
   6   2   5  289.75   20.13
   6  -2   5  327.37   20.91
   6   2   5  293.71   15.95
   7   2   5  348.68   18.23
   7   2   5  365.49   21.69
   7  -2   5  323.93   18.08
   7   2   5  325.70   22.69
   7  -2   5  334.65   22.58
   8   2   5  534.91   27.26
   8  -2   5  488.63   24.78
   8  -2   5  483.50   29.64
   8   2   5  461.31   24.57
   8   2   5  479.27   29.85
  -9   2  -5   24.57    5.24
   9   2   5   16.61    7.14
   9   2   5   25.04    5.80
   9  -2   5   11.65    4.57
   9   2   5   23.34    3.72
   9  -2   5   14.96    3.36
  10  -2   5  477.34   25.06
 -10   2  -5  440.07   27.02
  10  -2   5  475.81   30.44
  10   2   5  490.31   25.16
 -10   2  -5  490.58   24.83
  10  -2   5  509.04   32.08
  10   2   5  507.91   31.91
 -11   2  -5    1.72    2.87
  11   2   5    3.25    2.42
  11  -2   5    4.36    4.39
 -11   2  -5    9.71    2.84
  11  -2   5    6.54    2.68
  11   2   5   -1.44    4.16
 -11   2  -5    5.66    2.86
 -12   2  -5   87.41    8.80
  12   2   5   90.56   12.14
  12   2   5   78.17    7.60
  12  -2   5   89.27   12.01
 -12   2  -5   89.24    7.67
 -12   2  -5   98.79    8.44
 -12  -2  -5  102.82    8.06
 -12   2  -5   92.71    7.85
  12  -2   5   84.14    7.85
  13   2   5   80.86   12.13
  13  -2   5   92.41    8.45
  13  -2   5  105.10   13.57
 -13   2  -5  104.92    8.28
 -13  -2  -5  100.90    8.28
 -13   2  -5   91.74    8.74
 -13   2  -5   92.03    8.00
  13   2   5  109.28    8.97
 -14   2  -5  611.80   30.08
 -14  -2  -5  578.84   29.95
 -14   2  -5  602.51   31.06
 -14   2  -5  608.26   30.11
  14   2   5  580.95   30.71
  14  -2   5  592.64   38.75
  14   2   5  532.49   37.48
 -15   2  -5  169.11   11.43
 -15  -2  -5  175.57   11.73
 -15   2  -5  157.18   12.03
 -15   2  -5  164.25   11.21
  15   2   5  169.45   12.23
  15   2   5  159.21   17.27
  16   2   5  172.87   18.86
 -16   2  -5  202.24   13.03
 -16  -2  -5  212.79   13.46
 -16   2  -5  207.74   14.24
  16   2   5  231.97   14.67
 -16   2  -5  222.99   13.32
  16  -2   5  189.76   13.84
 -17  -2  -5   45.22    5.62
 -17   2  -5   57.62    5.90
 -17   2  -5   53.67    6.55
 -17   2  -5   58.49    5.85
  17  -2   5   66.84    6.85
  17   2   5   60.88    6.71
  18  -2   5  484.92   27.36
  18   2   5  549.34   27.89
 -18   2  -5  495.84   26.29
 -18   2  -5  516.34   27.51
 -18  -2  -5  543.72   26.90
 -18   2  -5  536.57   26.29
 -19   2  -5  179.36   11.49
 -19  -2  -5  177.39   11.65
 -19   2  -5  174.13   12.35
  19  -2   5  198.87   12.70
  19   2   5  184.65   12.52
 -20  -2  -5   89.28    7.10
  20   2   5   93.50    7.69
 -20   2  -5   88.35    6.95
 -20  -2  -5   95.96    8.15
  20  -2   5   75.41    7.26
 -21  -2  -5  642.36   30.52
  21   2   5  571.26   29.44
 -22  -2  -5   78.15    6.72
 -22  -2  -5   76.24    5.81
 -23  -2  -5   61.48    5.43
 -23  -2  -5   55.22    4.35
  25   3  -5  211.87   10.58
 -24  -3   5    4.83    1.54
  24   3  -5    5.58    1.77
 -23  -3   5  301.73   15.58
 -22  -3   5  199.69   11.14
 -22  -3   5  217.56   12.22
 -21  -3   5   64.18    5.30
 -21  -3   5   65.19    6.14
 -20  -3   5  492.02   24.49
 -19  -3   5   96.63    7.64
  19   3  -5   99.06    8.54
  18   3  -5  374.50   20.66
 -18  -3   5  339.87   19.30
 -17  -3   5  486.98   25.45
 -17  -3   5  475.37   26.08
  17   3  -5  491.96   26.20
 -16  -3   5   96.05    8.69
 -16  -3   5   94.95    8.15
  16   3  -5   82.97    8.37
 -15  -3   5  366.89   20.67
 -15  -3   5  395.67   21.63
  15   3  -5  361.62   20.98
 -15   3   5  349.32   19.00
  14   3  -5  114.25    9.47
 -14  -3   5  108.31    9.34
 -14   3   5  101.56    7.91
 -13  -3   5   36.71    5.56
  13   3  -5   29.58    5.18
 -13   3   5   40.66    4.69
 -12  -3   5  464.05   25.34
  12   3  -5  454.26   24.83
 -12   3   5  459.10   23.72
 -11  -3   5  527.01   27.71
 -11  -3   5  542.59   28.29
  11   3  -5  517.98   27.66
 -11   3   5  526.46   26.81
 -10  -3   5  245.40   15.33
 -10  -3   5  264.12   15.97
  10   3  -5  231.66   15.10
   9   3  -5 2017.60   92.38
  -9  -3   5 2089.85   92.62
  -9  -3   5 2081.83   92.94
  -8  -3   5   -0.54    2.55
  -8  -3   5   -1.71    2.55
   8   3  -5    2.15    2.68
  -7  -3   5 1582.20   71.81
  -7  -3   5 1553.67   72.05
   7   3  -5 1594.84   71.84
  -6  -3   5  918.43   43.92
  -6  -3   5  907.46   44.17
   6   3  -5  947.54   44.07
  -5  -3   5  211.86   13.20
   5   3  -5  191.48   12.82
  -5   3   5  222.22   13.30
  -5  -3   5  199.16   12.97
  -4  -3   5 1950.31   84.16
   4   3  -5 1828.71   83.78
  -4  -3   5 1844.29   83.66
   4   3  -5 1867.36   83.84
   3   3  -5  278.28   16.26
  -3  -3   5  276.08   16.08
   3   3  -5  290.38   16.36
   2   3  -5  649.74   30.98
  -2  -3   5  608.11   30.56
   2   3  -5  605.77   30.76
   1   3  -5 1236.96   58.06
  -1   3   5 1254.27   58.28
  -1  -3   5 1240.35   57.77
   1   3  -5 1340.15   58.63
   0   3  -5    3.06    2.71
   0  -3   5    1.76    2.26
   0   3  -5    3.31    2.44
   0   3   5   -1.01    2.53
   1  -3   5 1103.33   51.35
   1   3   5 1130.37   52.41
  -1   3  -5 1078.12   51.55
   1   3   5 1167.73   52.41
  -1   3  -5 1115.71   52.23
  -2   3  -5  577.50   35.83
   2   3   5  621.69   32.16
   2  -3   5  618.07   30.14
  -2   3  -5  606.06   30.36
  -2   3  -5  601.65   30.96
   2   3   5  661.83   31.40
  -3   3  -5   92.76    7.45
   3   3   5  110.06   14.49
   3  -3   5   81.82    6.89
  -3   3  -5   97.56    8.05
   3   3   5   86.15    7.77
   4   3   5 1429.97   62.36
   4   3   5 1306.77   62.53
  -4   3  -5 1291.05   60.81
  -4   3  -5 1337.61   61.76
  -5   3  -5  198.51   17.03
   5   3   5  230.12   18.16
  -5   3  -5  208.39   13.17
  -5   3  -5  218.15   14.07
   5   3   5  263.90   15.18
   6   3   5  582.52   28.17
  -6   3  -5  465.77   30.77
  -6   3  -5  478.92   25.82
  -6   3  -5  538.73   27.26
  -7   3  -5 1024.18   50.29
  -7   3  -5 1008.95   56.02
  -7   3  -5 1089.73   51.81
  -8   3  -5  121.04    9.87
  -8   3  -5  107.43   11.91
  -9  -3  -5 1111.50   56.59
  -9   3  -5 1333.90   58.15
  -9   3  -5 1166.75   61.76
   9   3   5 1314.24   58.98
 -10  -3  -5 1059.43   51.98
 -10   3  -5 1078.49   52.43
 -10   3  -5  976.35   55.49
 -11  -3  -5  267.43   16.44
 -11   3  -5  238.72   16.15
 -11   3  -5  217.62   17.99
 -12  -3  -5 1025.93   49.66
 -12   3  -5  965.73   49.67
 -12   3  -5  984.40   49.44
 -13  -3  -5   -0.60    2.58
 -13   3  -5   -0.58    2.54
  13   3   5    0.54    2.41
 -13   3  -5    0.63    2.91
 -14  -3  -5  748.95   37.11
  14   3   5  785.80   36.25
 -14   3  -5  737.44   37.24
 -14   3  -5  701.04   36.53
 -15  -3  -5  159.40   11.21
 -15   3  -5  149.84   11.09
 -15   3  -5  136.33   10.41
 -16  -3  -5   63.35    6.46
 -16   3  -5   59.32    6.58
 -16   3  -5   64.65    6.29
 -17  -3  -5  343.76   19.43
 -17   3  -5  362.98   19.65
 -17   3  -5  344.31   18.72
 -18  -3  -5  101.83    8.01
 -18   3  -5  103.12    8.00
 -18   3  -5   99.31    7.41
 -19  -3  -5  159.06   10.57
 -19   3  -5  175.64   10.19
 -20  -3  -5  222.51   12.69
 -21  -3  -5    5.42    2.01
 -22  -3  -5  299.28   14.91
 -23  -3  -5  203.73   10.19
  21   4  -5  177.30    9.09
 -20  -4   5   77.54    5.16
  20   4  -5   81.23    5.45
 -19  -4   5   68.77    5.18
 -18  -4   5  634.66   30.17
 -17  -4   5    0.38    2.09
 -16  -4   5  683.64   32.17
 -16  -4   5  651.76   32.35
 -15  -4   5   32.04    4.22
 -15  -4   5   25.79    4.10
  15   4  -5   19.67    3.91
 -14  -4   5  239.42   14.45
  14   4  -5  209.70   14.07
 -14   4   5  223.48   13.11
 -13  -4   5  602.62   30.38
  13   4  -5  569.02   30.16
 -13  -4   5  631.39   30.42
 -13   4   5  603.72   29.27
 -12  -4   5    4.75    2.64
 -12  -4   5    5.66    3.01
  12   4  -5    4.82    3.06
 -12   4   5    8.99    3.01
 -11  -4   5  697.16   34.03
  11   4  -5  663.81   33.87
 -11  -4   5  655.63   33.63
 -11   4   5  697.09   33.21
 -10  -4   5  265.55   15.91
 -10  -4   5  271.01   15.95
  10   4  -5  242.31   15.67
 -10   4   5  265.04   15.49
   9   4  -5  135.71   10.39
  -9  -4   5  165.51   10.72
  -9   4   5  142.79   10.01
   8   4  -5 1014.45   47.34
  -8  -4   5 1003.71   47.14
   8   4  -5  929.60   45.69
  -8   4   5 1034.38   46.98
   7   4  -5    0.86    1.76
   7   4  -5    1.13    2.86
  -7  -4   5    2.67    2.48
  -6  -4   5  281.52   16.33
   6   4  -5  295.30   16.89
   6   4  -5  249.93   15.22
   5   4  -5  623.49   31.21
  -5  -4   5  680.60   32.21
   5   4  -5  559.36   36.12
   5   4  -5  662.03   32.46
  -4  -4   5  165.85   11.15
   4   4  -5  161.55   11.48
   4   4  -5  160.92   10.65
   4   4  -5  139.78   14.29
   3   4  -5  667.84   33.71
   3   4  -5  731.30   35.02
  -3  -4   5  768.13   34.52
  -2  -4   5  473.49   24.05
   2   4  -5  517.56   25.23
   2   4  -5  444.60   23.78
   1   4  -5   78.86    7.59
  -1  -4   5   94.43    7.37
   1   4  -5   88.68    7.39
   1   4  -5   75.44   10.66
   0  -4   5  479.90   24.50
   0   4  -5  450.25   30.59
   0   4  -5  520.56   25.90
   0   4  -5  466.62   24.72
  -1   4  -5    2.16    2.91
  -1   4  -5    1.30    3.13
  -1   4  -5    3.39    2.42
   2   4   5  609.99   30.89
  -2   4  -5  659.09   31.18
  -2   4  -5  603.63   36.81
  -2   4  -5  571.68   30.20
  -3   4  -5  831.76   38.74
   3   4   5  771.73   38.46
  -3   4  -5  773.15   38.08
  -3   4  -5  795.42   44.77
  -4   4  -5  215.83   13.57
  -4   4  -5  217.74   13.46
   4   4   5  210.84   13.68
  -5   4  -5 1207.85   52.81
   5   4   5 1098.28   52.83
  -5   4  -5 1090.72   52.49
   6   4   5  185.77   12.73
  -6   4  -5  211.56   12.98
  -7   4  -5  294.09   16.89
   7   4   5  289.39   16.89
   8   4   5  996.05   46.51
  -8   4  -5  973.50   46.40
   9   4   5    2.33    2.29
  -9   4  -5   -0.48    2.57
  10   4   5  552.73   26.67
 -10   4  -5  512.15   26.90
 -10   4  -5  543.31   28.08
 -11   4  -5  554.60   27.78
 -11   4  -5  565.21   28.68
 -12   4  -5  108.60    8.06
 -12   4  -5  112.59    8.69
 -13   4  -5  474.96   23.50
 -13   4  -5  464.60   24.08
 -14   4  -5   93.32    6.77
 -14   4  -5   91.51    7.21
 -15   4  -5   27.21    3.61
 -16   4  -5  757.25   34.84
 -17   4  -5  138.37    8.03
 -18  -4  -5  541.88   25.04
 -19  -4  -5  206.84   10.30
 -13  -5   5   20.88    2.38
 -12  -5   5  254.81   12.78
 -11  -5   5   17.05    2.48
  11   5  -5   12.43    2.57
 -10  -5   5  162.86    9.09
  10   5  -5  157.19    9.52
   9   5  -5  402.13   20.29
  -9  -5   5  414.90   19.77
  -8  -5   5   -1.01    1.55
   8   5  -5   -0.65    2.17
   7   5  -5  572.15   26.18
  -7   5   5  547.45   25.70
  -7  -5   5  505.40   25.05
   6   5  -5   82.23    6.46
  -6  -5   5   81.73    5.71
  -6   5   5   90.63    6.51
   5   5  -5  157.18    9.77
  -5   5   5  152.46    9.57
   4   5  -5  237.64   13.41
  -4   5   5  238.09   13.20
   3   5  -5   21.54    3.52
  -3   5   5   23.66    3.49
   2   5  -5  357.25   18.80
  -2   5   5  370.90   18.74
   1   5  -5  165.87   10.42
  -1   5   5  175.30   10.41
   0   5   5    4.83    2.27
   0   5  -5    3.44    2.14
   1   5   5  134.34    8.73
   2   5   5    4.45    2.28
   3   5   5  422.81   21.11
   4   5   5   81.78    6.16
   5   5   5  154.62    9.09
   6   5   5  630.05   28.87
 -10   5  -5  119.04    7.22
 -11   5  -5  134.32    7.52
 -12   5  -5  376.55   17.46
 -28   0   6  142.55    8.42
 -27   0   6  645.34   30.97
 -27   0   6  672.29   31.22
 -26   0   6   24.04    3.71
 -26   0   6   19.85    3.61
 -25   0   6  311.63   17.61
 -25   0   6  312.96   17.76
 -24   0   6 1068.56   51.74
 -24   0   6 1125.41   51.71
 -23   0   6   -1.77    2.94
 -23   0   6    0.61    3.40
 -22   0   6 1142.40   53.31
 -22   0   6 1079.24   53.21
 -21   0   6  332.86   19.79
 -21   0   6  316.56   19.80
  21   0  -6  322.87   28.97
 -20   0   6  496.28   26.98
 -20   0   6  490.67   27.08
  20   0  -6  442.79   36.22
 -19   0   6  965.55   47.03
  19   0  -6  911.24   58.80
 -18   0   6   15.96    4.29
  18   0  -6   15.85    8.28
 -17   0   6 1277.58   59.68
  17   0  -6 1187.88   71.40
 -16   0   6  833.81   42.11
 -16   0   6  872.93   42.51
 -15   0   6  189.29   13.47
 -15   0   6  183.43   12.91
 -14   0   6 1700.52   85.01
 -14   0   6 1621.40   75.96
 -14   0   6 1702.95   76.50
 -13   0   6  573.91   36.13
 -13   0   6  538.59   28.72
 -13   0   6  590.72   29.50
 -12   0   6 1420.73   66.51
 -12   0   6 1500.01   66.23
 -12   0   6 1480.74   74.15
 -12   0   6 1412.22   66.08
 -11   0   6  953.97   43.82
 -11   0   6  897.24   43.04
 -11   0   6  933.80   50.58
 -11   0   6  895.14   43.19
 -10   0   6  360.32   25.17
  -9   0   6 1975.12   88.28
  -9   0   6 1990.18   95.01
  -8   0   6 3318.63  146.56
  -8   0   6 3496.43  153.76
  -7   0   6 3555.89  154.44
  -7   0   6 3565.54  160.67
  -6   0   6 4264.19  184.90
  -6   0   6 4331.73  191.22
  -5   0   6 1000.57   46.01
  -5   0   6  989.09   51.26
  -4   0   6 4332.40  183.06
  -4   0   6 4017.45  176.93
  -3   0   6 3631.40  162.63
  -2   0   6   47.73    7.32
  -1   0   6  417.51   25.66
   1   0  -6  422.76   25.90
   0   0   6 2540.16  112.89
   0   0   6 2411.44  106.96
   0   0  -6 2464.73  112.50
   1   0   6 1441.72   64.99
   1   0   6 1470.36   70.31
  -1   0  -6 1457.44   70.29
  -2   0  -6 3097.26  137.08
   2   0   6 2987.20  131.06
   2   0   6 3002.38  136.68
  -3   0  -6  246.03   18.16
   3   0   6  268.61   18.80
   3   0   6  228.24   13.76
   4   0   6 2620.60  115.56
   4   0   6 2425.07  108.81
   5   0   6 1945.86   87.60
   5   0   6 2031.32   94.23
   6   0   6  561.33   28.40
   6   0   6  559.01   35.23
   7   0   6  892.48   42.68
   7   0   6  899.55   50.05
   8   0   6  337.49   25.55
   9   0   6  417.14   22.38
   9   0   6  422.40   29.85
  10   0   6 2707.23  133.66
  10   0   6 2813.86  123.21
 -11   0  -6  297.98   17.63
 -11   0  -6  279.08   16.02
  11   0   6  306.21   25.11
 -12   0  -6  990.03   46.81
 -12   0  -6 1028.02   48.50
  12   0   6 1000.25   59.29
 -13   0  -6 1376.06   62.11
 -13   0  -6 1380.40   63.83
  13   0   6 1240.09   73.50
  14   0   6    8.08    5.85
 -14   0  -6   13.32    4.07
 -14   0  -6   16.38    3.47
 -15   0  -6  827.59   41.18
 -15   0  -6  898.08   43.22
  15   0   6  936.01   55.26
  16   0   6  120.00   16.87
 -16   0  -6  124.97    9.63
 -16   0  -6  163.96   11.80
 -17   0  -6  193.44   13.88
  17   0   6  201.30   21.56
 -18   0  -6  746.13   37.66
  18   0   6  734.41   49.19
 -19   0  -6   59.21    6.83
 -20   0  -6  312.07   18.56
 -21   0  -6  214.71   13.96
  22   0   6   56.07    6.39
 -22   0  -6   54.21    5.91
  23   0   6  657.14   33.41
 -23   0  -6  685.27   32.68
 -24   0  -6    2.53    1.68
  24   0   6    4.06    2.29
 -25   0  -6  381.29   18.92
 -26   0  -6  247.63   12.55
 -28  -1   6  107.56    6.30
 -27   1   6    2.22    1.46
 -27  -1   6    4.23    1.71
 -27  -1   6    0.27    1.43
 -27   1   6    5.08    1.73
 -26   1   6  495.70   23.43
 -26  -1   6  481.72   23.50
 -26  -1   6  468.97   23.48
 -26   1   6  460.93   23.43
 -25  -1   6  119.85    8.76
 -25   1   6  122.94    8.78
 -25  -1   6  137.76    9.23
 -25   1   6  129.90    9.02
 -24   1   6  143.57    9.94
 -24  -1   6  132.95    9.70
 -24  -1   6  128.30    9.63
 -24   1   6  145.93   10.02
 -23   1   6  877.05   40.14
 -23  -1   6  797.09   39.79
 -23  -1   6  805.23   39.90
 -23   1   6  815.89   40.06
 -22   1   6   12.08    3.53
 -22  -1   6   16.07    3.71
 -22  -1   6   13.51    3.60
 -22   1   6   17.27    3.77
 -21   1   6  689.42   33.85
 -21  -1   6  705.43   33.89
 -21  -1   6  622.17   31.83
 -21  -1   6  645.96   33.64
 -21   1   6  649.19   33.77
 -20   1   6  216.48   14.09
 -20  -1   6  189.69   12.46
 -20  -1   6  205.00   13.96
 -20   1   6  203.64   14.10
  20   1  -6  202.24   21.47
  20  -1  -6  166.52   20.66
 -19   1   6   26.84    5.14
 -19  -1   6   19.44    3.57
 -19  -1   6   17.68    4.35
 -19   1   6   19.97    4.25
  19   1  -6   27.63    8.26
  19  -1  -6   24.86    8.54
 -18   1   6 1162.05   52.38
 -18  -1   6 1072.24   50.46
 -18  -1   6 1079.28   51.89
 -18   1   6 1085.09   51.93
  18  -1  -6 1104.93   65.22
 -17   1   6  861.92   41.73
 -17  -1   6  806.02   40.17
 -17  -1   6  831.97   39.14
 -17  -1   6  837.14   41.46
 -17   1   6  876.66   41.89
  17   1  -6  827.31   52.66
  17  -1  -6  796.57   52.93
 -16   1   6  377.12   21.15
 -16  -1   6  361.66   20.93
 -16   1   6  358.57   20.60
 -16  -1   6  347.71   19.57
 -16  -1   6  328.15   18.51
 -16  -1   6  365.73   20.58
 -16   1   6  352.86   20.62
  16   1  -6  335.47   28.58
  16  -1  -6  364.03   30.21
 -15  -1   6 1451.58   64.90
 -15  -1   6 1389.35   62.52
 -15   1   6 1403.47   64.68
 -15  -1   6 1316.80   63.28
 -15  -1   6 1322.29   64.14
 -15   1   6 1389.39   64.41
 -15   1   6 1446.84   64.86
 -14   1   6  212.39   14.11
 -14  -1   6  228.76   14.39
 -14  -1   6  207.13   12.40
 -14   1   6  221.13   14.01
 -14  -1   6  192.40   12.81
 -14  -1   6  211.06   13.74
 -14   1   6  193.11   13.41
 -13   1   6 1090.22   52.89
 -13  -1   6 1152.27   53.13
 -13  -1   6 1079.58   51.24
 -13   1   6 1159.75   53.04
 -13  -1   6 1161.86   52.26
 -13   1   6 1123.90   60.61
 -13  -1   6 1164.90   61.19
 -13  -1   6 1117.84   52.64
 -13   1   6 1102.47   52.68
 -12   1   6  521.13   26.47
 -12  -1   6  527.68   26.63
 -12  -1   6  452.04   24.62
 -12   1   6  523.92   26.28
 -12  -1   6  482.40   25.42
 -12  -1   6  564.20   33.75
 -12   1   6  526.15   32.81
 -12  -1   6  501.60   25.98
 -12   1   6  504.45   25.96
 -11   1   6  423.02   22.56
 -11  -1   6  395.55   21.13
 -11   1   6  430.59   22.45
 -11  -1   6  424.58   21.93
 -11  -1   6  409.55   21.74
 -11   1   6  376.29   27.30
 -11  -1   6  422.87   28.21
 -11  -1   6  412.01   22.02
 -11   1   6  435.56   22.25
 -11  -1   6  442.73   22.74
 -10  -1   6 1393.36   61.95
 -10   1   6 1344.32   61.73
 -10   1   6 1386.24   61.66
 -10   1   6 1290.95   68.27
 -10  -1   6 1456.23   69.41
 -10  -1   6 1347.08   61.45
 -10   1   6 1272.09   61.30
  -9   1   6  332.70   23.17
  -9  -1   6  312.28   22.83
  -8   1   6 1304.19   60.25
  -8  -1   6 1285.55   60.31
  -8   1   6 1434.85   67.23
  -8  -1   6 1366.29   67.19
  -7   1   6 2086.35   91.95
  -7  -1   6 2010.14   91.75
  -7   1   6 2178.66   98.60
  -7  -1   6 2100.36   98.24
  -6   1   6   70.38    6.32
  -6   1   6   78.38    9.46
  -6  -1   6   88.05    9.86
  -6  -1   6   76.45    6.50
  -5   1   6  324.95   17.07
  -5   1   6  301.01   21.22
  -5  -1   6  281.41   20.78
  -5  -1   6  310.86   16.88
  -4   1   6 2558.97  114.98
  -4  -1   6 2684.41  115.20
  -4   1   6 2675.24  120.97
  -4  -1   6 2663.18  120.88
  -3   1   6  309.34   16.79
  -3  -1   6  298.80   16.71
  -3   1   6  355.23   21.97
  -3  -1   6  326.45   21.27
  -2   1   6 2971.84  132.83
  -2  -1   6 2830.21  132.51
   2  -1  -6 2968.93  132.17
   2   1  -6 2886.88  132.04
  -1   1   6  224.74   17.21
  -1  -1   6  234.16   17.32
   1  -1  -6  240.89   17.37
   1   1  -6  235.45   17.22
   0   1   6  436.13   27.90
   0  -1   6  461.12   28.00
   0  -1  -6  543.10   29.03
   0   1  -6  454.15   27.95
   1  -1   6 1722.99   80.16
   1   1   6 1841.57   80.36
  -1  -1  -6 1809.20   86.21
  -1   1  -6 1865.75   85.98
   1   1   6 1789.86   85.84
   1  -1   6 1970.98   86.47
  -2  -1  -6    4.02    3.55
  -2   1  -6   10.96    3.75
   2   1   6    7.52    2.46
   2   1   6    5.04    3.32
   2  -1   6    2.97    3.50
   2  -1   6    5.48    2.13
   3  -1   6  291.47   16.36
   3   1   6  293.62   16.36
   3   1   6  330.64   21.47
   3  -1   6  316.78   21.00
   4   1   6 1490.01   69.82
   4  -1   6 1467.96   69.51
   4   1   6 1418.16   63.46
   4  -1   6 1329.47   63.29
   5  -1   6  594.86   29.03
   5   1   6  561.44   33.98
   5  -1   6  621.28   34.67
   5   1   6  564.96   28.80
   6  -1   6 2335.89  104.25
   6   1   6 2393.01  104.54
   6   1   6 2354.23  111.13
   6  -1   6 2340.45  110.86
   7  -1   6   17.33    5.71
   7   1   6    8.65    2.92
   7   1   6    8.64    6.27
   7   1   6    2.51    3.82
   7  -1   6   11.05    5.14
   7  -1   6   12.09    3.30
   8  -1   6  511.62   32.80
   8   1   6  485.42   26.16
  -8   1  -6  479.67   24.76
   8  -1   6  482.91   25.54
   8   1   6  496.08   25.71
   8   1   6  494.12   32.52
   9  -1   6 1391.82   72.91
   9   1   6 1412.04   64.82
   9   1   6 1519.40   65.23
  -9   1  -6 1395.67   63.72
   9  -1   6 1325.69   64.41
   9   1   6 1320.14   72.88
 -10  -1  -6  335.65   19.53
  10   1   6  345.53   19.92
 -10   1  -6  351.57   19.69
 -10   1  -6  338.13   19.02
  10  -1   6  331.82   26.17
  10   1   6  360.12   27.20
 -11   1  -6 1168.23   55.20
 -11   1  -6 1191.21   55.88
  11  -1   6 1161.27   65.11
  11   1   6 1200.33   65.60
 -11  -1  -6 1205.18   55.97
  12  -1   6  349.96   28.31
 -12   1  -6  350.69   20.42
 -12   1  -6  369.36   21.09
 -12  -1  -6  400.45   21.57
  12   1   6  347.21   28.71
 -13  -1  -6  560.04   29.23
 -13   1  -6  551.85   29.28
  13  -1   6  545.01   38.04
 -13   1  -6  538.07   28.65
  13   1   6  557.89   39.05
 -14   1  -6 1746.11   79.67
 -14   1  -6 1784.05   80.44
 -14  -1  -6 1766.32   80.47
  14  -1   6 1671.79   91.04
  14   1   6 1706.35   91.78
  15  -1   6   50.14   10.27
  15   1   6   14.19    7.05
 -15   1  -6   31.66    4.97
 -15  -1  -6   46.80    6.08
 -15   1  -6   31.15    5.17
  16  -1   6   77.42   12.95
  16   1   6   49.33   10.86
 -16   1  -6   70.98    7.68
 -16  -1  -6   71.05    7.71
 -16   1  -6   82.04    7.62
 -17   1  -6  791.56   38.41
 -17  -1  -6  768.13   38.13
 -17   1  -6  727.13   37.35
  17  -1   6  733.30   48.41
  17   1   6  751.91   48.89
 -18   1  -6    6.23    3.01
 -18  -1  -6    4.37    3.37
 -18   1  -6    2.85    3.08
 -19   1  -6  686.83   34.52
 -19  -1  -6  680.42   34.56
  19   1   6  692.26   35.63
 -20   1  -6   13.12    3.60
 -20  -1  -6   19.80    3.92
  20  -1   6   11.25    4.04
  20   1   6    8.54    3.53
 -21   1  -6  422.79   22.82
 -21  -1  -6  461.93   23.22
  21  -1   6  437.42   23.96
  21   1   6  412.82   23.50
  22   1   6  566.54   29.59
 -22   1  -6  592.25   29.02
 -22  -1  -6  619.29   29.27
  22  -1   6  564.94   29.69
  23   1   6    2.23    2.08
 -23  -1  -6    3.43    2.00
 -23  -1  -6    4.25    2.23
  23  -1   6    9.16    2.58
 -24   1  -6  302.30   15.25
 -24  -1  -6  274.17   15.06
 -24  -1  -6  296.03   15.24
 -25  -1  -6  345.34   16.54
 -25   1  -6  348.54   16.53
 -25  -1  -6  325.85   16.48
  27   2  -6  118.64    6.65
  26   2  -6   17.79    2.67
 -25  -2   6   92.29    6.49
  25   2  -6  178.07    8.72
 -24  -2   6   21.05    2.74
 -24  -2   6   22.38    2.90
 -23   2   6    6.73    2.18
 -23  -2   6    5.91    2.09
 -23  -2   6    6.94    2.21
 -22   2   6  465.39   23.09
 -22  -2   6  406.16   22.47
 -22  -2   6  452.69   23.15
 -22  -2   6  471.68   23.05
 -22   2   6  479.11   23.07
 -21   2   6  461.87   23.12
 -21  -2   6  433.14   22.62
 -21  -2   6  430.52   23.11
 -21  -2   6  436.86   22.77
 -21   2   6  442.67   22.83
 -20  -2   6  293.27   16.44
 -20   2   6  303.43   17.49
 -20  -2   6  311.83   17.28
 -20  -2   6  306.10   17.74
 -20  -2   6  316.90   17.54
 -20   2   6  312.10   17.48
 -19  -2   6  503.49   24.60
 -19   2   6  476.39   25.30
 -19  -2   6  497.02   25.03
 -19  -2   6  461.85   25.44
 -19  -2   6  470.91   25.09
 -19   2   6  472.28   25.14
 -18  -2   6  260.44   14.70
 -18   2   6  251.89   15.46
 -18  -2   6  228.32   14.46
 -18  -2   6  256.44   15.67
 -18  -2   6  222.68   14.64
 -18   2   6  244.38   15.08
 -17  -2   6  573.68   28.42
 -17   2   6  580.05   29.29
 -17  -2   6  538.77   28.13
 -17  -2   6  572.80   29.45
 -17  -2   6  551.99   28.71
 -17   2   6  542.50   28.69
  17   2  -6  550.48   37.46
 -16  -2   6   83.60    7.31
 -16  -2   6   68.60    6.65
 -16  -2   6   84.65    7.86
 -16   2   6   78.75    7.55
 -16  -2   6   70.81    7.06
 -16   2   6   79.99    7.35
  16   2  -6   72.75   12.04
 -15  -2   6   46.71    5.48
 -15   2   6   36.73    5.31
 -15  -2   6   37.40    5.50
 -15  -2   6   35.74    4.80
 -15   2   6   42.81    5.27
  15   2  -6   36.03    8.44
  15  -2  -6   43.02    8.95
 -14  -2   6   12.11    3.38
 -14   2   6   11.70    3.47
 -14  -2   6   13.94    3.64
 -14  -2   6    5.28    2.62
 -14   2   6   11.77    3.33
  14   2  -6    3.33    3.73
  14  -2  -6    3.47    4.20
 -13  -2   6  802.93   40.14
 -13   2   6  806.80   40.02
 -13  -2   6  825.46   40.90
 -13   2   6  901.93   41.10
 -13  -2   6  856.15   40.62
 -13  -2   6  818.96   40.08
 -13   2   6  891.35   40.64
  13   2  -6  782.34   48.34
  13  -2  -6  761.92   48.70
 -12   2   6  205.07   13.12
 -12  -2   6  233.58   13.72
 -12  -2   6  200.07   13.16
 -12   2   6  222.89   13.83
 -12  -2   6  212.58   13.76
 -12   2   6  209.23   13.07
 -12   2   6  193.88   11.93
 -11  -2   6  347.72   19.41
 -11  -2   6  350.60   19.31
 -11   2   6  356.28   19.64
 -11   2   6  348.24   19.06
 -11   2   6  340.26   19.00
 -10   2   6  128.69    9.33
 -10  -2   6  120.73    9.49
 -10  -2   6  157.10   10.26
 -10   2   6  143.33   10.08
 -10   2   6  131.47   13.16
 -10  -2   6  135.55   13.66
  -9  -2   6  142.15    9.82
  -9   2   6  149.44    9.85
  -9  -2   6  137.85    9.87
  -9   2   6  148.07   10.27
  -9   2   6  162.46   14.41
  -9  -2   6  129.35   13.18
  -8   2   6  480.68   24.81
  -8  -2   6  510.61   25.28
  -8   2   6  537.12   25.88
  -8  -2   6  456.80   25.50
  -8   2   6  477.49   24.46
  -8   2   6  530.07   30.45
  -8  -2   6  527.17   30.92
  -7  -2   6   47.53    4.94
  -7   2   6   44.43    4.69
  -7   2   6   52.01    5.33
  -7  -2   6   45.16    5.12
   7   2  -6   46.45    4.72
  -7   2   6   39.22    6.80
  -7  -2   6   41.19    6.97
  -6   2   6  536.95   25.93
  -6  -2   6  482.23   25.70
  -6   2   6  502.09   30.02
  -6  -2   6  469.33   29.73
  -6  -2   6  499.16   25.41
   6   2  -6  484.67   24.92
   6  -2  -6  520.56   30.31
  -6   2   6  539.85   25.35
  -5  -2   6  367.55   19.12
  -5   2   6  355.82   18.67
  -5  -2   6  341.96   18.66
   5  -2  -6  362.31   23.22
  -5   2   6  371.39   19.36
   5   2  -6  360.10   23.05
  -5   2   6  352.96   23.02
  -5  -2   6  343.23   23.04
  -5  -2   6  315.53   18.86
  -5   2   6  393.53   19.22
  -4  -2   6  175.28   11.47
  -4   2   6  208.55   12.28
  -4  -2   6  187.62   11.90
  -4   2   6  201.46   15.46
  -4  -2   6  184.28   15.25
  -4   2   6  203.66   12.21
   4  -2  -6  215.26   15.83
  -4   2   6  181.92   11.37
   4   2  -6  184.04   14.67
  -3  -2   6  470.55   25.19
  -3   2   6  504.02   29.89
  -3  -2   6  465.56   29.57
  -3   2   6  492.33   25.06
   3  -2  -6  620.12   31.45
   3   2  -6  488.87   29.25
  -3   2   6  596.83   26.93
  -2  -2   6  166.95   11.01
  -2   2   6  173.40   10.90
   2  -2  -6  223.42   15.87
   2   2  -6  184.89   14.47
  -2   2   6  183.28   14.78
  -2  -2   6  203.04   15.28
  -1   2   6  796.23   37.43
   1  -2  -6  870.24   43.33
   1   2  -6  834.52   42.56
  -1   2   6  792.91   42.39
  -1  -2   6  824.92   42.83
  -1  -2   6  757.55   37.46
   0   2  -6  450.72   25.93
   0  -2   6  415.83   21.07
   0   2   6  380.60   21.47
   0   2   6  401.31   25.39
   0  -2   6  431.27   26.09
   1  -2   6   23.31    3.57
   1   2   6   18.45    3.66
   1   2   6   22.93    5.22
   1  -2   6   25.04    5.32
   2   2   6  773.15   36.70
   2  -2   6  727.24   35.63
   2   2   6  769.56   41.15
   2  -2   6  776.93   41.24
   3  -2   6  420.06   21.88
   3   2   6  442.20   23.16
   3   2   6  420.04   26.72
   3  -2   6  447.45   27.28
   4  -2   6  181.74   11.09
   4   2   6  190.56   13.28
   4   2   6  171.66   15.06
   4  -2   6  175.71   15.20
  -4   2  -6  173.75   11.64
   5  -2   6   92.69    7.23
   5  -2   6  100.23    7.62
   5   2   6  101.44   11.92
   5   2   6   94.20    7.40
   5   2   6   97.42   11.00
   5  -2   6   86.48   10.48
  -5   2  -6  102.41    8.14
   6   2   6    0.56   11.25
   6   2   6    2.29    1.91
  -6   2  -6    2.61    2.52
   6  -2   6    2.02    2.01
   6   2   6    2.37    2.86
   6  -2   6    1.17    2.62
   6  -2   6    0.47    2.00
   7   2   6  330.68   18.82
   7   2   6  329.80   23.20
  -7   2  -6  341.43   18.89
   7  -2   6  359.01   19.21
   7   2   6  357.89   24.58
   7  -2   6  356.13   24.49
  -7   2  -6  341.29   19.39
   7  -2   6  356.21   18.50
   8   2   6  332.98   22.02
   8  -2   6  356.43   19.01
   8   2   6  365.80   25.06
   8  -2   6  361.41   24.47
  -8   2  -6  331.90   19.06
   8   2   6  325.77   18.57
  -8   2  -6  308.54   18.33
   9   2   6  352.33   19.93
   9   2   6  363.80   22.16
   9   2   6  383.74   26.15
   9  -2   6  415.96   26.87
   9  -2   6  349.65   20.06
  -9   2  -6  377.89   20.74
  -9   2  -6  361.89   22.91
  -9   2  -6  340.29   19.60
  10   2   6  916.28   43.50
 -10   2  -6  870.39   42.91
  10   2   6  961.79   51.41
  10  -2   6  955.48   50.82
 -10  -2  -6  893.53   43.20
  10  -2   6  918.30   43.57
 -10   2  -6  883.50   43.60
 -10   2  -6  866.97   45.98
 -11   2  -6   30.20    5.03
  11   2   6   22.46    6.19
  11  -2   6   15.96    5.55
 -11   2  -6   24.87    4.22
 -11  -2  -6   22.69    4.13
  11   2   6   23.46    4.16
 -11   2  -6   25.39    4.14
  11  -2   6   26.04    4.30
 -11   2  -6   26.06    5.13
  12  -2   6  105.50   13.11
  12   2   6   93.46   12.89
 -12   2  -6  118.09    9.03
 -12  -2  -6  111.98    8.94
 -12   2  -6  114.59    9.61
  12  -2   6   92.67    8.71
 -12   2  -6  121.83    8.96
  12   2   6  103.79    9.04
  13   2   6 1015.03   58.63
  13  -2   6 1034.01   50.65
 -13   2  -6 1021.90   49.71
 -13  -2  -6 1109.99   50.34
 -13   2  -6 1091.06   51.15
 -13   2  -6 1052.60   49.52
  13   2   6 1065.32   50.73
 -14  -2  -6   49.43    5.79
  14   2   6   39.24    8.85
 -14   2  -6   54.45    5.90
 -14   2  -6   63.87    7.03
  14   2   6   58.06    6.58
 -14   2  -6   54.55    5.74
  14  -2   6   51.60    6.44
  15   2   6 1188.27   68.57
 -15   2  -6 1247.63   59.66
 -15  -2  -6 1390.99   60.52
 -15   2  -6 1350.81   61.27
 -15   2  -6 1324.05   59.40
  15   2   6 1279.61   60.89
  15  -2   6 1246.02   60.74
  16   2   6   53.56    6.47
 -16   2  -6   53.14    5.79
 -16  -2  -6   69.75    6.51
 -16   2  -6   61.14    6.90
 -16   2  -6   57.20    5.56
  16  -2   6   58.88    6.64
  17   2   6   83.70    7.86
 -17   2  -6   82.00    7.12
 -17  -2  -6   89.28    7.52
 -17   2  -6   86.64    8.05
 -17   2  -6   90.88    6.89
  17  -2   6   82.47    7.82
 -18   2  -6 1048.51   49.44
 -18  -2  -6 1026.63   49.64
 -18   2  -6 1104.08   50.94
  18  -2   6 1085.60   50.76
  18   2   6 1127.40   50.93
  19   2   6    1.48    1.91
 -19   2  -6    2.72    1.81
 -19  -2  -6    1.25    1.78
  19  -2   6   -1.49    2.36
 -19   2  -6   -2.03    2.74
  20   2   6  132.11    9.13
 -20  -2  -6  118.59    8.49
 -21  -2  -6  135.83    9.44
 -22  -2  -6    1.09    1.87
 -23  -2  -6  727.58   33.62
 -24  -2  -6    2.37    1.31
  24   3  -6    7.33    1.65
  23   3  -6   88.77    6.07
 -22  -3   6   42.53    4.20
  22   3  -6   45.24    4.50
 -21  -3   6   86.99    6.77
  21   3  -6   97.13    7.29
 -21  -3   6   85.54    6.10
 -20  -3   6   31.62    4.08
 -20  -3   6   29.73    3.63
  20   3  -6   31.54    4.55
 -19  -3   6   15.19    3.07
  19   3  -6   19.85    3.90
 -18  -3   6  102.26    7.91
  18   3  -6   99.48    8.50
 -17  -3   6   34.83    4.93
  17   3  -6   48.96    6.00
 -16  -3   6    6.66    2.70
 -16  -3   6    7.60    3.59
  16   3  -6    5.83    2.87
 -15  -3   6   47.94    5.62
 -15  -3   6   39.51    5.66
  15   3  -6   39.28    5.60
 -15   3   6   42.28    4.42
 -14  -3   6   61.51    6.73
 -14  -3   6   54.18    6.62
  14   3  -6   67.77    7.16
 -14   3   6   67.87    5.92
 -13  -3   6   31.51    5.19
  13   3  -6   30.01    5.23
 -13   3   6   42.54    4.73
 -12  -3   6  691.93   35.73
  12   3  -6  690.56   35.29
 -12   3   6  719.40   34.07
 -11  -3   6  340.09   19.89
 -11  -3   6  366.56   20.56
  11   3  -6  333.18   19.69
 -11   3   6  346.38   18.97
 -10  -3   6   78.97    7.68
 -10  -3   6   62.43    7.21
  -9  -3   6    1.14    2.43
  -9  -3   6    1.82    2.53
   9   3  -6    0.56    2.61
  -8  -3   6   45.37    5.77
  -8   3   6   37.96    4.79
  -8  -3   6   40.20    5.46
   8   3  -6   37.90    5.21
  -7  -3   6  192.58   12.33
  -7   3   6  162.06   11.33
  -7  -3   6  170.30   12.11
   7   3  -6  179.86   12.05
  -6   3   6  365.97   21.12
  -6  -3   6  391.29   21.61
  -6   3   6  389.77   21.18
  -6  -3   6  431.29   22.17
   6   3  -6  401.21   21.60
  -5  -3   6  238.75   14.93
  -5   3   6  247.91   14.70
   5   3  -6  233.13   14.62
  -5   3   6  258.50   15.12
   5   3  -6  243.32   15.14
  -4  -3   6   76.46    7.08
  -4   3   6   71.14    6.62
   4   3  -6   70.21    6.85
  -4   3   6   79.90    7.20
   4   3  -6   74.07    7.20
  -3  -3   6  353.04   19.59
  -3   3   6  344.49   19.35
   3   3  -6  353.96   19.34
  -3   3   6  350.41   19.70
   3   3  -6  353.76   19.78
  -2   3   6  997.17   45.63
   2   3  -6  960.17   45.25
  -2  -3   6  945.71   45.29
   2   3  -6  933.61   45.79
  -1  -3   6  265.22   16.34
  -1   3   6  301.74   17.43
   1   3  -6  301.47   16.57
   1   3  -6  280.09   17.04
   0   3  -6   26.52    4.66
   0  -3   6   28.38    4.21
   0   3   6   29.40    8.40
   0   3  -6   28.68    4.19
   0   3   6   28.06    4.44
   1  -3   6  374.65   20.76
   1   3   6  399.91   23.51
  -1   3  -6  391.61   20.79
   1   3   6  399.25   21.77
  -1   3  -6  391.63   21.84
  -2   3  -6    2.32    2.80
   2   3   6   -6.44   12.11
   2  -3   6    2.77    2.23
  -2   3  -6   -0.46    2.40
   2   3   6    0.59    2.45
  -3   3  -6   39.53    5.52
   3  -3   6   40.89    4.81
   3   3   6   42.20   14.33
  -3   3  -6   37.13    4.68
   3   3   6   49.20    6.03
   4  -3   6  230.31   13.19
  -4   3  -6  174.02   16.45
  -4   3  -6  208.84   13.91
   4   3   6  222.77   20.63
  -4   3  -6  196.12   12.66
   4   3   6  248.16   15.02
  -5   3  -6  211.22   13.40
   5   3   6  235.92   20.10
  -5   3  -6  252.96   15.33
  -5   3  -6  199.96   17.73
   5   3   6  264.70   16.05
  -6   3  -6  143.60   10.16
   6   3   6  162.61   16.55
  -6   3  -6  172.17   12.12
  -6   3  -6  156.87   14.68
  -7   3  -6  382.92   22.37
  -7   3  -6  358.37   25.70
  -8   3  -6  397.46   22.79
  -8   3  -6  378.57   25.88
   8   3   6  439.91   24.64
  -9   3  -6  698.65   42.74
  -9   3  -6  775.82   39.79
 -10  -3  -6  662.96   34.69
 -10   3  -6  690.87   35.66
 -10   3  -6  614.20   38.08
 -11   3  -6    7.69    4.02
 -11  -3  -6   19.53    3.90
 -11   3  -6   22.03    4.31
 -11   3  -6   16.72    4.26
  11   3   6   12.58    3.93
 -12  -3  -6  147.24   10.88
 -12   3  -6  144.91   11.52
 -12   3  -6  166.24   11.56
  12   3   6  179.81   12.07
 -13  -3  -6    0.53    2.51
 -13   3  -6    3.16    2.72
  13   3   6    1.09    2.63
 -13   3  -6   -2.44    2.94
 -14  -3  -6  238.24   14.62
 -14   3  -6  232.42   15.23
 -14   3  -6  232.68   14.43
  14   3   6  260.35   14.60
 -15  -3  -6    4.37    2.51
 -15   3  -6    0.44    2.17
  15   3   6    5.90    2.41
 -15   3  -6    1.64    3.14
 -16  -3  -6   80.07    6.74
 -16   3  -6   74.87    6.90
 -16   3  -6   68.20    6.04
 -17  -3  -6  419.50   21.66
 -17   3  -6  422.21   22.09
 -17   3  -6  416.81   20.96
 -18  -3  -6   34.18    4.08
 -18   3  -6   38.25    3.72
 -19  -3  -6  255.99   13.89
 -20  -3  -6  141.68    8.43
 -21  -3  -6   27.33    2.78
  20   4  -6   20.23    2.21
 -19  -4   6    0.40    1.16
  19   4  -6   -0.24    1.46
  18   4  -6  122.86    8.03
 -18  -4   6  131.91    7.82
  17   4  -6   84.95    6.43
  16   4  -6    5.76    2.63
 -15  -4   6  119.73    8.20
  15   4  -6  102.27    7.97
 -14  -4   6   -0.42    2.61
  14   4  -6   -2.67    2.60
 -14   4   6    3.24    2.01
 -13  -4   6   30.92    4.37
  13   4  -6   30.57    4.57
 -13   4   6   29.37    3.74
 -12  -4   6   19.32    3.79
  12   4  -6   27.85    4.40
 -12   4   6   28.78    3.75
 -11  -4   6   12.25    3.30
  11   4  -6   14.61    3.83
  10   4  -6   22.71    3.53
 -10  -4   6   24.71    4.18
  10   4  -6   30.43    4.78
 -10   4   6   30.33    4.16
   9   4  -6   17.65    3.27
  -9  -4   6   23.02    4.05
   9   4  -6   22.51    4.22
  -9   4   6   18.89    3.76
  -8  -4   6   -0.51    2.61
   8   4  -6    5.62    2.49
   8   4  -6    2.11    2.54
  -8   4   6    0.48    2.66
   7   4  -6  164.67   11.03
  -7  -4   6  163.43   10.91
  -6  -4   6  116.83    8.88
   6   4  -6  104.00    8.69
   6   4  -6  104.15    8.09
  -5  -4   6    0.50    2.50
   5   4  -6    0.46    2.15
   5   4  -6    1.58    2.84
  -4  -4   6   68.66    6.40
   4   4  -6   61.08    6.45
   4   4  -6   56.52    5.77
   3   4  -6   29.12    4.33
  -3  -4   6   41.62    4.85
   3   4  -6   33.63    4.60
  -2  -4   6   52.93    5.55
   2   4  -6   49.43    5.68
   2   4  -6   48.25    5.48
   1   4  -6  555.12   27.79
  -1  -4   6  532.56   27.10
   1   4  -6  542.84   27.58
   0   4  -6    3.94    2.78
   0  -4   6    4.23    2.38
   0   4  -6    5.49    3.12
   1  -4   6   71.72    6.20
  -1   4  -6   66.21    6.45
  -1   4  -6   65.98    6.55
  -2   4  -6  192.19   12.04
  -2   4  -6  169.72   11.71
   2   4   6  183.39   12.33
   3   4   6  111.03    9.05
  -3   4  -6  111.45    8.62
  -3   4  -6  123.85    9.05
  -4   4  -6   94.80    7.46
  -4   4  -6   88.30    7.80
   4   4   6   94.60    8.25
  -5   4  -6    2.50    2.50
   5   4   6    0.55    2.94
  -6   4  -6    6.45    2.65
   6   4   6    7.86    3.37
  -7   4  -6    0.49    2.73
   7   4   6    3.32    3.02
  -8   4  -6   15.32    3.48
   8   4   6   26.68    4.35
  -9   4  -6   -1.03    2.61
   9   4   6    2.62    2.32
  -9   4  -6   -0.92    2.13
 -10   4  -6   28.30    4.33
  10   4   6   31.04    3.89
 -10   4  -6   23.45    3.79
 -11   4  -6    6.64    2.73
  11   4   6   11.88    2.37
 -11   4  -6    6.88    2.58
 -12   4  -6    3.61    2.56
 -12   4  -6    0.74    2.24
 -13   4  -6   77.34    6.10
 -13   4  -6   80.58    6.32
 -14   4  -6   83.48    5.93
 -14   4  -6   74.81    5.82
 -15   4  -6   62.93    4.80
 -16   4  -6    3.44    1.40
 -17  -4  -6   74.85    4.84
  12   5  -6   30.64    2.90
 -11  -5   6    0.84    1.00
  11   5  -6   -0.85    1.19
 -10  -5   6   16.50    2.20
  10   5  -6   22.51    2.68
  -9  -5   6   10.59    1.93
   9   5  -6   14.40    2.43
  -9   5   6   13.83    2.18
  -8  -5   6    8.83    1.65
   8   5  -6    9.64    2.13
  -7  -5   6    0.20    1.27
   7   5  -6   -1.40    1.71
  -6  -5   6   19.58    2.41
   6   5  -6   24.78    3.20
  -6   5   6   26.67    3.23
   5   5  -6   14.07    2.54
  -5   5   6   16.46    2.83
   4   5  -6   19.84    2.89
  -4   5   6   17.90    2.89
   3   5  -6    0.88    1.74
  -3   5   6    0.30    1.88
   2   5  -6   27.87    3.49
  -2   5   6   33.68    3.79
   1   5  -6   17.22    2.64
  -1   5   6   19.93    3.06
   0   5   6   53.74    4.81
   1   5   6   32.28    3.82
   2   5   6    1.61    2.02
   3   5   6   -0.30    1.95
   4   5   6   10.22    2.24
  -5   5  -6   -0.91    2.05
   5   5   6    0.22    1.28
  -6   5  -6   29.52    3.31
   6   5   6   26.25    2.55
  -7   5  -6    5.39    1.90
  -8   5  -6  127.60    7.49
  -9   5  -6   39.65    3.36
 -10   5  -6   20.90    2.20
 -28   0   7    1.94    1.02
 -27   0   7    1.05    1.51
 -26   0   7   -1.35    2.17
 -26   0   7   -1.06    1.88
 -25   0   7   -0.41    1.82
 -25   0   7   -1.29    2.35
 -24   0   7    2.36    2.65
 -24   0   7   -1.00    2.18
 -23   0   7    2.66    2.66
 -23   0   7    1.12    2.84
 -22   0   7    0.58    2.81
 -22   0   7   -0.61    3.25
 -21   0   7    3.11    3.31
 -21   0   7    0.65    3.08
 -20   0   7    0.65    3.02
 -20   0   7    0.68    3.03
 -19   0   7   -0.69    3.35
  19   0  -7   -2.32    5.97
 -19   0   7    0.66    2.71
 -18   0   7    3.34    3.22
 -18   0   7   -0.70    2.91
  18   0  -7   -2.30    5.94
 -17   0   7    0.72    3.64
 -17   0   7   -1.32    2.69
 -17   0   7    0.69    3.21
 -16   0   7   -1.41    3.15
 -16   0   7   -0.65    2.82
 -16   0   7    0.68    3.14
 -15   0   7    2.49    2.95
 -15   0   7    1.31    2.67
 -15   0   7   -1.38    3.44
 -14   0   7    0.66    3.03
 -14   0   7    0.60    2.78
 -14   0   7    1.69    4.36
 -14   0   7    0.63    2.43
 -13   0   7    0.64    2.96
 -13   0   7    1.71    2.49
 -13   0   7   -1.62    3.90
 -13   0   7    0.60    2.32
 -12   0   7   -0.61    2.66
 -12   0   7   -0.54    2.14
 -12   0   7   -1.55    3.46
 -12   0   7    0.57    2.15
 -11   0   7   -0.51    2.46
 -11   0   7   -4.47    4.29
 -11   0   7   -1.09    2.28
 -10   0   7    2.89    2.32
 -10   0   7   -2.85    4.10
 -10   0   7   -0.52    2.17
  -9   0   7   -1.09    2.68
  -9   0   7   -0.46    2.04
  -9   0   7   -1.37    3.52
  -9   0   7   -4.46    2.47
  -8   0   7   -3.16    2.59
  -8   0   7    3.05    2.45
  -8   0   7   -1.32    3.99
  -8   0   7    0.95    1.88
  -7   0   7   -1.02    2.58
  -7   0   7    2.56    3.50
  -6   0   7    1.97    2.24
  -6   0   7    1.24    3.58
  -5   0   7    1.44    2.06
  -5   0   7    4.84    4.13
  -4   0   7    0.95    2.41
  -4   0   7   -1.19    4.05
   3   0  -7   -4.54    4.39
  -3   0   7    1.18    3.40
   2   0  -7   -1.14    3.60
  -2   0   7    1.17    3.03
  -1   0   7   -1.18    3.55
   1   0  -7   -1.15    3.78
   0   0  -7    1.16    3.67
   0   0   7    1.18    3.41
   1   0   7    4.80    4.09
  -1   0  -7   -1.18    4.45
  -2   0  -7    1.22    3.51
   2   0   7   -0.48    2.31
   2   0   7    1.23    3.35
   3   0   7   -1.26    3.45
   3   0   7    0.99    2.40
  -3   0  -7    6.27    4.28
   4   0   7    3.90    3.93
   4   0   7   -0.52    2.75
   5   0   7   -1.35    4.25
   5   0   7    1.63    2.32
   6   0   7    1.99    3.37
   6   0   7   -1.41    3.39
   6   0   7   -2.27    3.54
   7   0   7    4.69    3.95
   7   0   7   -1.48    3.56
   7   0   7    0.60    2.61
   8   0   7   -0.63    2.56
   8   0   7    1.64    2.90
   8   0   7   -1.55    4.88
   9   0   7    2.29    2.55
   9   0   7   -1.63    4.91
   9   0   7   -5.93    3.29
  10   0   7    7.16    3.03
  10   0   7    1.84    5.04
  10   0   7    0.69    3.45
  11   0   7    3.86    4.65
  11   0   7    0.72    2.87
 -11   0  -7    0.66    3.07
 -11   0  -7    3.26    2.04
  12   0   7   -0.75    3.81
  12   0   7    2.01    4.85
 -12   0  -7    0.68    2.99
 -12   0  -7    1.43    2.13
  13   0   7    2.08    5.02
 -13   0  -7    0.70    3.19
  13   0   7   -0.78    2.92
 -13   0  -7   -0.49    2.12
  14   0   7   -0.79    3.62
  14   0   7    4.27    6.15
 -14   0  -7   -2.12    3.47
 -14   0  -7    2.93    2.18
  15   0   7   -2.16    4.41
  15   0   7    5.62    3.87
 -15   0  -7    0.70    3.90
 -15   0  -7   -0.97    2.72
  16   0   7   -4.32    4.82
 -16   0  -7   -2.07    3.02
  16   0   7   -2.40    3.79
  17   0   7    6.37    5.47
 -17   0  -7   -0.67    3.17
  17   0   7    0.78    3.64
 -18   0  -7   -0.63    3.11
  18   0   7   -0.75    3.56
 -19   0  -7    0.59    2.96
  19   0   7    7.79    3.77
  20   0   7    0.65    3.20
 -20   0  -7    1.62    2.87
  21   0   7   -0.58    2.49
 -21   0  -7    0.96    2.36
 -22   0  -7    0.84    2.12
  22   0   7    1.01    2.01
 -23   0  -7   -0.71    1.98
  23   0   7    0.42    1.77
 -24   0  -7    0.60    1.00
 -25   0  -7    1.19    1.09
 -27   1   7   12.18    1.86
 -27  -1   7   12.04    1.84
 -26   1   7   52.12    4.36
 -26  -1   7   45.28    4.07
 -25   1   7   26.36    3.46
 -25  -1   7   19.53    3.23
 -24   1   7  105.59    7.82
 -24  -1   7   92.28    7.44
 -24   1   7  108.89    7.98
 -24  -1   7  100.12    7.58
 -23   1   7   92.32    7.84
 -23  -1   7  109.44    8.09
 -23  -1   7  111.39    8.42
 -23   1   7   87.14    7.85
 -22   1   7   49.92    5.84
 -22  -1   7   47.21    5.51
 -22  -1   7   51.74    6.00
 -22   1   7   39.26    5.50
 -21   1   7   30.62    4.85
 -21  -1   7   45.54    5.56
 -21  -1   7   31.51    4.98
 -21   1   7   36.07    5.38
 -20   1   7  192.83   13.24
 -20  -1   7  210.66   13.40
 -20  -1   7  170.33   11.41
 -20  -1   7  197.57   13.44
 -20   1   7  202.27   13.53
 -19   1   7   19.84    4.45
 -19  -1   7   15.10    4.14
 -19  -1   7   13.09    3.01
 -19  -1   7   12.17    3.52
 -19   1   7   20.15    4.40
  19   1  -7   27.42    7.72
  19  -1  -7   20.35    8.27
 -18  -1   7 1056.26   48.95
 -18  -1   7  979.72   47.34
 -18   1   7 1049.47   49.26
 -18  -1   7 1007.26   48.93
 -18   1   7 1016.33   49.08
  18   1  -7  899.35   59.21
  18  -1  -7 1006.41   62.25
 -17   1   7   13.18    4.10
 -17  -1   7   11.59    3.67
 -17  -1   7    9.54    3.14
 -17  -1   7   13.04    3.74
 -17   1   7    7.93    3.79
  17   1  -7   12.73    6.71
  17  -1  -7   13.61    6.87
 -16  -1   7  445.77   24.47
 -16  -1   7  399.61   21.59
 -16   1   7  432.43   23.99
 -16  -1   7  481.49   24.00
 -16  -1   7  377.87   22.23
 -16  -1   7  437.38   23.89
 -16   1   7  431.35   24.01
 -16   1   7  436.52   24.32
 -15   1   7  248.57   16.27
 -15  -1   7  268.20   16.66
 -15  -1   7  243.18   14.39
 -15   1   7  246.57   16.09
 -15  -1   7  264.41   15.86
 -15  -1   7  259.45   15.33
 -15  -1   7  245.27   15.93
 -15   1   7  237.79   15.91
 -14  -1   7   13.20    4.22
 -14   1   7    5.89    3.44
 -14   1   7    4.34    3.05
 -14  -1   7    3.91    2.61
 -14  -1   7    4.30    2.20
 -14  -1   7    8.68    2.95
 -14  -1   7   11.60    3.30
 -14   1   7    6.77    3.33
 -13   1   7  265.38   16.35
 -13  -1   7  257.39   16.20
 -13  -1   7  250.48   14.63
 -13   1   7  257.53   16.04
 -13  -1   7  272.68   15.68
 -13  -1   7  235.95   14.92
 -13   1   7  225.64   20.97
 -13  -1   7  259.68   22.09
 -13  -1   7  248.87   15.77
 -13   1   7  251.30   15.85
 -12  -1   7  201.27   13.96
 -12  -1   7  201.21   12.62
 -12   1   7  227.42   14.38
 -12  -1   7  217.18   13.49
 -12  -1   7  216.92   13.28
 -12   1   7  181.03   18.37
 -12  -1   7  217.96   19.98
 -12  -1   7  227.45   14.03
 -12   1   7  200.58   13.54
 -11  -1   7   77.15    6.80
 -11   1   7   95.94    8.24
 -11  -1   7   83.52    7.23
 -11  -1   7   99.04    7.61
 -11  -1   7  103.54    8.57
 -11   1   7   81.87   11.37
 -11  -1   7   65.83   10.40
 -11  -1   7   76.75    7.30
 -11   1   7   93.21    7.98
 -10  -1   7  521.89   26.55
 -10  -1   7  536.71   26.86
 -10  -1   7  552.32   27.10
 -10   1   7  548.98   34.67
 -10  -1   7  533.80   34.35
 -10  -1   7  540.18   27.48
 -10   1   7  515.52   27.19
  -9  -1   7    8.30    2.42
  -9  -1   7    9.76    2.56
  -9  -1   7    4.42    2.24
  -9   1   7   20.76    5.65
  -9  -1   7   16.65    5.67
  -9  -1   7   12.88    3.12
  -9   1   7    9.79    2.67
  -8  -1   7  314.02   17.68
  -8   1   7  326.83   18.82
  -8  -1   7  355.99   19.20
  -8  -1   7  327.32   18.00
  -8   1   7  363.44   24.97
  -8  -1   7  341.29   24.73
  -7  -1   7  136.54    9.04
  -7   1   7  130.69    9.90
  -7   1   7  116.17   13.44
  -7  -1   7  143.44   14.19
  -7  -1   7  138.44    9.96
  -6   1   7    9.10    3.11
  -6  -1   7    5.04    2.82
  -6  -1   7   11.75    2.53
  -6   1   7    8.94    4.37
  -6  -1   7    7.63    5.07
  -5   1   7   55.87    5.84
  -5  -1   7   56.07    5.73
  -5   1   7   58.62    8.97
  -5  -1   7   52.08    8.63
  -4   1   7  373.89   20.02
  -4  -1   7  362.98   19.96
  -4   1   7  330.49   24.44
  -4  -1   7  365.88   25.28
   4  -1  -7  373.96   24.78
   4   1  -7  380.43   24.98
  -3   1   7  519.80   26.23
  -3  -1   7  519.21   26.17
   3  -1  -7  505.27   31.16
   3   1  -7  523.35   31.70
  -3   1   7  472.22   31.11
  -3  -1   7  509.50   31.81
  -2   1   7  655.07   37.21
  -2  -1   7  604.46   36.54
   2  -1  -7  617.45   36.36
   2   1  -7  631.15   36.39
   1   1  -7    3.47    3.80
  -1   1   7   -1.22    3.84
  -1  -1   7   -1.20    3.27
   1  -1  -7    1.17    3.19
   0   1   7  272.97   20.33
   0  -1   7  262.38   19.81
   0  -1  -7  255.01   19.51
   0   1  -7  232.82   19.19
  -1   1  -7  692.83   41.22
   1   1   7  752.43   42.40
   1  -1   7  721.40   41.84
  -1  -1  -7  798.61   42.77
   2  -1   7  566.34   27.63
  -2  -1  -7  601.91   34.84
  -2   1  -7  611.56   35.12
   2   1   7  562.97   28.54
   2   1   7  576.29   34.89
   2  -1   7  495.11   33.50
   3  -1   7  157.98   10.18
   3   1   7  165.11   15.37
   3  -1   7  184.79   15.91
   3   1   7  151.31   10.75
   3   1   7  171.11   11.14
   3  -1   7  152.06   10.83
   4  -1   7   47.82    5.61
   4   1   7   61.28    5.91
   4   1   7   49.66    5.85
   4   1   7   50.43    8.37
   4  -1   7   48.21    8.40
  -4   1  -7   54.02    5.23
   4  -1   7   37.63    4.63
   5  -1   7   81.29    7.25
   5   1   7   78.03    7.34
   5   1   7   67.06    8.21
   5   1   7   80.71   10.80
   5  -1   7   71.02   10.32
  -5   1  -7   79.59    6.76
   5  -1   7   86.18    6.88
   6   1   7   78.34    7.38
   6   1   7   84.24    9.99
   6   1   7   62.33    9.90
   6  -1   7   77.75   10.75
  -6   1  -7   93.46    7.37
   6  -1   7   75.91    7.53
   7   1   7   -4.09    7.90
   7   1   7    1.48    3.81
   7  -1   7    1.44    3.48
   7  -1   7    0.58    2.71
  -7   1  -7   -0.48    2.49
   7   1   7   -0.59    2.69
  -8   1  -7    1.01    2.55
   8   1   7   14.59    7.39
   8   1   7   -1.55    4.89
   8  -1   7    4.53    3.64
   8  -1   7    2.45    3.06
   8   1   7    5.58    3.04
  -9   1  -7   11.50    3.40
   9  -1   7   16.69    4.20
   9   1   7    9.47    5.39
   9   1   7    1.62    4.46
   9  -1   7   11.07    5.41
   9   1   7   14.94    3.82
 -10   1  -7   65.07    7.26
 -10  -1  -7   65.92    7.39
  10   1   7   71.56    7.67
  10   1   7   66.04   10.77
  10  -1   7   72.59   11.53
 -10   1  -7   68.65    6.87
  10  -1   7   80.52    7.96
  10   1   7   71.96    7.75
 -11   1  -7   11.95    3.49
 -11  -1  -7    4.63    3.63
  11   1   7    7.05    5.09
  11  -1   7    5.15    5.20
  11  -1   7    9.76    3.72
  11   1   7   12.01    4.13
 -11   1  -7    1.32    3.46
  12  -1   7  167.50   12.74
  12   1   7  168.23   18.13
  12  -1   7  177.79   18.21
 -12   1  -7  153.08   11.62
  12   1   7  173.39   12.98
 -12   1  -7  174.95   12.54
 -12  -1  -7  151.75   12.13
 -13   1  -7  523.56   28.02
  13   1   7  469.79   35.61
  13  -1   7  422.25   34.16
 -13   1  -7  520.06   27.30
  13  -1   7  508.80   28.32
  13   1   7  519.09   28.55
 -13  -1  -7  540.29   28.12
  14   1   7   26.76    7.64
  14  -1   7   29.76    7.82
 -14   1  -7   22.41    4.84
 -14  -1  -7   18.40    4.57
  14  -1   7   19.55    4.93
  14   1   7   15.22    4.31
 -14   1  -7   25.08    4.51
  15   1   7   15.36    6.58
  15  -1   7   14.96    5.94
 -15   1  -7   23.39    4.85
 -15  -1  -7   15.45    4.55
  15  -1   7   18.84    4.61
  15   1   7   17.52    4.76
 -15   1  -7   12.39    3.63
  16   1   7  252.49   23.72
  16  -1   7  277.82   24.18
 -16   1  -7  268.75   17.03
 -16  -1  -7  293.73   17.45
 -16   1  -7  282.74   16.76
  16  -1   7  242.54   17.40
  16   1   7  276.75   17.89
  17  -1   7   18.04    4.46
  17   1   7   22.46    4.72
 -17   1  -7   14.21    3.80
 -17  -1  -7   12.44    3.86
 -17   1  -7   15.89    3.90
 -18   1  -7  255.03   15.44
 -18  -1  -7  243.54   15.20
 -18   1  -7  239.64   14.69
  18  -1   7  216.59   15.53
  18   1   7  251.76   16.09
 -19   1  -7    3.19    2.66
 -19  -1  -7    5.37    2.90
  19  -1   7    3.18    2.60
  19   1   7    3.80    2.77
 -20   1  -7   29.09    4.27
 -20  -1  -7   21.24    3.94
  20   1   7   26.20    4.39
  20  -1   7   29.32    4.78
  21  -1   7  161.79   11.01
 -21   1  -7  162.52   10.31
 -21  -1  -7  152.18   10.12
  21   1   7  146.34   10.56
 -22   1  -7    4.58    1.88
 -22  -1  -7    5.04    2.18
  22  -1   7    4.70    2.11
  22   1   7    5.01    2.44
 -23  -1  -7   59.78    4.94
 -24   1  -7    0.20    1.00
 -24  -1  -7    1.89    1.24
 -24  -1  -7    0.44    1.15
  26   2  -7   27.07    2.57
  25   2  -7  318.48   15.88
  24   2  -7   77.86    5.95
 -23   2   7  147.03    8.72
 -23  -2   7  114.66    7.90
 -22   2   7  254.54   13.71
 -22  -2   7  229.84   12.83
 -21   2   7   -0.84    1.89
 -21  -2   7    0.69    1.80
 -21  -2   7   -0.40    1.85
 -20   2   7  296.67   16.74
 -20  -2   7  280.66   15.69
 -20  -2   7  296.79   16.54
 -19  -2   7  151.46   10.22
 -19   2   7  172.89   11.56
 -19  -2   7  163.36   10.58
 -19  -2   7  180.73   11.59
 -18  -2   7   60.35    5.70
 -18   2   7   69.99    6.90
 -18  -2   7   54.49    5.54
 -18  -2   7   56.57    6.18
 -17  -2   7  409.21   21.71
 -17   2   7  415.07   22.77
 -17  -2   7  404.44   21.47
 -17  -2   7  408.46   22.70
 -16  -2   7    6.03    2.91
 -16   2   7    8.52    3.52
 -16  -2   7    2.97    3.02
  16   2  -7   10.51    5.30
 -15  -2   7   71.47    6.85
 -15   2   7   65.59    7.13
 -15  -2   7   71.29    7.31
  15   2  -7   57.94   10.76
 -14  -2   7  823.31   39.36
 -14   2   7  848.65   40.36
 -14  -2   7  816.78   40.00
 -13  -2   7  243.75   15.24
 -13  -2   7  228.47   14.68
 -13   2   7  243.46   15.00
 -13   2   7  250.02   15.60
 -13  -2   7  230.67   15.22
 -12  -2   7  705.68   35.07
 -12  -2   7  720.97   35.49
 -12   2   7  729.04   35.89
 -12  -2   7  674.25   35.41
 -12   2   7  714.83   35.11
 -11   2   7  231.13   14.84
 -11  -2   7  252.18   15.29
 -11  -2   7  260.45   15.30
 -11   2   7  241.64   15.49
 -11  -2   7  247.91   15.50
 -10  -2   7   77.63    7.09
 -10  -2   7   66.94    6.72
 -10   2   7   72.46    7.19
 -10  -2   7   70.96    7.10
 -10   2   7   94.70   11.21
 -10  -2   7   59.40    9.83
 -10   2   7   74.43    6.94
  -9  -2   7  175.70   11.77
  -9   2   7  179.26   11.52
  -9  -2   7  151.47   11.14
  -9   2   7  175.83   12.02
  -9   2   7  181.65   16.15
  -9  -2   7  158.10   15.57
   9   2  -7  181.81   11.33
  -9   2   7  163.88   10.50
  -8   2   7    4.88    2.23
  -8  -2   7    5.61    2.42
  -8  -2   7    1.02    2.32
  -8   2   7    1.68    2.60
  -8   2   7    4.99    3.41
  -8  -2   7    1.30    3.75
   8   2  -7    0.45    2.04
  -8   2   7   -1.23    1.98
   8  -2  -7    1.29    2.88
  -7   2   7  715.19   35.69
   7  -2  -7  695.16   41.01
  -7   2   7  722.10   41.11
  -7  -2   7  746.07   41.88
   7   2  -7  730.30   34.56
   7   2  -7  707.23   40.74
  -7   2   7  724.51   34.59
   6  -2  -7  245.05   18.78
   6   2  -7  233.17   18.07
  -6   2   7  219.03   13.97
   6   2  -7  199.56   12.68
  -6   2   7  208.26   17.70
  -6  -2   7  256.73   19.16
  -6   2   7  232.02   13.39
  -5   2   7  120.12    8.68
  -5  -2   7  122.02    8.78
  -5   2   7  124.20    8.77
  -5  -2   7  107.27    8.46
  -5   2   7  116.63    9.00
   5   2  -7  111.33    7.95
  -5   2   7  102.85   11.74
  -5  -2   7  104.86   11.68
   5  -2  -7  101.18   11.62
   5   2  -7  102.50   11.66
  -4  -2   7 1502.70   69.24
  -4   2   7 1503.19   69.11
  -4  -2   7 1514.67   69.31
  -4   2   7 1495.73   69.85
  -4   2   7 1516.88   75.56
  -4  -2   7 1446.84   75.61
   4  -2  -7 1608.68   76.34
   4   2  -7 1525.88   75.20
  -4   2   7 1661.35   69.97
  -3   2   7   50.70    5.44
  -3  -2   7   52.83    5.63
  -3   2   7   64.18    6.52
  -3   2   7   50.57    8.15
  -3  -2   7   56.45    8.87
   3  -2  -7   61.30    8.85
  -3  -2   7   56.52    5.70
   3   2  -7   64.56    8.63
  -3   2   7   54.85    6.19
  -2  -2   7  264.37   14.89
  -2   2   7  248.43   14.65
  -2  -2   7  244.36   14.74
  -2   2   7  245.62   15.21
   2  -2  -7  264.36   19.73
   2   2  -7  284.85   19.75
  -2   2   7  277.49   20.13
  -2  -2   7  224.53   18.85
   2   2  -7  230.84   14.74
  -1  -2   7  159.79   11.08
   1  -2  -7  187.38   15.84
   1   2  -7  182.16   15.43
  -1   2   7  179.55   11.37
  -1  -2   7  164.02   11.15
  -1   2   7  177.06   12.01
  -1   2   7  170.17   15.31
  -1  -2   7  175.71   15.71
   1   2  -7  179.52   11.69
   0  -2   7   45.23    5.07
   0   2   7   37.77    4.63
   0  -2   7   36.31    4.67
   0   2   7   34.08    4.84
   0   2   7   33.55    6.57
   0  -2   7   37.37    7.05
   0   2  -7   44.45    5.14
   1  -2   7  433.66   22.82
   1   2   7  458.87   24.04
   1   2   7  448.13   28.85
   1  -2   7  402.53   27.83
  -1   2  -7  454.17   23.62
   2  -2   7  611.55   29.82
   2   2   7  607.61   30.84
   2   2   7  559.81   35.55
   2  -2   7  564.93   35.72
  -2   2  -7  622.99   30.63
   3  -2   7  125.54    8.81
   3   2   7  116.13   10.39
   3   2   7  111.10   12.49
   3  -2   7  105.72   12.30
  -3   2  -7  118.24    9.28
   4  -2   7  304.23   16.89
  -4   2  -7  304.24   17.83
   4   2   7  309.66   19.59
   4   2   7  284.68   22.22
   4  -2   7  283.49   22.19
  -5   2  -7  134.91    9.90
   5   2   7  116.80   13.91
   5   2   7  116.18   13.26
   5  -2   7  111.47   12.67
   5  -2   7  116.12    8.75
  -6   2  -7   12.19    3.45
   6  -2   7    7.92    2.68
   6   2   7    4.42   13.35
   6   2   7   16.63    5.52
   6  -2   7    8.26    4.36
  -7   2  -7 1303.35   59.80
  -7  -2  -7 1406.02   60.58
   7   2   7 1289.85   62.51
   7   2   7 1259.59   59.89
   7  -2   7 1300.47   60.13
   7   2   7 1195.01   67.02
   7  -2   7 1234.32   66.95
  -7   2  -7 1286.22   60.49
  -8   2  -7   -0.61    2.88
   8  -2   7    1.14    2.49
   8   2   7   12.64   13.36
   8   2   7   -2.94    4.44
   8  -2   7    8.71    3.97
   8   2   7    6.16    2.89
  -8   2  -7    1.62    2.36
  -8  -2  -7   -0.57    3.14
   9   2   7 1072.80   49.20
   9   2   7 1086.37   51.07
   9   2   7  961.44   56.38
   9  -2   7  976.56   56.05
   9  -2   7 1099.06   49.32
  -9   2  -7 1072.47   49.61
  -9   2  -7  943.34   51.76
  -9   2  -7  998.67   48.57
  -9  -2  -7  964.62   48.62
  10   2   7  280.31   16.65
  10  -2   7  285.88   16.86
  10   2   7  231.24   21.49
 -10   2  -7  288.00   17.14
 -10   2  -7  265.32   15.66
 -10   2  -7  264.90   16.12
 -10  -2  -7  256.71   16.24
 -10   2  -7  247.44   18.32
  11   2   7  353.45   27.94
 -11   2  -7  394.79   22.41
 -11   2  -7  381.50   21.48
 -11  -2  -7  401.71   21.92
 -11   2  -7  368.71   20.78
  11   2   7  399.07   22.10
  11  -2   7  434.41   22.65
  12  -2   7  235.80   15.46
  12   2   7  271.58   22.28
 -12   2  -7  225.23   14.74
 -12  -2  -7  257.52   15.45
 -12   2  -7  253.93   16.05
 -12   2  -7  226.96   14.06
  12   2   7  245.60   15.53
  13  -2   7  133.31   10.54
  13   2   7  127.71   10.29
  13   2   7  166.93   16.56
 -13   2  -7  121.42    9.66
 -13  -2  -7  138.84   10.33
 -13   2  -7  131.89   10.65
 -13   2  -7  138.31    9.38
  14  -2   7  198.07   13.95
 -14   2  -7  216.84   13.60
 -14  -2  -7  218.39   13.85
 -14   2  -7  240.49   14.99
 -14   2  -7  212.41   12.62
  14   2   7  208.86   14.20
  15   2   7  447.09   24.38
 -15   2  -7  440.06   23.42
 -15  -2  -7  471.61   24.00
 -15   2  -7  456.12   24.66
  15  -2   7  435.42   24.31
  16  -2   7   12.92    3.45
 -16   2  -7   11.71    2.87
 -16  -2  -7   13.48    3.31
  16   2   7   16.26    3.69
 -16   2  -7   16.65    4.13
  17  -2   7  844.54   39.96
 -17   2  -7  769.02   38.56
 -17  -2  -7  866.79   39.31
 -17   2  -7  834.26   40.08
  17   2   7  825.62   39.83
  18  -2   7  373.75   21.63
 -18  -2  -7  449.61   21.68
 -18   2  -7  434.60   22.45
  18   2   7  425.74   22.06
 -19  -2  -7    0.34    1.74
  19   2   7    0.39    1.74
 -20  -2  -7  159.37   10.26
 -21  -2  -7  201.80   11.57
 -22  -2  -7   95.67    6.39
 -23  -2  -7  250.97   12.48
  23   3  -7  154.07    8.41
  22   3  -7   20.62    2.45
  22   3  -7   29.00    3.08
  21   3  -7  257.96   13.96
 -20  -3   7    9.64    2.08
  20   3  -7   13.51    2.98
 -19  -3   7  224.77   12.81
  19   3  -7  241.32   13.81
 -18  -3   7  449.78   22.61
  18   3  -7  447.68   23.39
 -17  -3   7    6.41    2.79
  17   3  -7    5.52    2.87
 -16  -3   7  620.54   31.01
  16   3  -7  635.77   31.68
 -15  -3   7  206.80   13.50
  15   3  -7  226.66   14.18
 -14  -3   7  124.74    9.50
 -14  -3   7  128.43   10.01
  14   3  -7  117.06    9.49
 -14   3   7  116.48    8.03
 -13  -3   7  275.47   16.15
 -13   3   7  227.49   14.72
 -13  -3   7  265.84   16.37
  13   3  -7  292.18   16.52
 -13   3   7  264.56   14.63
 -12   3   7   10.57    3.07
 -12  -3   7   12.69    3.60
  12   3  -7   11.97    3.78
 -12   3   7   12.34    2.85
 -11   3   7  293.29   17.52
 -11  -3   7  317.51   18.74
  11   3  -7  332.34   18.53
 -11   3   7  313.44   17.39
 -10  -3   7  161.61   12.03
 -10   3   7  181.44   12.04
 -10  -3   7  187.73   12.85
  10   3  -7  193.40   12.58
  -9  -3   7    6.94    3.20
  -9   3   7   13.15    3.46
   9   3  -7   18.65    3.97
  -8  -3   7  352.39   20.51
  -8   3   7  364.23   20.33
   8   3  -7  379.76   20.51
   7   3  -7   45.93    5.80
  -7  -3   7   43.77    5.58
  -7   3   7   38.54    5.11
   7   3  -7   36.02    4.89
  -6  -3   7  119.23    9.06
  -6   3   7   94.23    8.28
   6   3  -7   92.82    8.12
  -6   3   7   95.83    8.20
   6   3  -7  101.24    8.78
  -5  -3   7  210.09   13.85
  -5   3   7  226.91   14.08
   5   3  -7  208.88   13.43
  -5   3   7  226.76   13.93
   5   3  -7  213.30   14.15
   4   3  -7    8.24    3.33
  -4  -3   7    7.09    3.00
  -4   3   7    7.76    3.37
   4   3  -7    8.88    2.86
  -4   3   7   10.42    3.41
  -3  -3   7  881.72   41.57
  -3   3   7  880.59   41.83
  -3   3   7  838.94   41.60
   3   3  -7  845.52   40.89
   3   3  -7  852.96   41.94
  -2  -3   7  569.96   28.93
  -2   3   7  574.70   29.26
  -2   3   7  559.92   29.27
   2   3  -7  549.82   28.13
   2   3  -7  567.94   29.49
   1   3  -7  136.19    9.37
  -1  -3   7  114.35    9.48
   1   3  -7  125.47   10.15
   0  -3   7 1176.32   53.91
   0   3   7 1180.19   55.17
   0   3  -7 1101.86   52.97
   0   3  -7 1186.53   54.81
   1   3   7  237.49   15.27
   1   3   7  215.30   18.90
  -1   3  -7  241.33   14.06
   1  -3   7  233.84   14.47
  -1   3  -7  250.89   15.54
   2  -3   7  430.48   23.09
   2   3   7  453.85   27.96
  -2   3  -7  426.17   22.53
   2   3   7  458.24   24.48
  -2   3  -7  445.67   24.37
   3  -3   7  951.37   45.79
  -3   3  -7  958.99   47.11
   3   3   7  954.64   49.51
  -3   3  -7  936.31   45.06
   3   3   7 1122.73   48.44
  -4   3  -7    1.88    2.97
  -4   3  -7   -1.20    3.62
   4  -3   7   -0.47    2.24
   4   3   7    7.83   16.94
   4   3   7    1.38    3.39
   5   3   7 1069.96   56.15
  -5   3  -7 1117.05   54.37
  -5   3  -7 1070.74   58.90
   5  -3   7 1119.40   52.86
   6   3   7  272.22   22.17
  -6   3  -7  336.41   19.61
  -6   3  -7  324.31   23.05
   6  -3   7  305.77   17.69
  -7   3  -7  110.01    9.53
  -7   3  -7   92.68   11.11
  -8   3  -7  211.26   14.14
  -8   3  -7  176.84   15.73
   8   3   7  219.54   15.17
  -9   3  -7   80.57    8.10
   9   3   7   82.50    8.52
 -10   3  -7   57.51    6.27
  10   3   7   77.55    8.26
 -11  -3  -7  623.82   33.38
 -11   3  -7  694.68   34.25
 -12  -3  -7   58.39    5.81
 -12   3  -7   57.84    5.97
  12   3   7   68.02    6.95
 -13  -3  -7 1005.24   48.56
 -13   3  -7  999.39   48.53
 -14  -3  -7  777.93   38.99
 -14   3  -7  795.44   38.77
 -15  -3  -7  108.63    7.65
 -15   3  -7   97.38    7.07
  15   3   7  104.62    7.36
 -16  -3  -7  654.09   32.17
 -16   3  -7  667.05   31.49
  16   3   7  721.35   31.66
 -17  -3  -7   83.75    6.21
 -18  -3  -7  348.85   17.34
 -19  -3  -7  579.31   26.57
  19   4  -7   26.38    2.45
 -18  -4   7   42.62    3.47
  18   4  -7   46.24    3.67
 -17  -4   7  213.08   11.36
  17   4  -7  219.88   11.63
  16   4  -7  140.53    8.66
  15   4  -7  321.26   16.82
 -14  -4   7  607.97   28.12
  14   4  -7  551.38   27.92
 -13  -4   7   46.48    4.86
  13   4  -7   45.51    4.89
 -13   4   7   37.12    3.86
 -12  -4   7  648.16   31.60
  12   4  -7  659.43   31.68
 -12   4   7  649.62   30.61
 -11  -4   7  279.07   15.44
  11   4  -7  290.46   15.55
 -11   4   7  308.98   15.07
 -10  -4   7  336.23   18.20
  10   4  -7  351.45   18.34
  10   4  -7  287.45   17.13
 -10   4   7  347.90   17.67
  -9  -4   7  771.24   37.01
   9   4  -7  767.60   36.89
   9   4  -7  732.44   36.25
  -9   4   7  803.98   36.65
  -8  -4   7   68.04    6.48
   8   4  -7   65.12    6.32
   8   4  -7   65.29    6.10
  -8   4   7   75.25    6.50
  -7  -4   7  435.98   22.48
   7   4  -7  432.96   22.36
   7   4  -7  399.87   21.73
  -6  -4   7  668.91   33.44
   6   4  -7  696.03   33.45
   6   4  -7  682.86   33.16
   5   4  -7    5.06    2.76
  -5  -4   7    5.18    2.69
   5   4  -7    5.57    2.78
  -4  -4   7  421.01   22.11
   4   4  -7  446.12   22.33
   4   4  -7  393.34   21.85
  -3  -4   7   81.43    6.92
   3   4  -7   82.68    7.04
   3   4  -7   66.63    6.53
   2   4  -7  534.74   27.47
  -2  -4   7  575.82   27.62
   2   4  -7  543.49   27.80
  -1  -4   7  652.36   32.77
   1   4  -7  706.00   33.23
   1   4  -7  693.65   33.55
   0   4  -7   29.05    4.41
   0  -4   7   29.94    3.93
   0   4  -7   29.18    4.07
   1  -4   7  802.29   37.51
  -1   4  -7  752.70   37.54
  -1   4  -7  817.12   38.60
   1   4   7  844.12   39.10
  -2   4  -7  539.59   27.31
  -2   4  -7  564.62   28.39
   2   4   7  591.66   28.93
  -3   4  -7  137.00    9.47
   3   4   7  106.13    8.98
  -4   4  -7  715.89   35.63
   4   4   7  760.94   36.46
   5   4   7  690.45   33.21
  -5   4  -7  634.02   32.21
  -6   4  -7  325.80   18.06
   6   4   7  325.27   18.46
   7   4   7  405.69   21.41
  -7   4  -7  397.79   21.15
  -8   4  -7    3.90    2.34
  -8   4  -7    0.90    2.26
   8   4   7    5.03    2.42
  -9   4  -7  672.02   32.84
  -9   4  -7  720.83   33.24
   9   4   7  666.96   32.46
 -10   4  -7  315.61   16.39
 -10   4  -7  296.98   16.26
  10   4   7  289.88   15.62
 -11   4  -7   67.01    5.59
 -11   4  -7   56.76    5.20
 -12   4  -7  367.51   18.66
 -12   4  -7  377.25   18.61
 -13   4  -7   95.21    6.41
 -13   4  -7   97.14    6.31
 -14   4  -7  314.18   15.18
 -15   4  -7   75.21    4.56
   9   5  -7   25.97    2.55
   8   5  -7  327.50   15.60
  -8   5   7  323.04   15.49
   7   5  -7  291.79   14.06
  -7   5   7  283.04   14.11
   6   5  -7   92.61    5.79
   5   5  -7  710.99   32.07
   4   5  -7    1.23    1.78
  -4   5   7    1.68    1.58
  -3   5   7  291.79   14.76
  -2   5   7  490.41   23.21
  -1   5   7    9.36    2.29
   0   5   7  748.57   34.16
   1   5   7   88.79    6.01
   2   5   7  140.58    8.14
  -3   5  -7  574.51   24.13
   3   5   7  457.28   23.13
  -4   5  -7    5.30    1.89
   4   5   7    5.61    1.43
  -5   5  -7  393.90   16.56
   5   5   7  301.83   15.44
  -6   5  -7  160.83    8.66
  -7   5  -7    1.16    1.01
 -27   0   8  109.79    6.39
 -26   0   8  422.04   20.40
 -25   0   8   51.49    4.79
 -24   0   8   15.54    2.91
 -23   0   8   70.79    6.54
 -22   0   8 1895.62   84.44
 -22   0   8 1859.23   84.70
 -21   0   8   24.76    4.61
 -21   0   8   23.20    4.29
 -20   0   8  615.42   31.27
 -20   0   8  590.87   31.45
 -19   0   8  217.59   14.11
 -19   0   8  181.23   13.59
 -18   0   8  160.25   12.05
 -18   0   8  163.74   12.37
  18   0  -8  150.73   19.36
 -17   0   8  263.79   17.29
 -17   0   8  268.35   16.94
 -17   0   8  248.88   16.80
 -16   0   8  459.77   25.83
 -16   0   8  462.52   25.15
 -16   0   8  429.66   25.12
 -15   0   8  904.65   44.99
 -15   0   8  958.19   44.63
 -15   0   8  845.09   44.29
 -14   0   8  326.79   21.11
 -14   0   8  391.36   21.33
 -14   0   8  391.28   29.53
 -14   0   8  348.97   21.04
 -13   0   8  451.29   25.87
 -13   0   8  493.21   25.66
 -13   0   8  401.91   31.86
 -13   0   8  484.64   25.90
 -12   0   8 1359.38   63.07
 -12   0   8 1333.26   62.04
 -12   0   8 1250.47   70.97
 -12   0   8 1335.78   62.39
 -11   0   8    1.12    2.89
 -11   0   8    1.67    4.29
 -10   0   8  335.80   19.10
 -10   0   8  339.56   26.44
  -9   0   8  218.30   12.93
  -9   0   8  224.89   14.94
  -9   0   8  238.68   14.23
  -9   0   8  220.19   20.22
  -8   0   8   41.42    4.50
  -8   0   8   44.11    5.68
  -8   0   8   43.22    5.21
  -8   0   8   41.56    8.49
  -7   0   8 2313.62  101.86
  -7   0   8 2396.71  103.94
  -7   0   8 2262.59  102.61
  -7   0   8 2310.16  112.00
  -6   0   8  441.27   22.47
  -6   0   8  435.62   23.97
  -6   0   8  458.36   23.28
  -6   0   8  400.28   29.64
  -5   0   8  457.87   22.40
  -5   0   8  408.55   23.49
  -5   0   8  426.26   22.70
  -5   0   8  408.69   29.74
   5   0  -8  472.18   30.22
  -4   0   8  417.23   22.67
  -4   0   8  370.88   21.30
  -4   0   8  439.72   29.18
   4   0  -8  394.15   27.99
  -4   0   8  436.55   21.38
  -3   0   8   55.61    6.38
  -3   0   8   53.34    5.54
  -3   0   8   54.59    9.48
   3   0  -8   56.99    9.45
  -3   0   8   63.17    5.65
   2   0  -8 2105.51  105.67
  -2   0   8 2129.84   97.18
  -2   0   8 2143.24  106.05
  -2   0   8 2288.86   96.90
  -1   0   8  319.11   18.32
  -1   0   8  337.75   25.20
   1   0  -8  342.98   25.36
  -1   0   8  341.16   18.11
   0   0   8  770.30   37.16
   0   0  -8  804.52   45.17
   0   0   8  721.98   44.93
   1   0   8 2792.53  124.28
  -1   0  -8 2900.69  134.13
   1   0   8 2852.08  133.56
   2   0   8    6.24    2.98
   2   0   8   10.54    4.96
   3   0   8 1760.72   80.18
   3   0   8 1761.81   89.71
   3   0   8 1803.41   81.08
   4   0   8  625.62   31.38
   4   0   8  562.14   38.23
   4   0   8  640.81   32.21
   5   0   8 1010.19   47.43
   5   0   8  883.47   54.94
   5   0   8 1023.56   48.23
   6   0   8 4407.40  193.17
   6   0   8 4210.61  203.22
   6   0   8 4582.03  194.27
   7   0   8  592.94   29.67
   7   0   8  552.88   37.46
   7   0   8  542.43   30.03
   8   0   8  690.24   35.04
   8   0   8  689.37   43.93
   8   0   8  700.38   35.94
   9   0   8 4066.66  184.68
   9   0   8 4552.60  197.51
   9   0   8 4308.46  186.06
 -10   0  -8  153.03   12.14
  10   0   8  156.93   17.74
  10   0   8  164.60   12.94
 -11   0  -8  174.62   13.82
  11   0   8  235.15   21.91
  11   0   8  211.07   14.92
  12   0   8  485.68   37.11
  12   0   8  519.32   29.90
 -12   0  -8  571.49   29.77
  13   0   8    8.04    5.18
 -13   0  -8    4.39    3.84
  13   0   8    6.40    3.65
  14   0   8 2420.68  128.71
 -14   0  -8 2726.89  118.67
  14   0   8 2631.81  119.31
  15   0   8   11.90    6.00
 -15   0  -8    7.65    4.11
  15   0   8    3.14    3.99
 -16   0  -8  816.08   41.44
  16   0   8  851.64   42.58
 -17   0  -8 1478.08   67.36
  17   0   8 1411.01   67.96
 -18   0  -8   10.86    3.86
  18   0   8   12.02    3.97
 -19   0  -8  927.20   43.83
  19   0   8  908.07   44.54
 -20   0  -8  136.33    9.66
  20   0   8  142.96   10.24
 -21   0  -8   30.31    3.86
  21   0   8   32.72    4.36
 -22   0  -8 1176.15   53.01
  22   0   8 1185.80   53.65
 -23   0  -8  154.80    8.39
 -24   0  -8  210.34   10.49
 -26   1   8  282.64   13.00
  26   1  -8  283.93   12.91
 -25   1   8  116.84    7.27
 -25  -1   8  105.25    6.87
 -24   1   8  603.59   28.29
 -24  -1   8  571.69   27.80
 -23   1   8   49.64    5.13
 -23  -1   8   39.19    4.58
 -22   1   8  338.52   18.80
 -22  -1   8  340.85   18.45
 -21   1   8  387.05   20.63
 -21  -1   8  354.35   19.94
 -20   1   8  357.27   20.10
 -20  -1   8  352.87   19.63
 -20  -1   8  326.82   19.74
 -20   1   8  362.93   20.21
 -19   1   8  187.17   13.28
 -19  -1   8  196.03   12.96
 -19  -1   8  194.63   13.26
 -19   1   8  190.48   13.25
 -18  -1   8  137.28   10.28
 -18  -1   8  115.78   10.07
 -18   1   8  140.12   10.85
 -17  -1   8   18.57    3.91
 -17  -1   8   10.26    4.02
 -17   1   8   16.23    4.32
  17   1  -8   19.06    7.25
  17  -1  -8   27.40    8.85
 -16  -1   8  567.54   28.13
 -16   1   8  618.07   31.31
 -16  -1   8  577.11   30.92
 -16  -1   8  583.81   29.96
 -16  -1   8  562.51   30.30
 -16   1   8  564.94   30.44
 -15  -1   8   54.96    5.33
 -15   1   8   52.18    6.70
 -15  -1   8   50.99    6.76
 -15  -1   8   58.74    6.35
 -15  -1   8   54.23    6.55
 -15   1   8   49.52    6.38
 -14  -1   8  196.35   12.15
 -14   1   8  183.75   13.79
 -14  -1   8  217.65   14.47
 -14  -1   8  204.16   13.25
 -14  -1   8  196.34   13.63
 -14   1   8  191.25   13.53
 -13   1   8  810.47   40.33
 -13  -1   8  791.78   38.20
 -13  -1   8  834.47   40.56
 -13  -1   8  786.55   38.94
 -13   1   8  777.65   48.49
 -13  -1   8  779.93   48.53
 -12   1   8  494.06   27.13
 -12  -1   8  510.35   27.19
 -12  -1   8  477.08   25.21
 -12  -1   8  510.73   26.04
 -12   1   8  509.49   34.75
 -12  -1   8  486.64   34.27
 -11  -1   8 2553.78  116.09
 -11  -1   8 2662.23  118.19
 -11  -1   8 2629.29  116.67
 -11   1   8 2696.50  127.75
 -11  -1   8 2600.42  127.38
 -11   1   8 2782.01  118.36
 -10  -1   8  302.69   16.90
 -10  -1   8  294.61   16.95
 -10   1   8  316.74   24.96
 -10  -1   8  266.24   23.37
  -9  -1   8  341.49   18.49
  -9  -1   8  322.91   18.16
  -9   1   8  339.03   25.87
  -9  -1   8  325.43   25.74
  -8  -1   8 1791.06   82.26
  -8   1   8 1893.62   84.02
  -8  -1   8 1906.34   84.03
  -8  -1   8 1808.63   82.15
  -8   1   8 1801.43   92.16
  -8  -1   8 1895.42   92.47
  -7   1   8   40.67    5.33
  -7  -1   8   38.06    5.28
  -7  -1   8   37.11    4.55
  -7  -1   8   39.23    4.53
  -7   1   8   29.86    4.67
  -7   1   8   36.62    8.02
  -7  -1   8   39.46    8.10
  -6  -1   8  655.22   31.07
  -6   1   8  631.25   32.22
  -6  -1   8  623.53   32.17
  -6   1   8  621.38   31.64
  -6  -1   8  607.40   30.51
  -6   1   8  636.60   39.23
  -6  -1   8  633.51   39.48
   6  -1  -8  607.68   38.54
   6   1  -8  659.11   38.98
  -5  -1   8  388.59   20.48
  -5   1   8  400.57   21.68
  -5  -1   8  400.02   21.61
  -5   1   8  347.99   20.80
   5  -1  -8  410.13   27.74
  -5   1   8  429.96   28.54
  -5  -1   8  412.72   28.23
   5   1  -8  321.56   26.05
  -4  -1   8  377.73   20.32
   4  -1  -8  409.60   28.00
  -4   1   8  405.49   21.80
  -4  -1   8  367.24   21.26
   4   1  -8  407.65   27.60
  -4   1   8  379.72   21.08
  -4   1   8  365.11   27.48
  -4  -1   8  374.89   27.57
  -3  -1   8 1493.09   67.10
  -3   1   8 1460.62   68.32
  -3  -1   8 1505.18   68.39
   3   1  -8 1342.74   74.48
  -3   1   8 1479.16   68.07
  -3   1   8 1620.22   77.26
  -3  -1   8 1437.18   75.73
   3  -1  -8 1581.78   76.40
  -2   1   8  160.77   11.39
  -2  -1   8  156.19   11.32
  -2   1   8  140.93   10.57
  -2   1   8  155.45   15.99
  -2  -1   8  166.17   16.44
   2  -1  -8  128.58   14.71
   2   1  -8  169.03   15.96
  -1   1   8  826.33   39.20
   1  -1  -8  762.79   45.56
   1   1  -8  783.46   45.81
  -1   1   8  866.92   47.71
  -1  -1   8  807.05   47.06
   1   1  -8  771.92   38.12
   0  -1   8  655.83   32.66
   0   1   8  678.73   33.77
   0  -1  -8  711.22   41.09
   0   1  -8  681.34   41.04
   0   1   8  680.79   41.02
   0  -1   8  713.06   41.42
   0   1  -8  654.05   32.76
   1  -1   8  668.20   33.18
  -1  -1  -8  666.41   41.37
  -1   1  -8  670.88   41.09
   1   1   8  695.72   34.47
   1   1   8  705.77   42.30
   1  -1   8  656.15   41.35
  -1   1  -8  712.28   33.69
   2   1   8  702.33   35.39
   2   1   8  675.40   42.65
   2  -1   8  724.54   43.15
  -2   1  -8  738.32   34.79
   2  -1   8  691.44   34.31
   3   1   8  635.47   31.08
   3   1   8  537.92   37.09
   3  -1   8  561.35   37.34
  -3   1  -8  593.81   29.85
   3  -1   8  596.29   29.59
   4   1   8  486.35   26.41
   4   1   8  501.35   33.93
   4  -1   8  473.05   33.14
   4  -1   8  488.13   26.17
  -4   1  -8  477.34   25.21
   4  -1   8  501.98   25.35
   5  -1   8 2892.70  127.87
   5   1   8 2882.95  128.03
   5   1   8 2919.10  137.23
   5  -1   8 2730.20  136.14
  -5   1  -8 2853.79  126.64
   5   1   8 2954.50  127.98
   6  -1   8  237.63   14.73
   6   1   8  256.73   17.36
   6   1   8  187.72   19.13
   6  -1   8  198.39   19.56
  -6   1  -8  193.87   13.11
   6   1   8  201.79   14.24
   7   1   8  970.27   47.34
   7   1   8 1037.30   56.13
   7  -1   8  930.69   54.47
  -7   1  -8  985.62   45.47
   7  -1   8  896.79   46.25
   7   1   8  929.08   46.43
   8   1   8 1432.74   66.24
   8   1   8 1338.74   74.46
   8  -1   8 1402.67   74.81
  -8   1  -8 1382.11   64.42
   8  -1   8 1402.99   65.75
   8   1   8 1420.19   66.04
   9   1   8  224.50   15.38
   9   1   8  227.76   21.47
   9  -1   8  185.16   19.58
  -9   1  -8  207.76   13.74
   9  -1   8  211.09   14.98
   9   1   8  241.12   15.45
 -10   1  -8 1685.17   77.33
 -10  -1  -8 1740.72   77.56
  10   1   8 1692.81   77.70
  10   1   8 1706.64   87.76
  10  -1   8 1571.03   86.12
 -10   1  -8 1665.25   76.08
  10  -1   8 1617.97   77.36
  10   1   8 1646.55   77.61
  11   1   8  345.75   27.39
  11  -1   8  307.18   26.03
 -11   1  -8  303.81   18.20
  11  -1   8  283.03   19.19
  11   1   8  320.04   19.73
 -11   1  -8  310.35   19.25
 -11  -1  -8  329.71   19.59
  12   1   8  172.22   18.64
  12  -1   8  130.41   16.56
 -12   1  -8  165.88   11.82
  12  -1   8  177.75   13.04
  12   1   8  158.17   12.63
 -12   1  -8  159.76   12.36
 -12  -1  -8  158.23   12.35
  13   1   8  802.51   52.87
  13  -1   8  928.87   54.34
 -13   1  -8  894.13   43.34
  13  -1   8  937.05   45.19
 -13   1  -8  882.59   44.34
  13   1   8  881.47   44.81
 -13  -1  -8  900.35   44.43
  14   1   8   78.03   12.21
  14  -1   8   57.42   10.90
 -14   1  -8   59.60    7.19
 -14  -1  -8   61.51    7.32
 -14   1  -8   61.14    6.75
  14  -1   8   68.44    7.86
  14   1   8   84.82    8.27
 -15   1  -8  335.88   19.00
 -15   1  -8  339.42   19.93
 -15  -1  -8  377.16   20.48
  15  -1   8  310.48   19.99
  15   1   8  303.89   20.08
 -16   1  -8   47.01    5.88
 -16  -1  -8   43.28    6.07
  16   1   8   46.85    6.17
  16  -1   8   48.77    6.46
 -16   1  -8   44.66    5.48
 -17   1  -8   32.80    4.91
 -17  -1  -8   43.34    5.42
  17  -1   8   43.75    5.80
  17   1   8   38.70    5.60
 -17   1  -8   28.92    4.25
 -18   1  -8  988.61   44.73
 -18  -1  -8  930.17   44.53
  18  -1   8  910.83   45.12
  18   1   8  915.85   45.20
 -19   1  -8  224.77   13.15
 -19  -1  -8  210.74   13.00
  19  -1   8  196.79   13.36
  19   1   8  224.82   13.79
 -20   1  -8  612.41   29.32
 -20  -1  -8  620.70   29.46
  20  -1   8  603.75   29.97
  20   1   8  584.83   29.76
 -21   1  -8  358.81   17.51
 -21  -1  -8  339.07   17.43
  21  -1   8  326.50   17.80
  21   1   8  333.01   17.79
 -22   1  -8    8.38    1.91
 -22  -1  -8    8.71    1.95
 -23   1  -8  276.32   13.76
 -23  -1  -8  275.63   13.84
  24   2  -8  124.32    7.33
  23   2  -8  267.52   14.04
 -22   2   8   55.11    4.93
  22   2  -8   67.18    5.51
 -21   2   8  147.94    9.64
  21   2  -8  159.43   10.05
 -20   2   8  268.58   15.60
  20   2  -8  284.18   15.81
 -19   2   8    5.79    2.72
  19   2  -8    5.77    3.40
 -18  -2   8  469.71   23.89
 -18   2   8  496.79   25.49
 -17  -2   8  434.70   22.26
 -17   2   8  422.29   23.33
 -16  -2   8  428.87   22.30
 -16   2   8  411.78   23.24
 -15  -2   8 1080.31   50.53
 -15   2   8 1082.46   51.73
 -14  -2   8    9.39    3.05
 -14   2   8    2.55    2.85
  14   2  -8    3.82    2.69
  14   2  -8    8.70    5.26
 -13   2   8  317.00   19.37
 -13  -2   8  344.43   19.87
 -13  -2   8  349.59   19.51
 -13   2   8  357.86   20.48
  13   2  -8  355.39   19.50
 -12   2   8  350.59   20.05
 -12  -2   8  349.69   20.26
 -12  -2   8  346.44   19.85
 -12   2   8  370.44   20.94
  12   2  -8  351.00   19.57
 -11  -2   8   47.64    5.60
 -11   2   8   45.87    5.48
 -11  -2   8   34.27    5.18
 -11   2   8   45.09    6.07
 -11   2   8   42.19    8.25
 -11  -2   8   34.94    7.91
  11   2  -8   38.61    5.11
  11   2  -8   49.01    8.95
 -10   2   8 1063.80   49.82
 -10  -2   8 1037.15   49.92
 -10  -2   8 1056.78   49.77
 -10   2   8 1100.68   50.81
  10   2  -8 1035.26   48.94
 -10   2   8  993.43   56.75
 -10  -2   8 1021.01   57.52
  10   2  -8 1047.03   57.34
  -9   2   8  313.71   19.56
  -9  -2   8  382.69   20.57
  -9  -2   8  392.31   20.51
  -9   2   8  362.29   20.80
   9  -2  -8  361.53   26.62
   9   2  -8  312.72   24.85
   9   2  -8  356.77   19.23
  -9   2   8  356.42   25.96
  -9  -2   8  353.54   26.47
   8  -2  -8  304.18   22.80
  -8   2   8  255.25   15.84
  -8  -2   8  239.62   15.77
  -8  -2   8  285.32   16.39
   8   2  -8  293.41   22.32
  -8   2   8  275.67   16.85
   8   2  -8  270.37   15.29
  -8   2   8  240.05   20.78
  -8  -2   8  294.87   22.45
  -8   2   8  264.17   15.10
  -7   2   8 1566.83   72.34
  -7   2   8 1496.38   78.79
  -7  -2   8 1534.48   79.53
  -7   2   8 1597.41   70.70
   7  -2  -8 1622.48   80.01
   7   2  -8 1535.74   78.87
  -6   2   8  238.69   15.20
  -6   2   8  233.02   19.51
  -6  -2   8  226.48   19.69
   6  -2  -8  216.68   19.27
   6   2  -8  236.30   19.29
  -6   2   8  235.06   13.98
  -5  -2   8  237.12   15.63
  -5   2   8  284.20   16.30
  -5  -2   8  269.80   16.28
  -5   2   8  270.34   16.70
  -5   2   8  236.36   20.84
  -5  -2   8  242.60   20.79
   5  -2  -8  283.29   21.86
   5   2  -8  268.16   20.80
  -5   2   8  294.34   16.04
  -4  -2   8  564.70   30.28
  -4   2   8  604.56   30.69
  -4  -2   8  603.15   30.81
  -4   2   8  614.09   31.46
   4  -2  -8  608.39   37.45
   4   2  -8  563.05   35.99
  -4   2   8  588.85   36.91
  -4  -2   8  570.99   36.98
  -4   2   8  695.11   31.23
  -3  -2   8   50.64    5.80
  -3  -2   8   55.27    6.00
  -3   2   8   46.76    5.73
   3  -2  -8   51.42    8.71
  -3   2   8   62.99    6.70
   3   2  -8   53.65    8.41
  -3   2   8   41.44    7.89
  -3  -2   8   54.59    8.95
  -3   2   8   67.34    6.71
   3   2  -8   59.14    6.32
  -2  -2   8  255.50   15.27
   2  -2  -8  258.72   20.89
   2   2  -8  254.18   20.26
  -2   2   8  239.02   15.20
  -2  -2   8  268.00   15.79
  -2   2   8  258.28   16.15
  -2   2   8  224.45   19.85
  -2  -2   8  278.99   21.51
   2   2  -8  256.82   15.73
  -1  -2   8  265.72   15.93
  -1   2   8  269.05   16.00
  -1  -2   8  272.93   16.20
  -1   2   8  280.81   16.93
  -1   2   8  249.22   20.84
  -1  -2   8  258.55   21.17
   1   2  -8  258.63   16.12
   0  -2   8   69.50    6.73
   0   2   8   58.96    6.21
   0  -2   8   57.50    6.18
   0   2  -8   47.25    6.04
   0   2   8   56.88    6.61
   0   2   8   60.44    9.38
   0  -2   8   55.10    8.88
   1  -2   8 1773.62   78.18
   1   2   8 1772.30   78.75
   1  -2   8 1775.07   78.78
   1   2   8 1759.13   79.40
   1   2   8 1625.71   85.90
   1  -2   8 1622.31   85.78
  -1   2  -8 1661.11   78.64
   2  -2   8   60.87    6.13
  -2   2  -8   45.79    6.08
   2   2   8   52.00    7.53
   2   2   8   45.04    8.55
   2  -2   8   49.31    8.64
   3  -2   8  283.56   16.57
   3   2   8  300.26   19.08
   3   2   8  271.52   22.61
   3  -2   8  292.62   23.10
  -3   2  -8  275.69   17.22
   4   2   8  981.66   51.37
   4   2   8 1081.94   58.02
   4  -2   8  952.49   56.82
  -4   2  -8 1078.89   50.24
   4  -2   8 1087.64   49.44
   5   2   8  120.89   17.51
   5   2   8  138.14   14.96
   5  -2   8  106.73   13.51
  -5   2  -8  123.76   10.12
   5  -2   8  132.16    9.65
   6   2   8  497.17   31.08
   6   2   8  466.92   33.00
   6  -2   8  484.16   33.05
  -6   2  -8  509.41   26.78
  -7   2  -8    0.63    3.03
   7   2   8   -1.39   15.10
   7   2   8   -1.58    4.08
  -7   2  -8    2.25    2.46
  -7  -2  -8    1.19    2.61
  -8   2  -8   57.84    7.11
   8   2   8   53.43   14.89
   8   2   8   89.99   12.04
  -8   2  -8   57.23    6.38
  -8  -2  -8   78.83    7.38
   9   2   8  680.31   42.69
  -9   2  -8  751.20   35.51
  -9   2  -8  603.94   36.83
  -9   2  -8  675.20   34.24
  -9  -2  -8  696.72   34.71
  10   2   8   71.93   11.41
 -10   2  -8   62.86    7.29
 -10   2  -8   60.25    6.67
 -10  -2  -8   80.12    7.55
  11  -2   8  173.15   12.20
  11   2   8  150.32   11.65
  11   2   8  185.10   18.05
 -11   2  -8  164.98   12.32
 -11   2  -8  168.05   11.66
 -11  -2  -8  173.28   11.98
  12   2   8  182.42   12.90
  12  -2   8  181.77   12.70
 -12   2  -8  183.75   12.23
 -12  -2  -8  180.21   12.39
 -12   2  -8  207.21   13.58
 -13   2  -8   17.67    4.13
  13   2   8   13.98    3.50
 -13   2  -8   15.28    3.57
 -13  -2  -8   16.38    3.72
  13  -2   8   14.59    3.55
  14  -2   8  438.71   24.26
 -14   2  -8  435.96   23.37
 -14  -2  -8  490.71   24.15
 -14   2  -8  464.87   24.77
  14   2   8  451.54   24.33
 -15   2  -8   81.52    6.74
 -15  -2  -8   79.92    7.00
 -15   2  -8   96.19    8.07
  15  -2   8   86.12    7.50
  15   2   8   84.85    7.42
 -16   2  -8   17.83    2.88
 -16  -2  -8   13.34    3.05
  16  -2   8   17.44    3.48
 -16   2  -8   17.81    3.76
 -17  -2  -8   94.84    6.94
 -17   2  -8   99.88    7.68
 -18  -2  -8    7.33    2.07
 -18   2  -8   13.20    3.05
 -19  -2  -8  109.11    7.67
  19   2   8  115.20    7.22
 -20  -2  -8   57.12    4.83
 -21  -2  -8  109.51    6.66
  21   3  -8   94.16    5.77
  21   3  -8   77.69    5.43
  20   3  -8   63.39    4.84
  20   3  -8   52.63    4.70
 -19  -3   8  131.63    8.09
  19   3  -8  148.00    8.94
 -18  -3   8   51.05    4.65
  18   3  -8   51.06    5.06
 -17  -3   8   96.12    7.21
  17   3  -8   99.71    7.52
 -16  -3   8  269.84   15.78
  16   3  -8  309.51   16.50
 -15  -3   8    0.44    2.38
  15   3  -8    1.41    2.26
 -14  -3   8  135.76    9.96
  14   3  -8  148.06   10.23
 -13  -3   8  140.80   10.45
 -13   3   8  137.72    9.95
 -12   3   8    3.85    2.57
  12   3  -8    7.59    2.89
 -12   3   8    9.10    2.36
 -11   3   8  101.59    8.25
  11   3  -8  108.70    8.44
 -11   3   8   93.19    7.41
 -10   3   8   32.91    4.59
  10   3  -8   17.79    3.64
  -9  -3   8  136.79   10.42
  -9   3   8  134.63   10.16
   9   3  -8  133.83    9.84
   9   3  -8  142.44   10.81
  -8  -3   8   85.58    7.87
  -8   3   8   91.28    8.02
   8   3  -8   83.17    7.38
   8   3  -8   95.71    8.48
   7   3  -8    0.61    2.78
  -7  -3   8   -2.27    2.93
  -7   3   8   -1.72    2.91
   7   3  -8   -0.48    2.25
  -6  -3   8  329.61   19.02
  -6   3   8  336.15   19.19
   6   3  -8  313.74   18.01
  -6   3   8  325.87   18.57
   6   3  -8  337.68   19.43
  -5  -3   8  769.06   37.90
  -5   3   8  767.63   38.04
   5   3  -8  749.21   36.79
  -5   3   8  787.29   37.77
   5   3  -8  771.63   38.33
  -4  -3   8  121.29    9.72
  -4   3   8  138.72   10.54
   4   3  -8  113.17    8.66
  -4   3   8  120.10    9.56
   4   3  -8  132.67   10.29
  -3  -3   8  213.73   14.00
  -3   3   8  239.17   15.13
   3   3  -8  199.51   12.78
  -3   3   8  231.42   14.29
   3   3  -8  218.42   14.49
  -2  -3   8   54.47    6.20
   2   3  -8   50.21    6.29
   2   3  -8   55.35    5.29
  -2   3   8   40.00    8.57
  -2   3   8   52.83    6.18
   1   3  -8   -0.62    2.89
  -1  -3   8   -2.12    3.14
  -1   3   8   -2.41    9.33
  -1   3   8   -1.76    2.88
   0  -3   8  188.41   12.72
   0   3   8  223.88   17.91
   0   3  -8  190.32   13.35
  -1   3  -8   16.97    4.26
   1  -3   8   22.06    4.01
   2  -3   8  151.75   10.50
   2   3   8  128.30   19.46
   3  -3   8   20.82    4.06
   3   3   8   32.63   17.11
   3   3   8   19.24    4.65
   4  -3   8   21.25    3.86
  -4   3  -8   15.33    4.75
   4   3   8   15.14    4.28
   5   3   8  143.64   19.19
  -5   3  -8  115.17   12.60
   5   3   8  170.89   12.33
   6   3   8    6.95    3.91
   7   3   8    2.10    3.55
   8   3   8  104.09    9.46
  -9   3  -8   60.23    6.00
   9   3   8   66.62    7.29
 -10   3  -8  693.17   34.99
  10   3   8  803.01   37.19
 -11   3  -8   27.16    3.80
  11   3   8   24.23    4.42
 -12   3  -8  120.16    8.37
  12   3   8  154.82   10.15
 -13  -3  -8   16.88    2.62
 -13   3  -8   12.96    2.55
  13   3   8   19.96    3.35
 -14  -3  -8   31.59    3.44
 -14   3  -8   29.40    3.00
  14   3   8   32.89    3.95
 -14   3  -8   21.82    4.01
 -15  -3  -8  215.26   12.34
  15   3   8  240.96   12.76
 -16  -3  -8    5.74    1.60
  16   3   8    8.81    1.67
 -16   3  -8   10.41    2.49
 -17  -3  -8    8.98    1.58
 -17  -4   8   64.73    4.17
  16   4  -8   60.25    4.27
  15   4  -8   -0.48    1.35
 -14  -4   8   16.57    2.75
  14   4  -8   12.45    2.31
 -13  -4   8   79.47    6.04
  13   4  -8   77.11    5.82
  12   4  -8    0.59    1.74
 -12  -4   8    4.79    2.12
  12   4  -8    1.61    1.95
  11   4  -8   27.60    3.40
 -11  -4   8   25.26    3.73
  11   4  -8   29.30    3.73
 -11   4   8   24.57    3.12
 -10  -4   8   52.06    5.11
  10   4  -8   54.96    5.06
  10   4  -8   48.51    4.80
 -10   4   8   49.99    4.62
  -9  -4   8   50.49    5.00
   9   4  -8   40.08    4.46
   9   4  -8   43.08    4.62
  -9   4   8   57.09    4.90
   8   4  -8   -1.17    2.47
  -8  -4   8    3.28    2.21
   8   4  -8    1.48    1.94
  -8   4   8    3.64    2.25
   7   4  -8    1.64    2.12
  -7  -4   8    6.65    2.58
   7   4  -8    6.35    2.39
  -7   4   8    6.58    2.45
   6   4  -8   -0.84    1.99
  -6  -4   8    0.42    2.01
   6   4  -8   -0.74    1.92
   5   4  -8    6.03    2.73
  -5  -4   8    7.04    2.52
   5   4  -8    5.21    2.34
   4   4  -8    7.01    2.63
  -4  -4   8    4.50    2.43
   4   4  -8    8.02    2.36
   3   4  -8    1.33    2.21
  -3  -4   8   -1.20    2.12
   3   4  -8   -2.48    2.14
   2   4  -8   -0.45    2.15
  -2  -4   8    1.17    1.88
   2   4  -8    1.71    1.71
   1   4  -8   35.89    4.57
  -1  -4   8   30.45    3.92
   1   4  -8   25.24    3.38
   0   4  -8    3.13    2.29
   0  -4   8    6.46    2.26
   0   4  -8    9.27    2.29
  -1   4  -8   20.55    3.54
   1  -4   8   20.63    3.05
  -2   4  -8    0.88    2.65
   2  -4   8    5.27    1.99
   2   4   8    6.62    2.99
  -3   4  -8   30.99    4.35
   3   4   8   35.91    4.73
  -4   4  -8  148.98    9.90
   4   4   8  141.82    9.96
  -5   4  -8    2.51    2.48
   5   4   8    6.86    2.63
  -6   4  -8   67.22    5.97
   6   4   8   69.52    6.10
  -7   4  -8  110.48    8.04
  -7   4  -8  115.30    8.01
   7   4   8  109.74    7.89
  -8   4  -8    1.09    1.88
  -8   4  -8    6.34    2.11
   8   4   8    2.69    1.99
  -9   4  -8   18.69    2.70
   9   4   8   15.48    2.77
  -9   4  -8   10.02    2.53
 -10   4  -8  120.53    7.57
 -10   4  -8  109.68    7.09
 -11   4  -8   90.26    5.83
 -11   4  -8   68.43    5.01
 -12   4  -8    1.73    0.98
 -12   4  -8    3.82    1.44
 -13   4  -8    1.62    1.16
  -3   5   8    7.62    1.52
  -2   5   8   -0.69    1.22
  -1   5   8    1.73    1.08
   0   5   8    2.85    1.23
  -1   5  -8   18.90    2.24
   1   5   8   14.61    1.93
  -2   5  -8   53.70    3.82
   2   5   8   51.07    3.57
 -26   0   9   -0.17    0.93
 -25   0   9   -0.49    1.30
 -24   0   9    1.88    1.85
 -23   0   9    2.25    1.97
 -22   0   9    0.43    2.13
 -21   0   9   -0.49    2.77
 -20   0   9    3.20    2.71
 -19   0   9   -1.71    3.72
 -18   0   9   -0.60    2.90
 -17   0   9   -1.38    3.39
 -17   0   9   -1.87    3.26
 -16   0   9    0.71    3.99
 -16   0   9   -0.63    2.95
 -15   0   9   -0.72    3.02
 -15   0   9    0.64    2.79
 -14   0   9    0.73    2.96
 -14   0   9   -1.27    2.96
 -14   0   9    1.86    3.80
 -13   0   9    2.89    3.61
 -13   0   9    0.63    3.20
 -13   0   9    5.55    4.13
 -12   0   9   -2.86    3.63
 -12   0   9   -1.24    2.99
 -12   0   9   -1.83    4.73
 -11   0   9    1.21    2.47
 -11   0   9   -3.63    4.96
 -10   0   9   -0.82    1.63
 -10   0   9    4.16    2.87
 -10   0   9   -3.58    5.66
  -9   0   9    3.51    3.07
  -9   0   9   -0.43    1.91
  -9   0   9    0.58    2.43
  -9   0   9   -1.77    4.55
  -8   0   9    0.69    3.16
  -8   0   9    3.99    2.18
  -8   0   9    2.85    2.44
  -8   0   9    3.50    3.91
  -7   0   9   -0.69    3.37
  -7   0   9   -0.46    2.03
  -7   0   9    1.12    2.51
  -7   0   9   -1.74    3.88
   7   0  -9   -1.70    5.36
  -6   0   9   -2.03    3.66
  -6   0   9   -0.46    1.99
  -6   0   9    1.11    2.38
  -6   0   9   -1.73    2.72
   6   0  -9   -1.67    4.03
  -5   0   9   -1.35    3.52
  -5   0   9   -2.36    2.48
  -5   0   9   -1.67    2.38
  -5   0   9    1.71    5.17
   5   0  -9    4.97    5.23
  -4   0   9    1.34    3.06
  -4   0   9    1.44    2.10
  -4   0   9   -1.67    2.49
   4   0  -9   -1.65    4.75
  -4   0   9    1.70    3.10
  -3   0   9    0.67    3.31
   3   0  -9    3.29    4.74
  -3   0   9    0.97    1.98
  -3   0   9   -1.12    2.28
  -3   0   9   -1.70    4.38
  -2   0   9    2.04    3.45
  -2   0   9   -0.56    2.12
  -2   0   9   -1.71    4.12
   2   0  -9   -1.65    3.97
  -1   0   9   -0.57    2.39
   1   0  -9   -1.66    4.79
  -1   0   9   -3.45    3.15
   0   0  -9    1.69    3.08
   0   0   9   -1.16    2.37
   0   0   9    1.75    5.51
   1   0   9   -0.59    2.78
   1   0   9    1.77    3.94
  -1   0  -9    1.71    4.69
   2   0   9   -1.78    2.41
   2   0   9   -1.79    4.32
   3   0   9    3.59    3.45
   3   0   9    5.44    4.37
   4   0   9    4.26    4.74
   4   0   9   -1.84    3.75
   5   0   9    5.58    4.72
   5   0   9   -3.73    6.14
   6   0   9   -1.26    4.18
   6   0   9    1.90    4.58
   6   0   9    1.46    3.47
   7   0   9   -3.19    3.64
   7   0   9    1.94    3.53
   7   0   9   -2.24    3.27
   8   0   9    0.65    2.83
   8   0   9   -1.97    4.39
   8   0   9   -1.52    3.47
   9   0   9    1.96    2.91
   9   0   9   -2.00    5.46
   9   0   9    0.77    3.53
  10   0   9   -2.02    4.11
  10   0   9   -0.78    3.42
 -10   0  -9    0.75    3.19
  11   0   9    2.02    5.22
  11   0   9   -0.79    3.65
 -11   0  -9    0.75    3.53
  12   0   9    2.02    4.50
 -12   0  -9   -2.21    4.13
  12   0   9    0.78    3.70
 -13   0  -9   -2.86    3.80
  13   0   9    0.77    3.28
 -14   0  -9    1.36    3.78
  14   0   9    3.72    3.45
 -15   0  -9    2.56    3.64
  15   0   9    3.54    3.65
 -16   0  -9    0.59    3.19
  16   0   9    5.96    2.77
 -17   0  -9    2.14    2.71
  17   0   9    3.64    2.88
 -18   0  -9    0.95    2.44
  18   0   9   -0.54    2.67
  19   0   9   -0.48    1.94
 -19   0  -9    2.05    2.01
 -20   0  -9   -0.34    1.74
  20   0   9    0.40    2.00
 -21   0  -9   -1.10    1.56
 -22   0  -9   -0.20    1.09
 -22   0  -9    0.16    0.91
 -25   1   9    0.39    0.93
 -24   1   9    4.32    1.86
 -24  -1   9    2.79    1.37
  24   1  -9    4.74    1.56
 -23   1   9   47.77    4.76
 -23  -1   9   44.89    4.18
  23   1  -9   52.16    4.29
 -22  -1   9   35.53    3.84
 -22   1   9   28.69    4.11
 -21  -1   9   36.27    4.38
 -20  -1   9  113.70    8.47
 -19  -1   9    1.90    2.16
 -18  -1   9  156.19   10.87
 -17  -1   9    1.58    2.50
 -16   1   9    9.37    3.77
 -16  -1   9    6.02    3.77
 -16  -1   9    3.26    2.81
 -15  -1   9   63.77    5.61
 -15   1   9   55.12    7.01
 -15  -1   9   55.10    7.17
 -15  -1   9   73.32    6.84
 -14   1   9   47.54    6.12
 -14  -1   9   46.05    6.24
 -14  -1   9   29.98    4.17
 -14  -1   9   39.27    5.24
 -13  -1   9  136.69    9.35
 -13   1   9  122.11   10.68
 -13  -1   9  124.01   10.73
 -13  -1   9  121.51    9.69
 -13   1   9  138.83   16.52
 -13  -1   9  160.30   17.14
 -12  -1   9   92.47    7.63
 -12   1   9  103.05    9.46
 -12  -1   9   97.20    9.11
 -12  -1   9   97.06    8.21
 -12   1   9   97.05   13.32
 -12  -1   9   86.09   12.78
 -11  -1   9   55.13    5.77
 -11  -1   9   61.59    7.17
 -11   1   9   54.85    6.91
 -11  -1   9   48.96    5.71
 -11   1   9   42.81    6.17
 -11   1   9   49.91   10.12
 -11  -1   9   62.18   10.84
 -10  -1   9   52.29    5.81
 -10   1   9   62.62    6.92
 -10  -1   9   52.71    5.90
 -10   1   9   72.73   11.46
 -10  -1   9   65.34   10.82
  -9  -1   9  332.10   18.58
  -9   1   9  335.56   19.70
  -9  -1   9  309.29   18.34
  -9   1   9  337.17   26.82
  -9  -1   9  329.59   26.78
   9  -1  -9  367.66   27.45
   9   1  -9  348.67   27.12
   8  -1  -9    8.50    5.14
  -8   1   9    2.76    2.95
  -8  -1   9    5.48    3.42
  -8  -1   9    8.02    2.82
   8   1  -9    3.37    4.07
  -8   1   9    6.85    3.45
  -8  -1   9    2.00    2.19
  -8   1   9    5.21    5.01
  -8  -1   9   -3.45    4.97
  -7  -1   9  111.36    8.66
  -7   1   9   98.73    9.45
  -7  -1   9  114.04    9.82
  -7   1   9  113.10    9.53
  -7  -1   9  109.21    8.50
   7  -1  -9  106.85   13.62
   7   1  -9  107.84   13.79
  -7   1   9  117.60   14.66
  -7  -1   9   97.64   13.40
  -6  -1   9  383.64   21.08
   6  -1  -9  378.53   28.56
   6   1  -9  394.07   29.32
  -6   1   9  365.19   22.27
  -6  -1   9  398.78   22.57
  -6   1   9  383.88   22.07
  -6  -1   9  388.08   20.96
  -6   1   9  409.81   29.87
  -6  -1   9  453.53   30.90
  -5   1   9    3.37    3.13
  -5  -1   9    4.67    3.49
  -5  -1   9    6.00    2.66
   5  -1  -9    4.90    4.21
   5   1  -9   -1.62    3.92
  -5  -1   9    1.45    2.02
  -5   1   9    2.46    2.68
  -5   1   9   -5.15    4.95
  -5  -1   9   -1.70    4.65
  -4  -1   9  372.53   19.88
  -4   1   9  374.27   21.34
  -4  -1   9  372.28   21.27
  -4   1   9  329.77   20.27
  -4   1   9  389.88   28.51
  -4  -1   9  359.57   27.87
   4  -1  -9  305.65   26.03
   4   1  -9  348.84   26.86
  -3  -1   9  179.31   12.01
  -3   1   9  185.70   13.28
  -3  -1   9  176.55   12.98
  -3   1   9  186.47   12.98
  -3   1   9  184.50   18.68
  -3  -1   9  193.70   18.78
   3  -1  -9  179.87   18.49
   3   1  -9  196.28   18.44
   3   1  -9  187.50   12.29
   2   1  -9   39.99    5.26
  -2   1   9   46.69    6.44
  -2  -1   9   45.32    6.21
  -2  -1   9   46.39    5.33
  -2   1   9   41.22    5.85
   2  -1  -9   53.72    9.68
   2   1  -9   50.07    9.03
  -2   1   9   44.46    9.27
  -2  -1   9   37.08    8.05
  -1   1   9  752.71   37.41
  -1  -1   9  754.40   37.22
   1  -1  -9  711.06   44.29
  -1   1   9  706.96   36.71
   1   1  -9  665.84   43.72
  -1   1   9  678.29   44.78
  -1  -1   9  790.09   46.11
   1   1  -9  734.62   35.80
   0   1  -9   14.12    3.43
   0   1   9   19.33    4.24
   0   1   9    6.96    4.24
   0  -1   9   23.96    7.18
   0  -1  -9   18.34    6.65
   0   1  -9   16.52    5.86
  -1   1  -9    5.83    2.79
   1  -1   9    7.26    2.85
   1   1   9    5.21    2.98
   1   1   9   12.33    5.57
   1  -1   9    6.93    4.75
   2   1   9  804.98   40.34
   2   1   9  806.03   49.40
   2  -1   9  779.14   48.77
  -2   1  -9  814.21   39.23
   2  -1   9  804.35   39.18
   3   1   9  807.61   39.40
   3   1   9  780.81   48.36
   3  -1   9  725.49   46.88
  -3   1  -9  760.58   37.82
   4   1   9  441.54   24.45
   4   1   9  393.36   30.34
   4  -1   9  426.79   30.93
  -4   1  -9  370.35   21.53
   5   1   9  328.11   22.02
   5   1   9  328.30   26.87
   5  -1   9  283.68   25.47
  -5   1  -9  337.23   18.88
   6   1   9   64.26   13.00
   6   1   9   70.96   11.62
   6  -1   9   45.69    9.96
  -6   1  -9   73.07    7.01
   7   1   9  149.96   14.11
   7   1   9  149.17   17.35
   7  -1   9  144.45   16.72
  -7   1  -9  131.48   10.07
  -8   1  -9    0.56    2.45
   8   1   9   -3.56    5.24
   8   1   9    5.75    5.24
   8  -1   9    7.48    5.39
   8  -1   9    0.72    3.54
   8   1   9    0.73    3.05
  -9   1  -9  247.87   16.85
  -9  -1  -9  233.50   16.57
   9   1   9  283.08   17.76
   9   1   9  288.29   24.84
   9  -1   9  247.19   23.41
  -9   1  -9  267.14   16.01
   9  -1   9  269.28   17.27
   9   1   9  251.73   17.15
 -10  -1  -9  715.82   36.78
  10   1   9  740.81   46.47
  10  -1   9  666.75   44.75
 -10   1  -9  695.12   35.24
  10  -1   9  707.08   36.73
  10   1   9  733.16   37.04
 -10   1  -9  697.62   36.50
  11   1   9   38.68    8.85
  11  -1   9   47.23    9.78
 -11   1  -9   52.71    5.95
 -11   1  -9   50.97    6.57
 -11  -1  -9   42.41    6.51
  11  -1   9   40.03    6.11
  11   1   9   50.09    6.80
 -12   1  -9  265.21   15.78
  12  -1   9  264.08   17.08
  12   1   9  268.34   17.37
 -12   1  -9  255.67   16.78
 -12  -1  -9  240.31   16.60
 -13   1  -9  465.96   24.75
 -13   1  -9  484.97   26.14
 -13  -1  -9  476.99   26.08
  13  -1   9  437.86   26.06
  13   1   9  501.77   26.67
 -14   1  -9   -1.83    3.10
 -14  -1  -9   -1.24    3.24
  14  -1   9   -1.34    3.05
  14   1   9    1.35    2.75
 -14   1  -9    2.42    2.21
 -15   1  -9   56.77    5.74
 -15   1  -9   62.29    6.70
 -15  -1  -9   71.92    7.09
  15   1   9   66.71    7.03
  15  -1   9   56.20    6.82
 -16   1  -9   10.27    3.27
 -16  -1  -9    9.93    3.22
  16  -1   9    9.35    3.35
  16   1   9   10.55    3.44
 -16   1  -9    9.92    2.67
 -17   1  -9   10.49    2.92
 -17  -1  -9    6.98    2.85
  17  -1   9    8.98    3.12
 -18   1  -9  193.32   11.81
 -18  -1  -9  220.80   12.30
  18  -1   9  183.93   12.15
  18   1   9  190.71   12.19
 -19   1  -9    6.96    2.19
 -19  -1  -9    4.43    2.02
 -20   1  -9   34.72    3.44
 -20  -1  -9   33.17    3.36
 -21   1  -9   26.81    2.59
 -21  -1  -9   29.28    2.79
 -21  -1  -9   28.68    2.94
 -22   2   9    2.49    1.34
  22   2  -9    3.08    1.61
 -21   2   9  243.84   13.60
  21   2  -9  271.74   13.62
 -20   2   9   44.19    4.54
  20   2  -9   41.68    4.27
 -19   2   9   94.75    7.53
  19   2  -9   97.70    7.16
 -18   2   9  148.93   10.26
  18   2  -9  137.27    9.42
 -17  -2   9   23.37    3.42
 -17   2   9   35.95    5.01
  17   2  -9   38.29    4.48
 -16  -2   9  195.24   12.14
 -16   2   9  201.36   13.47
  16   2  -9  214.12   12.68
 -15  -2   9  357.97   19.76
 -15   2   9  357.92   21.00
  15   2  -9  390.75   20.07
 -14  -2   9    7.70    2.82
 -14   2   9    8.10    3.07
  14   2  -9    2.31    2.39
 -13  -2   9   80.04    7.36
 -13   2   9   70.51    7.17
 -13  -2   9   88.58    7.82
 -13   2   9   85.05    8.19
  13   2  -9  100.35    7.54
 -12   2   9   20.25    4.04
 -12  -2   9   32.10    4.84
 -12  -2   9   31.33    4.71
 -12   2   9   27.68    4.87
  12   2  -9   27.62    4.04
 -11  -2   9  518.52   27.26
 -11   2   9  516.31   27.42
 -11  -2   9  514.37   27.51
 -11   2   9  518.17   28.23
  11   2  -9  537.90   26.38
 -10   2   9  217.10   14.20
 -10  -2   9  234.98   14.64
 -10  -2   9  222.17   14.23
 -10   2   9  245.34   15.44
 -10   2   9  190.94   18.68
  10   2  -9  183.56   18.73
  -9   2   9  122.55    9.69
  -9  -2   9  127.48   10.03
  -9  -2   9  119.39    9.70
  -9   2   9  139.06   10.85
  -9   2   9  125.74   14.38
   9   2  -9  119.66   14.06
  -8   2   9  365.09   21.12
  -8  -2   9  377.58   21.43
  -8  -2   9  410.04   21.54
  -8   2   9  424.86   22.66
  -8   2   9  352.95   26.98
   8   2  -9  353.26   27.06
  -8   2   9  361.90   19.76
  -7  -2   9  619.75   31.01
  -7   2   9  655.91   32.23
   7   2  -9  580.14   37.36
  -7   2   9  603.07   29.71
  -6   2   9   24.19    5.09
  -6   2   9   31.64    7.24
   6   2  -9   24.98    6.40
  -6   2   9   34.79    4.34
  -5   2   9  873.82   42.76
  -5  -2   9  911.66   43.07
  -5   2   9  923.06   43.78
   5   2  -9  863.47   49.94
  -5   2   9  811.11   49.54
  -5  -2   9  789.92   49.43
  -5   2   9  910.85   42.13
   5   2  -9  848.88   42.87
  -4  -2   9  152.80   11.47
  -4   2   9  183.86   12.20
  -4  -2   9  193.11   12.61
   4   2  -9  122.48   14.83
  -4   2   9  163.67   12.47
  -4   2   9  183.74   17.36
  -4  -2   9  154.01   16.59
  -4   2   9  188.88   11.98
   4   2  -9  160.26   12.08
  -3  -2   9  566.07   29.11
   3  -2  -9  521.52   35.89
   3   2  -9  575.22   36.16
  -3   2   9  573.48   29.44
  -3  -2   9  546.19   29.30
  -3   2   9  570.47   30.15
  -3   2   9  502.95   35.40
  -3  -2   9  508.30   35.44
  -3   2   9  633.85   29.77
   3   2  -9  557.72   29.52
  -2  -2   9 1133.08   55.90
  -2   2   9 1140.76   56.32
  -2  -2   9 1215.28   56.74
  -2   2   9 1191.80   57.28
  -2   2   9 1071.83   63.37
  -2  -2   9 1130.45   64.40
   2   2  -9 1212.36   56.79
  -1   2   9   39.32    5.44
  -1  -2   9   46.31    5.83
  -1  -2   9   45.87    5.74
  -1   2   9   46.98    6.11
  -1   2   9   37.22    7.83
  -1  -2   9   31.23    7.88
   1   2  -9   54.96    6.35
   0  -2   9  536.07   27.66
   0   2   9  544.68   28.22
   0  -2   9  522.20   27.98
   0   2   9  563.80   29.14
   0   2   9  426.65   33.30
   0  -2   9  564.47   35.98
   0   2  -9  532.84   28.25
   1  -2   9  398.00   21.89
   1   2   9  385.48   22.24
   1  -2   9  407.59   22.48
   1   2   9  422.56   23.75
   1   2   9  360.46   27.97
  -1   2  -9  400.03   22.55
  -2   2  -9   -1.25    3.23
   2   2   9   -3.75    3.37
   2  -2   9   -0.62    2.73
   2  -2   9    3.30    2.84
   2   2   9    2.07    8.63
   2   2   9    3.19    2.90
   3   2   9  263.67   17.14
   3  -2   9  289.45   17.53
   3   2   9  290.20   21.42
   3   2   9  284.73   23.73
  -3   2  -9  271.22   17.36
   3  -2   9  301.20   17.08
  -4   2  -9    7.55    3.11
   4  -2   9    9.87    3.18
   4   2   9   18.88   15.14
   4   2   9    9.72    5.13
   5   2   9  587.40   36.05
   5   2   9  556.99   38.58
  -5   2  -9  649.19   32.08
  -6   2  -9   79.76    7.41
  -6  -2  -9   76.17    7.57
   6   2   9   65.57   10.52
  -6   2  -9   76.88    7.88
  -7   2  -9   21.95    4.44
   7   2   9   36.17    8.27
  -7   2  -9   21.91    4.03
  -7  -2  -9   26.43    4.60
  -8   2  -9  296.17   17.05
  -8   2  -9  253.22   15.88
  -8  -2  -9  251.78   16.19
  -9   2  -9  591.61   29.50
  -9   2  -9  524.59   28.18
  -9  -2  -9  550.43   28.77
 -10   2  -9  146.51   11.17
 -10   2  -9  140.66   10.28
 -10  -2  -9  148.37   10.80
 -11   2  -9  311.33   17.99
 -11   2  -9  273.14   16.67
 -11  -2  -9  314.23   17.50
 -12   2  -9   79.09    6.96
 -12  -2  -9   86.50    7.48
 -12   2  -9   96.08    8.21
 -13   2  -9  275.73   15.84
 -13  -2  -9  286.74   16.20
 -13   2  -9  308.39   17.17
 -14  -2  -9  497.47   24.96
 -14   2  -9  507.68   25.83
 -15  -2  -9   15.32    2.89
 -15   2  -9   15.62    3.35
 -16  -2  -9  231.39   12.67
 -16   2  -9  244.46   13.60
 -17  -2  -9  105.07    6.85
 -17   2  -9  138.09    8.13
 -18  -2  -9  102.55    7.10
  18   2   9  124.33    7.28
 -19  -2  -9   89.44    5.73
  20   3  -9  312.27   15.15
  19   3  -9  714.00   32.05
  19   3  -9  712.06   32.66
  18   3  -9   17.19    2.76
 -18  -3   9   12.32    2.08
  18   3  -9   16.71    2.47
 -17  -3   9  494.39   23.73
  17   3  -9  492.36   23.87
  17   3  -9  515.20   24.71
 -16  -3   9  210.25   11.52
  16   3  -9  189.88   11.25
  16   3  -9  197.81   12.16
 -15  -3   9  163.88   10.25
  15   3  -9  159.19   10.04
  15   3  -9  173.10   11.13
 -14  -3   9  397.92   20.74
  14   3  -9  392.20   20.44
  14   3  -9  413.92   21.61
  13   3  -9    5.64    3.33
 -13  -3   9    9.14    2.89
  13   3  -9   14.03    2.83
 -12  -3   9  384.79   20.81
 -12   3   9  356.66   20.27
  12   3  -9  415.57   20.45
  12   3  -9  407.14   21.68
 -11   3   9  478.80   25.85
  11   3  -9  527.27   25.59
  11   3  -9  531.29   27.07
  10   3  -9    9.64    3.41
 -10   3   9    9.59    3.21
  10   3  -9    8.97    2.61
 -10   3   9    9.48    2.47
  -9  -3   9  662.90   33.44
  -9   3   9  676.69   33.49
   9   3  -9  658.16   32.24
   9   3  -9  702.39   34.22
  -8   3   9   62.41    6.31
  -8  -3   9   46.46    5.75
   8   3  -9   55.54    5.33
   8   3  -9   60.72    6.68
  -7  -3   9  766.15   37.98
  -7   3   9  801.09   38.39
   7   3  -9  769.76   36.56
  -6  -3   9  737.30   35.32
  -6   3   9  683.17   35.32
  -5  -3   9    5.34    3.32
  -5   3   9    9.85    4.85
  -5   3   9    9.46    3.06
  -4  -3   9  579.34   30.28
  -4   3   9  611.32   31.43
  -4   3   9  607.09   30.33
  -3  -3   9  460.50   24.35
  -3   3   9  439.53   25.88
  -3   3   9  473.12   24.58
  -2  -3   9    2.08    2.77
  -2   3   9   -0.60   10.18
  -2   3   9   -0.55    2.70
  -1  -3   9  307.92   17.98
  -1   3   9  285.09   21.88
  -1   3   9  334.89   18.60
   0  -3   9  113.04    8.83
   0   3   9   95.04   16.97
   0   3   9  108.84    9.05
   1   3   9  265.75   23.11
   1  -3   9  272.56   16.08
   2   3   9  352.36   26.96
   2  -3   9  355.61   19.58
   3  -3   9    8.57    2.83
   3   3   9    4.16   17.45
   4   3   9  338.10   27.48
   4   3   9  454.83   23.53
   5   3   9  144.31   18.14
   5   3   9  204.43   13.44
  -6   3  -9  196.75   13.83
   6   3   9  233.83   14.63
  -7   3  -9  326.45   18.52
  -7   3  -9  288.10   16.64
   7   3   9  332.05   18.67
  -8   3  -9   43.13    5.58
  -8   3  -9   34.49    4.12
   8   3   9   36.31    5.28
  -9   3  -9  654.89   31.46
   9   3   9  711.86   32.00
 -10   3  -9  237.68   14.98
  10   3   9  273.06   15.36
  11   3   9   64.46    5.95
 -11   3  -9   50.76    5.63
 -12   3  -9  325.56   18.44
  12   3   9  372.58   18.58
 -13   3  -9   95.84    7.40
  13   3   9  114.37    7.49
 -14   3  -9  104.68    7.21
  14   3   9  102.76    6.71
 -15   3  -9  199.99   10.47
  15   3   9  172.36    9.47
 -13  -4   9  387.32   16.52
  13   4  -9  300.54   15.40
 -12  -4   9   64.73    4.84
  12   4  -9   55.49    4.11
  12   4  -9   58.59    4.44
  11   4  -9   81.18    5.52
  11   4  -9   81.85    5.94
 -10  -4   9  387.95   18.43
  10   4  -9  358.00   17.41
  10   4  -9  346.43   18.07
   9   4  -9    9.99    2.45
  -9  -4   9   12.01    2.63
   9   4  -9   12.88    2.12
  -9   4   9   12.68    2.28
  -8  -4   9  613.32   27.55
   8   4  -9  525.85   26.28
   8   4  -9  555.94   27.34
  -8   4   9  610.13   27.00
  -7  -4   9  250.61   13.75
   7   4  -9  226.94   12.64
   7   4  -9  260.74   13.89
  -7   4   9  267.87   13.52
   6   4  -9    7.97    2.46
  -6  -4   9    6.84    2.43
   6   4  -9    6.13    1.93
  -6   4   9    4.83    2.17
  -5  -4   9  499.66   24.76
   5   4  -9  516.98   25.11
  -4  -4   9  131.91    8.62
   4   4  -9  128.09    8.77
  -3  -4   9  232.74   13.29
   3   4  -9  247.76   13.79
   2   4  -9  663.13   30.79
  -2  -4   9  614.76   29.99
   1   4  -9    8.15    2.54
  -1  -4   9    4.67    2.16
   0   4  -9  679.71   32.19
   0  -4   9  666.31   31.27
  -1   4  -9  171.28   10.67
  -2   4  -9  219.01   12.74
  -3   4  -9  138.43    9.05
  -4   4  -9    1.07    2.05
  -5   4  -9   72.29    5.98
  -5   4  -9   72.24    5.52
  -6   4  -9  523.50   25.57
  -6   4  -9  538.84   25.07
  -7   4  -9    0.89    1.44
  -7   4  -9    3.57    2.16
  -8   4  -9  466.06   21.38
  -8   4  -9  424.01   20.33
  -9   4  -9  147.73    8.45
 -10   4  -9  139.63    7.83
 -11   4  -9  395.04   18.26
 -24   0  10  510.80   23.64
 -23   0  10  134.65    8.19
 -22   0  10    5.70    2.09
 -21   0  10   68.99    5.99
 -20   0  10  167.33   10.97
 -19   0  10 1482.45   67.51
 -18   0  10  124.09    9.58
 -17   0  10  214.21   14.20
 -17   0  10  199.91   13.52
 -16   0  10 2275.33  102.89
 -16   0  10 2286.38  102.21
 -15   0  10  368.25   22.08
 -15   0  10  383.05   21.55
 -14   0  10  322.95   19.79
 -14   0  10  322.96   19.24
 -13   0  10 1051.17   52.54
 -13   0  10 1097.56   51.93
 -13   0  10 1114.12   62.37
 -12   0  10    4.37    3.39
 -12   0  10    2.52    3.19
 -12   0  10    7.49    4.52
  12   0 -10   -2.01    4.86
 -11   0  10 1282.19   61.23
 -11   0  10 1288.44   60.29
 -11   0  10 1199.13   70.35
  11   0 -10 1351.55   72.66
 -10   0  10  603.10   31.22
 -10   0  10  555.79   40.09
  10   0 -10  635.43   41.69
  -9   0  10  126.03   10.18
   9   0 -10  114.36   15.26
  -9   0  10  125.27   15.95
  -8   0  10 1680.54   76.77
   8   0 -10 1670.42   87.06
  -8   0  10 1603.85   75.27
  -8   0  10 1634.29   86.47
  -7   0  10   77.47    8.72
  -7   0  10   81.27    8.01
  -7   0  10   79.95   12.97
   7   0 -10   90.67   13.44
  -6   0  10  397.62   23.37
  -6   0  10  405.80   22.38
  -6   0  10  359.74   29.85
   6   0 -10  390.22   30.43
  -5   0  10 1332.28   63.08
  -5   0  10 1295.89   61.45
  -5   0  10 1342.70   73.13
   5   0 -10 1299.98   72.13
  -4   0  10  409.77   24.70
  -4   0  10  426.65   23.70
  -4   0  10  405.09   32.56
   4   0 -10  486.85   33.45
  -3   0  10  481.25   26.87
  -3   0  10  467.91   25.42
   3   0 -10  453.71   33.49
  -3   0  10  427.21   33.77
  -2   0  10  190.34   14.11
  -2   0  10  166.63   12.38
   2   0 -10  197.99   19.87
  -2   0  10  162.32   18.72
  -1   0  10  420.74   24.27
   1   0 -10  429.07   32.13
  -1   0  10  400.02   22.84
  -1   0  10  388.10   31.15
   0   0 -10 2401.52  119.14
   0   0  10 2355.70  107.15
   0   0  10 2498.45  120.12
   1   0  10  313.49   18.73
   1   0  10  294.02   26.22
   2   0  10  808.93   40.63
   2   0  10  842.84   51.70
   3   0  10 1529.75   72.31
   3   0  10 1681.94   85.49
   4   0  10   -1.93    4.58
   4   0  10    8.12    5.55
   5   0  10 2011.80   90.98
   5   0  10 1980.45  103.38
   6   0  10  592.16   30.58
   6   0  10  538.26   39.71
   7   0  10    3.21    3.26
   7   0  10    2.06    4.59
   8   0  10  293.78   18.01
   8   0  10  297.62   26.33
   9   0  10   57.05   11.28
  -9   0 -10   62.46    7.68
 -10   0 -10  486.69   27.33
 -11   0 -10   21.96    5.29
  12   0  10  313.42   19.54
 -12   0 -10  318.15   19.45
  13   0  10  178.95   13.55
 -13   0 -10  206.76   13.90
 -14   0 -10  409.41   22.78
 -15   0 -10  419.21   22.74
 -16   0 -10  416.08   22.07
 -17   0 -10   86.11    6.96
 -18   0 -10  414.50   20.83
 -19   0 -10  554.56   26.14
 -20   0 -10  213.02   10.99
 -22  -1  10  214.46   11.27
 -21  -1  10  208.61   11.42
 -20  -1  10  885.99   40.69
 -19  -1  10   59.24    5.44
 -18  -1  10  440.55   22.66
 -17  -1  10  409.13   21.55
 -16   1  10   33.40    5.25
 -16  -1  10   38.15    5.47
 -16  -1  10   45.78    5.09
 -16   1  10   31.33    5.29
 -15   1  10 1114.89   53.47
 -15  -1  10 1083.36   53.17
 -15   1  10 1151.13   53.41
 -15  -1  10 1119.72   52.07
 -14  -1  10  368.83   19.75
 -14   1  10  388.47   22.39
 -14  -1  10  411.27   22.69
 -14   1  10  397.99   22.25
 -14  -1  10  373.53   20.85
 -13  -1  10  200.91   12.50
 -13   1  10  209.10   14.56
 -13  -1  10  232.51   14.97
 -13   1  10  216.65   14.47
 -13  -1  10  201.01   13.19
 -12  -1  10  553.82   28.73
 -12   1  10  614.59   31.47
 -12  -1  10  611.70   31.40
 -12   1  10  635.52   31.35
 -12  -1  10  567.87   29.47
 -12   1  10  529.89   38.46
 -12  -1  10  532.61   38.24
 -11  -1  10  314.82   18.83
 -11   1  10  384.25   21.52
 -11  -1  10  365.61   21.17
 -11   1  10  360.44   20.87
 -11  -1  10  362.40   19.71
  11  -1 -10  320.54   27.56
  11   1 -10  373.18   28.94
 -11   1  10  326.81   27.78
 -11  -1  10  317.63   27.37
 -10  -1  10  327.89   18.45
 -10   1  10  342.64   20.29
 -10  -1  10  345.01   20.21
  10  -1 -10  283.54   26.07
  10   1 -10  339.49   27.51
 -10   1  10  339.94   20.03
 -10  -1  10  324.76   18.67
 -10   1  10  282.44   25.85
 -10  -1  10  311.40   26.36
  -9  -1  10  476.47   24.00
  -9   1  10  466.52   25.30
  -9  -1  10  422.16   23.50
  -9   1  10  426.32   32.70
  -9  -1  10  471.58   33.62
   9  -1 -10  395.78   31.78
   9   1 -10  431.52   32.50
  -8  -1  10   21.98    4.03
  -8  -1  10   14.69    3.39
  -8   1  10   21.43    4.55
   8  -1 -10   11.04    6.32
   8   1 -10   20.04    6.47
  -8   1  10   12.93    5.88
  -8  -1  10   18.31    7.31
  -7  -1  10  636.21   31.64
  -7   1  10  652.02   33.62
  -7  -1  10  651.27   33.43
  -7  -1  10  614.74   31.43
  -7   1  10  621.29   32.77
  -7   1  10  566.70   40.72
  -7  -1  10  672.80   42.18
   7  -1 -10  554.07   40.22
   7   1 -10  654.01   41.87
  -6  -1  10  712.98   34.34
  -6   1  10  711.96   36.07
  -6  -1  10  682.61   35.77
  -6  -1  10  646.30   33.65
  -6   1  10  701.19   35.36
  -6   1  10  738.44   45.04
  -6  -1  10  657.15   43.74
   6  -1 -10  639.41   43.56
   6   1 -10  673.80   43.65
   6   1 -10  684.16   34.32
  -5  -1  10  164.67   11.34
  -5   1  10  141.87   11.99
  -5  -1  10  170.73   12.59
  -5  -1  10  146.96   10.55
  -5   1  10  161.76   12.13
   5  -1 -10  134.41   16.73
  -5   1  10  157.46   18.04
  -5  -1  10  125.72   16.16
   5   1 -10  196.06   18.81
   5   1 -10  152.77   11.08
  -4   1  10 1244.14   57.87
  -4  -1  10 1193.84   57.41
  -4   1  10 1253.09   57.29
   4  -1 -10 1087.17   65.13
   4   1 -10 1252.31   67.04
  -4   1  10 1161.53   67.05
  -4  -1  10 1187.54   67.11
   4   1 -10 1140.91   55.57
  -4  -1  10 1208.78   55.93
   3   1 -10   30.74    4.85
  -3   1  10   40.53    6.39
  -3  -1  10   37.78    5.80
  -3   1  10   40.80    5.93
   3  -1 -10   34.21    8.19
   3   1 -10   41.13    9.07
  -3   1  10   35.82    8.91
  -3  -1  10   39.06    8.79
  -3  -1  10   43.60    5.60
  -2   1  10 1170.94   56.35
  -2  -1  10 1179.30   56.18
   2  -1 -10 1184.84   65.32
   2   1 -10 1167.33   65.22
  -2   1  10 1140.05   55.59
  -2   1  10 1110.29   65.26
  -2  -1  10 1125.64   65.36
   2   1 -10 1163.85   54.35
  -2  -1  10 1171.31   54.59
   1  -1 -10  722.85   45.38
   1   1 -10  650.39   44.52
  -1   1  10  713.18   37.14
  -1  -1  10  715.33   37.22
  -1   1  10  705.66   36.59
  -1   1  10  727.45   46.13
  -1  -1  10  707.38   45.61
   1   1 -10  743.77   35.58
   0   1  10  299.32   18.91
   0  -1  10  281.75   18.49
   0   1  10  282.08   18.16
   0   1  10  287.37   25.51
   0  -1  10  282.59   25.30
   0   1 -10  304.36   17.39
   1   1  10 3000.72  132.46
   1  -1  10 3071.78  132.48
   1   1  10 3070.48  131.92
   1   1  10 2925.25  142.91
   1  -1  10 2715.42  141.83
  -1   1 -10 2842.55  130.05
   2   1  10   93.51   10.56
   2   1  10   93.09   13.96
   2  -1  10   85.68   13.28
  -2   1 -10  104.43    8.53
   3   1  10  123.87   12.73
   3   1  10   91.74   13.63
   3  -1  10   88.08   13.85
  -3   1 -10  117.36    9.10
   4   1  10  472.71   27.91
   4   1  10  428.81   33.15
   4  -1  10  439.42   33.40
  -4   1 -10  439.61   23.80
   5   1  10  399.22   26.01
   5   1  10  408.34   31.72
   5  -1  10  417.07   31.73
  -5   1 -10  394.94   21.78
   6   1  10  636.28   32.97
   6   1  10  540.18   39.17
   6  -1  10  510.21   38.38
  -6   1 -10  582.82   29.66
   7   1  10   72.70    9.11
   7   1  10   76.54   12.35
   7  -1  10   72.84   12.33
  -7   1 -10   65.13    6.64
  -8   1 -10   -1.59    2.93
   8   1  10   -0.70    3.78
   8   1  10   13.66    6.41
   8  -1  10    5.71    5.49
  -8   1 -10    3.48    3.29
  -8  -1 -10   -2.82    3.80
  -9   1 -10 1073.98   51.59
  -9  -1 -10 1082.44   51.76
   9   1  10 1110.29   52.03
  -9   1 -10 1010.48   49.77
 -10   1 -10  309.34   18.04
 -10   1 -10  325.08   19.75
 -10  -1 -10  343.88   19.97
 -11   1 -10  539.66   28.14
 -11   1 -10  564.23   29.76
 -11  -1 -10  601.20   30.29
 -12   1 -10  236.77   14.29
 -12   1 -10  259.54   15.98
 -12  -1 -10  256.45   15.88
 -13   1 -10    2.21    2.94
 -13  -1 -10    8.43    3.66
 -13   1 -10    2.79    2.06
 -14   1 -10  994.14   45.70
 -14   1 -10  984.79   47.17
 -14  -1 -10 1028.68   47.44
 -15   1 -10  132.39    8.90
 -15   1 -10  107.39    7.32
 -15  -1 -10  109.27    8.49
 -16   1 -10  236.82   13.63
 -16  -1 -10  242.13   13.78
 -17   1 -10  490.74   24.03
 -17  -1 -10  498.37   24.15
 -18   1 -10   89.03    5.93
 -18  -1 -10   81.92    5.86
 -19   1 -10  234.59   12.03
 -19  -1 -10  249.69   12.24
 -20  -1 -10  241.47   11.74
  22   2 -10   18.73    2.23
 -21   2  10  188.92    9.95
 -20   2  10    1.33    1.44
 -19   2  10  170.24   10.20
 -18   2  10  146.72    9.68
 -17   2  10    1.32    2.13
 -16  -2  10  471.18   22.73
 -16   2  10  452.60   24.29
 -15  -2  10   57.50    5.24
 -15   2  10   53.25    6.11
 -14  -2  10  145.57    9.54
 -14   2  10  132.58   10.41
 -13  -2  10  285.69   15.64
 -13   2  10  267.55   15.76
 -13  -2  10  247.95   15.69
 -13   2  10  283.38   16.95
 -12   2  10    6.66    2.69
 -12  -2  10    3.69    2.36
 -12  -2  10    2.83    2.55
 -12   2  10    4.37    3.27
 -11  -2  10  576.85   28.91
 -11   2  10  544.84   28.93
 -11  -2  10  549.79   29.11
 -11   2  10  619.56   30.54
 -10  -2  10  170.34   12.09
 -10   2  10  183.94   12.35
 -10  -2  10  192.23   12.74
 -10   2  10  187.16   13.25
  -9  -2  10  104.15    8.53
  -9   2  10   90.39    8.18
  -9  -2  10   93.84    8.57
  -9   2  10  117.93    9.82
   9   2 -10  106.79    9.24
  -8  -2  10  598.02   30.53
  -8   2  10  589.62   30.61
  -8  -2  10  552.07   30.41
  -8   2  10  615.89   31.68
   8   2 -10  652.64   31.57
  -7   2  10   29.30    4.78
  -7  -2  10   41.08    5.37
   7   2 -10   37.75    5.50
  -7  -2  10   40.11    5.30
  -7   2  10   38.74    5.87
  -7   2  10   32.38    4.05
  -6   2  10  301.85   18.65
  -6   2  10  296.20   16.56
   6   2 -10  299.68   18.07
  -5   2  10   99.29    9.11
  -5   2  10   95.21    7.45
   5   2 -10   80.72    8.02
  -4   2  10  278.65   16.86
  -4  -2  10  260.26   16.66
  -4   2  10  278.46   17.57
  -4   2  10  232.51   21.49
  -4   2  10  276.80   16.15
   4   2 -10  293.27   17.28
  -3  -2  10 1414.93   64.96
  -3   2  10 1393.82   65.32
  -3  -2  10 1335.06   65.21
  -3   2  10 1427.67   66.22
  -3   2  10 1548.18   65.19
   3   2 -10 1420.97   65.46
   2   2 -10    9.83    3.85
  -2   2  10    7.39    3.09
  -2  -2  10    9.31    3.50
  -2  -2  10    7.29    3.52
  -2   2  10    6.88    4.08
  -2   2  10    3.16    3.83
  -2   2  10    7.63    3.14
  -1   2  10  407.32   22.38
  -1  -2  10  352.14   21.77
  -1   2  10  404.68   23.25
  -1   2  10  322.95   27.13
  -1   2  10  464.78   23.25
   1   2 -10  398.27   22.28
  -1  -2  10  387.96   21.83
   0   2  10  830.99   41.41
   0  -2  10  850.01   41.48
   0   2  10  835.71   42.60
   0   2  10  762.31   48.40
   0   2 -10  859.50   41.59
   0  -2  10  863.35   41.11
  -1   2 -10    6.15    3.27
   1   2  10    0.62    2.53
   1  -2  10   -0.62    2.59
   1  -2  10   -0.56    3.01
   1   2  10   -4.13   10.12
   1   2  10    1.61    2.94
   2   2  10  489.18   26.93
   2  -2  10  502.86   27.04
  -2   2 -10  524.24   27.20
   3   2  10  286.11   17.82
   3  -2  10  278.64   17.70
  -3   2 -10  332.89   18.51
  -4   2 -10   55.95    6.52
   4   2  10   64.24    6.95
   4  -2  10   57.41    6.68
  -5   2 -10 1624.89   74.98
   5   2  10 1635.91   75.82
   5  -2  10 1607.85   75.65
  -5  -2 -10 1711.65   75.71
  -5   2 -10 1691.57   75.80
  -6   2 -10   35.14    5.34
   6   2  10   40.08    5.44
   6  -2  10   34.52    5.09
  -6   2 -10   30.99    4.67
  -6  -2 -10   31.59    4.95
   7  -2  10  798.43   38.33
  -7   2 -10  825.14   38.53
  -7   2 -10  725.44   37.28
  -7  -2 -10  757.86   37.85
  -8   2 -10  273.95   16.07
  -8   2 -10  229.65   14.91
  -8  -2 -10  273.06   15.76
  -9   2 -10   20.06    3.93
  -9   2 -10   13.27    3.15
  -9  -2 -10   20.32    3.93
 -10   2 -10  439.43   22.79
 -10   2 -10  399.70   21.59
 -10  -2 -10  428.74   22.15
 -11  -2 -10  119.36    8.69
 -11   2 -10  130.82    9.44
 -12  -2 -10  170.73   10.53
 -12   2 -10  176.25   11.31
 -13  -2 -10  516.27   26.05
 -13   2 -10  589.00   27.19
 -14  -2 -10   64.56    5.15
 -14   2 -10   88.60    6.27
 -15   2 -10  294.90   15.24
 -16  -2 -10  304.33   16.87
  16   2  10  435.49   18.34
 -17  -2 -10    1.45    1.09
  17   2  10    3.10    1.26
  18   3 -10    0.62    1.17
 -17  -3  10   32.29    2.83
  17   3 -10   43.77    3.87
  16   3 -10    2.17    1.77
 -16  -3  10   -0.43    1.41
 -15  -3  10   28.91    3.18
  15   3 -10   30.32    3.85
 -14  -3  10  105.27    7.21
 -13  -3  10    9.86    2.47
 -12  -3  10  212.77   12.42
 -11  -3  10    0.80    2.24
 -11   3  10    0.40    2.65
 -10   3  10   30.88    4.54
  -9   3  10   14.18    4.27
  -8  -3  10   86.18    7.47
  -8   3  10  103.93    8.70
  -7  -3  10   96.17    7.94
  -7   3  10  102.27    9.13
  -6  -3  10    0.94    2.47
  -6   3  10   11.38    6.53
  -5  -3  10   59.63    6.07
  -5   3  10   61.47   10.08
  -4  -3  10  510.51   26.46
  -4   3  10  513.72   28.55
  -4   3  10  525.59   26.16
   3   3 -10   43.94    5.63
  -3  -3  10   37.27    5.24
  -3   3  10   34.31   11.89
  -3   3  10   50.76    5.38
  -2  -3  10  260.91   15.73
  -2   3  10  296.64   21.02
  -2   3  10  270.67   15.80
   2   3 -10  267.56   16.32
  -1   3  10   77.42   17.04
  -1   3  10   80.95    7.25
   1   3 -10   77.38    7.61
  -1  -3  10   88.72    7.30
   0   3 -10    0.54    2.74
   0  -3  10    1.84    2.41
   0   3  10    6.02   16.37
   0   3  10    1.51    2.20
   1   3  10   97.62   18.45
  -1   3 -10  110.09    8.99
   1   3  10  116.73    8.95
   1  -3  10  105.72    8.35
  -2   3 -10    1.58    2.68
   2   3  10    4.82   16.88
   2   3  10    2.05    2.96
   3   3  10  135.87   18.34
  -3   3 -10  140.52   10.26
   4   3  10  136.08   16.29
  -4   3 -10  116.18    9.20
  -5   3 -10   -2.47    3.12
   5   3  10   -2.51    2.93
  -6   3 -10  394.75   21.19
   6   3  10  395.28   21.26
  -7   3 -10   76.71    6.81
   7   3  10   78.10    7.02
  -8   3 -10   41.84    5.02
   8   3  10   44.46    5.00
  -9   3 -10  175.64   11.32
   9   3  10  194.18   11.59
 -10   3 -10   75.91    6.38
  10   3  10   83.12    6.42
 -11   3 -10  114.54    7.97
  11   3  10  134.77    8.31
 -12   3 -10   51.62    4.61
  12   3  10   53.67    4.50
  13   3  10    1.05    1.41
 -13   3 -10    0.24    1.49
 -14   3 -10   61.65    4.30
 -12  -4  10   -0.46    0.93
 -11  -4  10    0.73    1.12
  10   4 -10    1.70    1.22
 -10  -4  10    1.24    1.13
   9   4 -10    7.89    1.77
  -9  -4  10   12.79    2.07
   8   4 -10   58.75    4.63
  -8  -4  10   63.05    4.74
   7   4 -10    3.93    1.73
  -7  -4  10    2.49    1.53
  -7   4  10    2.00    1.24
   6   4 -10   -2.49    1.89
  -6  -4  10    0.26    1.47
  -6   4  10   -1.05    1.37
   5   4 -10   10.36    2.42
  -5  -4  10   10.79    2.14
  -5   4  10   11.20    2.10
   4   4 -10   22.70    3.12
  -4  -4  10   15.28    2.59
  -4   4  10   21.67    2.73
   3   4 -10   23.39    3.09
   2   4 -10    0.91    1.70
   1   4 -10   -0.30    2.00
   0   4 -10   32.43    3.71
  -1   4 -10   13.10    2.42
  -2   4 -10   21.76    2.95
  -2   4 -10   16.64    2.24
  -3   4 -10   10.06    2.18
  -3   4 -10    5.80    1.38
  -4   4 -10   44.63    4.01
  -5   4 -10   -0.47    1.40
  -6   4 -10    0.42    1.28
  -7   4 -10    2.39    1.30
 -22   0  11    0.43    1.19
 -21   0  11    1.94    1.54
 -20   0  11   -1.00    1.85
 -19   0  11   -0.38    2.01
 -18   0  11   -1.72    2.25
 -17   0  11    0.94    2.19
 -16   0  11   -1.14    2.64
 -16   0  11    5.07    2.69
 -15   0  11   -0.61    3.04
 -15   0  11    0.54    2.72
 -14   0  11    0.64    3.14
 -14   0  11   -1.68    3.15
 -13   0  11    0.67    3.16
 -13   0  11   -0.58    2.70
 -12   0  11   -0.69    2.88
 -12   0  11   -0.60    2.72
 -11   0  11    0.71    2.95
 -11   0  11   -0.61    2.83
 -10   0  11   -1.43    3.25
 -10   0  11   -0.62    3.14
  -9   0  11   -1.87    3.11
  -9   0  11    1.90    4.25
  -8   0  11    1.88    2.62
  -8   0  11   -3.85    4.30
   8   0 -11    1.96    3.10
  -7   0  11    0.76    3.34
  -7   0  11    0.63    2.44
  -7   0  11   -3.89    5.32
   7   0 -11   -3.91    4.71
  -6   0  11   -0.77    3.60
  -6   0  11   -1.26    3.20
  -6   0  11   -3.94    5.68
   6   0 -11    7.79    5.33
  -5   0  11   -0.78    3.33
  -5   0  11    1.90    2.77
  -5   0  11    3.99    4.81
  -4   0  11    3.92    3.85
   4   0 -11   -3.91    4.37
  -4   0  11   -1.28    2.79
  -4   0  11    2.01    4.11
   3   0 -11    5.88    5.05
  -3   0  11    3.94    4.00
  -3   0  11    0.64    3.03
  -3   0  11    6.08    4.89
  -2   0  11    0.79    3.47
  -2   0  11   -0.64    2.25
  -2   0  11   -2.04    5.25
   2   0 -11   -1.97    5.07
  -1   0  11    0.80    3.56
  -1   0  11   -0.63    3.37
  -1   0  11   -2.04    5.27
   0   0  11   -1.60    3.65
   0   0  11   -0.63    3.94
   0   0  11   -2.05    4.57
   1   0  11   -0.80    3.36
   1   0  11   -2.52    5.10
   1   0  11    6.16    4.95
   2   0  11   -1.61    3.82
   2   0  11    2.51    5.11
   2   0  11    6.17    4.96
   3   0  11   -2.49    4.54
   3   0  11    2.06    4.19
   4   0  11   -2.46    3.27
   4   0  11   -2.05    4.19
   5   0  11    1.81    2.70
   6   0  11    1.78    2.53
   7   0  11    0.57    2.96
  -8   0 -11   -0.69    3.57
  -9   0 -11    0.67    3.34
 -10   0 -11   -0.64    3.73
 -11   0 -11   -0.60    3.29
 -12   0 -11    1.11    2.95
 -13   0 -11    1.51    2.74
 -14   0 -11   -2.23    2.85
 -15   0 -11    0.39    2.02
 -16   0 -11    0.32    1.73
 -17   0 -11    0.26    1.37
 -18   0 -11   -0.58    1.06
  21   1 -11    6.75    1.67
 -20  -1  11   77.01    5.08
 -19  -1  11    6.01    1.72
 -19   1  11   11.48    2.68
 -18  -1  11   10.14    2.40
 -18   1  11    7.57    2.79
 -17  -1  11    4.08    2.15
 -17   1  11    3.74    2.80
 -16   1  11   17.28    3.82
 -16  -1  11   14.64    2.86
 -15   1  11  120.81    9.57
 -15  -1  11  133.19    9.86
 -15   1  11  115.38    9.51
 -15  -1  11  113.19    8.35
 -14   1  11    0.58    2.55
 -14  -1  11    1.16    2.74
 -14  -1  11    1.73    2.19
 -14   1  11    4.60    2.82
 -13   1  11   26.97    4.90
 -13  -1  11   32.22    5.05
 -13  -1  11   28.49    4.12
 -13   1  11   30.63    4.96
 -12   1  11    2.55    3.08
 -12  -1  11    5.69    3.21
 -12  -1  11    2.34    2.04
 -12  -1  11    3.74    2.56
 -12   1  11    6.20    3.49
 -11   1  11    7.89    3.50
 -11  -1  11    3.91    3.03
 -11  -1  11    2.99    2.13
 -11  -1  11    3.36    2.23
 -11   1  11    0.64    3.28
 -10   1  11   40.42    5.64
 -10  -1  11   32.74    5.29
  10   1 -11   29.55    4.78
 -10  -1  11   27.93    4.06
 -10  -1  11   24.86    4.03
 -10   1  11   38.26    5.78
  -9   1  11   62.71    7.24
  -9  -1  11   62.11    6.94
  -9   1  11   57.82    6.69
  -9  -1  11   41.33    5.26
   9   1 -11   55.80    6.25
  -9  -1  11   50.31    5.71
  -8  -1  11  134.44    9.89
  -8   1  11  157.22   11.61
   8   1 -11  140.73   10.43
  -8  -1  11  138.28   10.05
   7   1 -11    1.08    2.52
  -7  -1  11    2.09    2.28
  -7  -1  11   -0.50    2.36
  -7   1  11   -0.67    3.22
   6   1 -11    5.40    2.70
  -6   1  11    2.19    2.97
  -6  -1  11    3.60    3.77
  -6  -1  11    0.53    2.18
  -6  -1  11    3.98    2.65
  -6   1  11    1.35    3.42
  -6   1  11    5.59    4.16
  -6  -1  11   -1.84    5.04
   5  -1 -11   59.07   10.77
  -5   1  11   84.20    8.65
  -5  -1  11   86.09    8.69
   5   1 -11   64.06   11.07
  -5   1  11   87.79    8.54
  -5   1  11   90.57   13.30
  -5  -1  11   61.51   11.26
   5   1 -11   85.36    7.54
  -5  -1  11   82.22    7.64
   4   1 -11   18.78    3.81
  -4   1  11   24.55    5.12
  -4  -1  11   26.43    5.01
  -4  -1  11   20.43    4.10
  -4   1  11   23.28    4.89
  -4   1  11   24.80    7.23
  -4  -1  11   22.60    7.14
   4  -1 -11   20.31    7.00
   4   1 -11   29.31    7.71
   3   1 -11    2.67    2.66
  -3   1  11    0.75    3.33
  -3  -1  11   -2.95    3.97
  -3   1  11   -0.69    2.73
  -3   1  11    1.93    3.93
  -3  -1  11    1.90    4.24
   3  -1 -11   -3.70    5.06
   3   1 -11    5.51    4.43
  -3   1  11    2.03    2.27
   2   1 -11    0.53    2.37
  -2   1  11    5.25    3.62
  -2  -1  11    1.48    3.37
  -2   1  11    2.06    3.31
  -2   1  11    1.94    4.32
  -2  -1  11    9.54    4.60
   1   1 -11    3.16    2.73
  -1   1  11    0.75    3.30
  -1  -1  11   10.37    4.00
  -1   1  11   12.32    4.75
  -1   1  11    9.69    5.86
  -1  -1  11    7.64    4.93
   0   1  11   78.29    8.32
   0  -1  11   64.41    7.80
   0   1  11   72.41    9.07
   0   1  11   67.83   11.98
   0  -1  11   83.88   12.78
   0   1 -11   73.99    6.91
  -1   1 -11    8.75    3.17
   1   1  11    6.02    3.65
   1  -1  11    6.66    3.71
   1   1  11   21.21    8.65
   1   1  11   11.61    6.37
   1  -1  11   11.41    5.49
   2   1  11  160.33   12.48
   2  -1  11  145.54   11.82
   2   1  11  165.34   15.44
   2   1  11  146.83   17.34
   2  -1  11  108.12   15.70
  -2   1 -11  140.00   10.16
   3  -1  11   69.20    7.77
   3   1  11   61.57    7.46
   3   1  11   62.60   13.89
  -3   1 -11   49.81    5.78
  -4   1 -11    3.91    2.49
   4   1  11    4.48    3.27
   4  -1  11    0.73    2.83
   4   1  11    0.67   12.48
   5   1  11   63.92   11.41
  -5   1 -11   46.25    5.33
   6   1  11  144.25   12.69
  -6   1 -11  138.48    9.80
  -7   1 -11   30.68    4.31
   7   1  11   31.87    6.23
  -7   1 -11   34.44    5.61
  -7  -1 -11   41.36    5.97
  -8   1 -11  103.57    8.97
  -8  -1 -11   92.43    8.70
  -8   1 -11   79.98    6.98
  -9   1 -11    1.18    3.04
  -9  -1 -11    2.99    3.45
  -9   1 -11    0.40    2.10
 -10   1 -11    1.11    2.91
 -10  -1 -11    6.77    3.30
 -10   1 -11    4.76    1.98
 -11   1 -11  105.74    7.31
 -11   1 -11  107.59    8.70
 -11  -1 -11  115.23    8.95
 -12   1 -11   36.19    4.79
 -12  -1 -11   35.00    4.82
 -13   1 -11  129.17    8.84
 -13  -1 -11  120.61    8.78
 -14   1 -11  119.95    8.23
 -14  -1 -11  124.80    8.44
 -15   1 -11   39.43    4.02
 -15  -1 -11   40.31    4.03
 -16   1 -11   66.50    4.81
 -16  -1 -11   67.41    4.87
 -17   1 -11   16.38    1.96
 -17  -1 -11   13.77    1.92
  20   2 -11   91.09    5.66
 -19   2  11  235.97   12.57
  19   2 -11  272.63   13.16
  18   2 -11   13.74    2.58
 -18   2  11    8.72    2.14
 -17   2  11  181.06   10.97
  17   2 -11  201.30   11.33
  16   2 -11   40.17    4.45
 -16   2  11   32.31    4.09
  15   2 -11    2.53    2.31
 -15   2  11    3.42    2.31
 -14   2  11  290.92   16.66
  14   2 -11  322.06   16.92
 -14  -2  11  279.01   15.27
 -13   2  11   67.82    6.56
  13   2 -11   67.97    6.46
 -13  -2  11   60.76    5.51
 -12  -2  11  149.47    9.54
 -12   2  11  121.51    9.13
 -12   2  11  154.85   10.68
  12   2 -11  151.42   10.41
 -11  -2  11  227.45   13.16
 -11   2  11  208.04   12.95
 -11  -2  11  192.38   12.98
 -11   2  11  236.56   14.48
  11   2 -11  235.45   14.09
 -10   2  11   24.68    4.01
 -10  -2  11   33.92    4.44
  10   2 -11   39.13    5.14
 -10  -2  11   33.11    4.67
 -10   2  11   35.90    5.35
  -9  -2  11  345.47   19.73
  -9   2  11  372.19   20.06
  -9  -2  11  352.56   19.97
  -9   2  11  376.72   21.15
   9   2 -11  398.09   20.90
  -8  -2  11   81.97    7.25
  -8   2  11   67.35    6.51
  -8  -2  11   70.30    6.77
  -8   2  11   86.20    8.09
   8   2 -11   73.67    7.34
  -7  -2  11   94.47    7.91
  -7   2  11   70.76    7.13
  -7  -2  11   81.55    7.53
  -7   2  11   94.50    8.63
   7   2 -11  103.69    8.44
  -6   2  11  333.67   20.29
  -6  -2  11  380.72   20.78
  -6   2  11  406.77   22.00
   6   2 -11  381.09   21.17
  -6  -2  11  387.72   20.81
  -5   2  11  223.23   14.74
  -5   2  11  197.77   12.33
   5   2 -11  237.29   14.33
  -4   2  11  102.28    9.80
  -4   2  11  114.33    8.24
   4   2 -11  117.64    9.29
  -3   2  11  421.07   21.60
   3   2 -11  427.31   22.76
  -3  -2  11  381.64   22.05
   2   2 -11   45.64    5.92
  -2  -2  11   56.58    6.16
  -2   2  11   44.54    5.55
  -2   2  11   46.05    5.28
  -2  -2  11   50.77    6.15
   1   2 -11   28.53    4.77
  -1   2  11   14.69    3.70
  -1  -2  11   24.32    4.14
  -1   2  11   28.26    4.25
   0   2 -11    4.44    3.17
   0   2  11    5.63    3.01
   0  -2  11   10.70    3.30
   0   2  11   12.64    3.63
   1   2  11  192.78   13.22
   1  -2  11  189.51   13.20
  -1   2 -11  206.60   13.44
   2   2  11  212.20   14.75
   2  -2  11  218.52   14.89
   3   2  11   64.78    6.56
   3  -2  11   68.36    6.72
  -3   2 -11   63.50    6.68
  -4  -2 -11  235.30   14.52
   4   2  11  239.44   14.71
   4  -2  11  256.91   14.87
  -4   2 -11  274.92   15.25
   5   2  11  391.30   21.44
   5  -2  11  391.90   21.34
  -5   2 -11  387.93   21.40
  -5   2 -11  383.92   20.78
  -5  -2 -11  416.13   21.41
  -6   2 -11    1.46    2.51
   6   2  11    2.52    2.35
  -6   2 -11    5.99    2.56
  -6  -2 -11    6.49    2.84
   7   2  11  365.46   20.36
  -7   2 -11  415.39   20.82
  -7  -2 -11  366.74   20.02
   8   2  11   45.82    5.06
  -8   2 -11   48.97    5.30
  -8  -2 -11   46.03    5.01
   9   2  11   60.03    5.52
  -9   2 -11   67.69    5.98
  -9  -2 -11   54.84    5.16
  10   2  11  411.84   21.97
 -10  -2 -11  417.01   21.46
 -11  -2 -11   13.17    2.41
 -11   2 -11   18.81    2.99
 -12   2 -11  212.22   11.70
 -13  -2 -11   15.76    2.19
 -13   2 -11   21.51    2.61
  14   2  11    2.83    1.68
  15   2  11  196.62   10.16
 -15  -3  11  348.07   16.20
 -14  -3  11   -0.97    1.22
 -13  -3  11  549.47   25.56
 -12  -3  11  221.59   11.97
 -11  -3  11   87.87    6.31
 -10   3  11  609.16   31.09
  10   3 -11  722.71   31.97
  -9   3  11  183.14   13.21
   9   3 -11  224.19   12.68
  -8   3  11  395.03   22.84
   8   3 -11  473.11   22.72
  -7   3  11 1011.76   46.64
   7   3 -11 1035.60   46.42
  -7  -3  11  945.55   45.55
   6   3 -11   38.03    4.75
  -6  -3  11   23.64    3.97
  -6   3  11   31.68   10.61
  -5   3  11  550.05   30.51
   5   3 -11  605.97   29.00
  -5  -3  11  575.87   28.33
  -4   3  11  261.26   20.50
   4   3 -11  318.90   16.91
  -4  -3  11  287.78   16.14
  -3   3  11  206.82   18.32
   3   3 -11  185.54   12.12
  -3  -3  11  195.62   11.84
  -2   3  11  497.11   29.85
  -2   3  11  519.46   25.26
   2   3 -11  513.15   26.03
  -1   3  11   61.86   15.81
   1   3 -11   58.20    5.79
  -1   3  11   54.54    5.32
   0   3  11  292.34   23.05
   0   3 -11  328.49   18.11
   0   3  11  348.73   17.86
   1   3  11  718.30   37.25
  -1   3 -11  733.51   34.51
   1   3  11  697.02   33.95
  -2   3 -11    2.94    2.39
   2   3  11    2.36    2.15
  -3   3 -11  567.83   28.33
   3   3  11  588.85   28.31
  -4   3 -11  258.36   14.61
  -5   3 -11  300.82   16.30
  -6   3 -11  827.74   38.51
  -7   3 -11    5.64    2.36
   7   3  11    9.05    2.54
  -8   3 -11  330.87   17.20
   8   3  11  348.53   17.35
  -9   3 -11  371.54   19.82
   9   3  11  465.26   20.40
  10   3  11    2.31    1.48
 -10   3 -11    1.83    1.67
 -11   3 -11  267.72   13.26
  11   3  11  275.36   13.31
   4   4 -11  246.41   12.17
   3   4 -11  334.96   15.94
   2   4 -11   24.10    2.55
   1   4 -11  430.98   20.93
  -1   4  11  474.56   20.74
   0   4 -11  221.49   11.17
  -1   4 -11  117.05    6.66
 -20   0  12  343.08   16.30
 -19   0  12  319.58   15.88
 -18   0  12  219.86   12.08
 -17   0  12  349.71   18.14
 -16   0  12   33.90    4.22
 -15   0  12  173.75   11.11
 -15   0  12  143.13   10.17
 -14   0  12  293.75   16.58
 -14   0  12  258.59   15.69
 -13   0  12   51.01    6.09
 -13   0  12   46.80    5.51
 -12   0  12  477.36   25.83
 -12   0  12  485.40   25.16
 -11   0  12   28.44    4.99
 -11   0  12   23.09    4.00
 -10   0  12  187.85   13.26
 -10   0  12  194.74   12.86
  -9   0  12  233.61   15.59
  -9   0  12  242.68   15.05
  -8   0  12   41.89    5.72
  -7   0  12 1117.40   52.83
  -6   0  12  488.47   25.97
  -6   0  12  418.09   23.98
  -5   0  12  325.87   20.09
  -5   0  12  317.53   18.80
  -4   0  12 2724.64  118.53
  -4   0  12 2557.75  116.57
  -3   0  12   73.56    8.17
  -3   0  12   75.82    7.79
  -2   0  12 1914.09   85.76
  -2   0  12 1809.03   83.85
  -1   0  12   23.79    4.97
  -1   0  12   17.60    6.04
   0   0  12    0.74    3.31
   0   0  12    3.37    5.95
   1   0  12  536.62   29.01
   1   0  12  507.99   27.33
   2   0  12  390.96   23.13
   2   0  12  395.92   21.92
   3   0  12  509.24   27.36
   3   0  12  464.00   25.22
   4   0  12  632.06   32.33
   4   0  12  576.20   30.03
   5   0  12  264.25   17.10
   5   0  12  252.15   15.22
   6   0  12  796.35   40.16
  -7   0 -12  803.70   39.82
   7   0  12  804.78   40.30
  -8   0 -12    7.90    3.72
  -9   0 -12  623.66   31.47
 -10   0 -12  636.30   31.66
 -11   0 -12  188.74   11.96
 -12   0 -12  623.11   30.13
 -13   0 -12   43.17    4.36
 -14   0 -12  539.40   25.51
 -15   0 -12  619.69   28.32
 -19   1  12  111.92    6.92
 -18   1  12  243.26   12.05
  18   1 -12  197.16   11.05
  17   1 -12    0.26    1.39
 -17   1  12    0.68    1.99
 -16   1  12  419.54   21.39
  16   1 -12  417.74   20.66
 -15   1  12  190.40   12.31
  15   1 -12  215.28   11.94
 -14   1  12   56.12    5.67
 -14  -1  12   60.34    5.88
 -14  -1  12   56.72    4.85
 -14   1  12   67.47    6.23
  14   1 -12   64.48    5.50
 -13   1  12  626.08   31.31
 -13  -1  12  640.16   31.36
 -13  -1  12  567.12   29.44
 -13   1  12  677.84   31.62
  13   1 -12  671.88   30.68
 -12   1  12    0.52    2.39
 -12  -1  12    3.12    2.64
  12   1 -12   -1.24    2.64
 -12  -1  12   -0.35    1.76
 -12   1  12    3.65    2.69
 -11   1  12  640.21   32.70
 -11  -1  12  644.27   32.68
 -11  -1  12  592.17   30.80
 -11   1  12  690.94   32.95
  11   1 -12  717.20   32.07
 -10   1  12  193.21   12.88
 -10  -1  12  180.62   12.65
 -10  -1  12  178.91   11.23
 -10   1  12  192.99   12.84
  10   1 -12  193.57   11.95
  -9   1  12   65.72    6.95
  -9  -1  12   78.11    7.44
  -9   1  12   65.22    6.94
   9   1 -12   62.01    6.11
  -8   1  12  844.53   43.31
  -8  -1  12  869.18   43.44
  -8   1  12  926.23   43.71
   8   1 -12  924.50   42.31
   7   1 -12    3.21    2.51
  -7   1  12   -0.60    2.92
  -6   1  12  137.49   10.68
   6   1 -12  137.52    9.65
  -5   1  12  234.03   15.94
  -5  -1  12  253.58   16.30
  -5   1  12  256.41   16.08
   5   1 -12  256.07   14.78
  -4   1  12   92.79    8.56
  -4  -1  12   91.60    8.62
  -4   1  12   75.11    7.99
   4   1 -12   82.66    7.10
  -3   1  12 1093.94   50.87
  -3  -1  12 1004.86   50.39
  -3   1  12 1043.11   50.19
   3   1 -12 1038.68   48.46
  -2   1  12  443.00   24.52
  -2  -1  12  407.12   24.13
  -2   1  12  424.50   24.38
   2   1 -12  452.40   22.68
   1   1 -12   14.79    3.12
  -1   1  12   13.56    4.09
  -1  -1  12    8.68    3.49
  -1   1  12   10.42    7.80
  -1   1  12   17.31    3.36
   0   1  12 1056.05   51.18
   0  -1  12 1093.59   51.10
   0   1  12 1085.77   51.51
   0   1 -12 1015.07   48.57
   1   1  12  315.17   19.29
   1  -1  12  341.10   19.47
   1   1  12  347.81   22.32
  -1   1 -12  290.27   16.93
   2   1  12  564.58   29.57
   2  -1  12  527.04   29.15
   2   1  12  561.16   31.51
  -2   1 -12  549.71   27.07
   3   1  12  330.19   20.23
   3  -1  12  367.56   20.55
   3   1  12  364.16   23.28
  -3   1 -12  327.79   17.99
  -4   1 -12   27.51    3.71
   4   1  12   26.87    4.80
   4  -1  12   27.52    5.00
   4   1  12   17.65   10.69
   5   1  12  701.58   34.52
   5  -1  12  747.59   34.72
   5   1  12  697.70   34.94
  -5   1 -12  611.34   31.57
  -6   1 -12  301.78   16.89
  -6  -1 -12  265.60   16.48
   6   1  12  277.09   17.06
   6  -1  12  254.17   16.60
   6   1  12  285.37   17.85
   7   1  12  427.53   23.32
   7  -1  12  419.93   23.10
  -7   1 -12  434.71   23.02
  -7  -1 -12  428.64   23.06
   8   1  12  650.73   32.58
   8  -1  12  644.47   32.36
  -8   1 -12  639.94   31.90
  -8  -1 -12  648.16   32.03
   9   1  12   12.75    3.35
   9  -1  12   14.85    3.31
  -9   1 -12   10.12    3.16
  -9  -1 -12    5.82    2.89
  10   1  12  243.66   13.92
  10  -1  12  214.81   13.42
 -10   1 -12  220.99   13.09
 -10  -1 -12  218.99   13.10
  11   1  12  453.36   24.33
  11  -1  12  483.28   24.48
 -11   1 -12  505.08   24.12
 -11  -1 -12  507.04   24.19
 -12   1 -12   15.51    2.76
 -12  -1 -12   18.71    2.83
 -13   1 -12  357.98   17.88
 -13  -1 -12  380.74   18.09
 -14   1 -12  159.11    8.93
 -14  -1 -12  181.97    9.15
 -17   2  12  257.16   13.25
  17   2 -12  292.35   13.60
 -16   2  12   47.16    4.00
  16   2 -12   50.37    4.18
 -15   2  12   78.40    5.75
  15   2 -12   79.73    5.82
 -14   2  12  147.90    9.60
  14   2 -12  171.87    9.84
  13   2 -12   19.87    3.19
 -13   2  12   21.73    3.52
 -12   2  12  211.10   12.42
  12   2 -12  200.47   12.09
 -11   2  12  190.08   12.01
  11   2 -12  196.01   11.85
  10   2 -12    1.25    2.36
 -10   2  12    0.47    2.40
  -9   2  12  877.75   42.73
   9   2 -12  925.08   42.44
  -8   2  12  125.33    8.85
  -8   2  12  142.15   10.30
   8   2 -12  151.23    9.95
  -7   2  12  298.76   17.38
  -7   2  12  347.83   19.13
   7   2 -12  360.60   18.50
  -6   2  12  472.08   24.67
   6   2 -12  528.63   25.63
  -5   2  12   10.90    2.71
   5   2 -12   20.19    3.76
  -4   2  12  372.65   20.82
   4   2 -12  448.73   21.85
   3   2 -12  175.95   11.51
   2   2 -12   37.19    4.67
  -2   2  12   24.74    3.42
   1   2 -12  263.51   15.00
  -1   2  12  252.58   14.19
   0   2  12   48.97    5.12
   0   2 -12   52.43    5.40
   0   2  12   47.22    4.88
   1   2  12  208.67   13.13
  -1   2 -12  227.96   13.44
   1   2  12  240.29   13.36
  -2  -2 -12  190.11   11.94
   2   2  12  202.87   12.26
  -2   2 -12  187.92   12.00
   2   2  12  226.39   12.56
  -3   2 -12   37.09    4.52
   3   2  12   38.85    4.47
   3   2  12   48.53    5.13
  -3  -2 -12   43.06    4.53
   4   2  12  119.36    8.82
   4   2  12  147.92   15.90
  -4   2 -12  138.02    9.24
  -4  -2 -12  131.57    8.89
  -5   2 -12  184.13   11.40
  -5  -2 -12  166.47   10.93
  -6   2 -12  201.13   11.40
  -6  -2 -12  163.22   10.64
  -7   2 -12  135.74    8.64
  -7  -2 -12  118.62    8.02
  -8   2 -12   47.82    4.24
   8   2  12   42.00    4.68
  -9   2 -12  271.71   13.80
 -10   2 -12  207.26   10.71
  11   2  12  255.44   13.31
  12   2  12  401.47   18.97
  12   3 -12    7.08    1.58
  11   3 -12  109.51    6.76
  10   3 -12   12.17    2.33
   9   3 -12   37.60    3.75
  -8   3  12  313.56   19.63
   8   3 -12  432.14   19.14
  -7   3  12  151.39   13.60
   7   3 -12  215.18   11.28
  -6   3  12   50.52   10.08
   6   3 -12   44.07    4.38
  -5   3  12  203.60   14.49
   5   3 -12  186.86   10.99
  -4   3  12  176.45   14.50
   4   3 -12  169.85   10.14
   3   3 -12   18.40    3.02
  -3   3  12   26.14   10.40
   2   3 -12    7.37    2.37
  -2   3  12    1.24   10.92
   1   3 -12    9.47    2.39
  -1   3  12    4.02    9.96
   0   3 -12  253.68   13.61
  -1   3 -12   24.57    3.22
   1   3  12   23.06    2.85
  -2   3 -12  169.11    9.61
   2   3  12  157.64    9.14
  -3   3 -12    3.83    1.87
   3   3  12    2.44    1.61
  -4   3 -12   13.86    2.37
   4   3  12    5.18    1.90
  -5   3 -12   74.83    5.30
   5   3  12   78.76    5.31
  -6   3 -12    7.41    1.74
  -7   3 -12    1.73    1.12
 -16   0  13    0.87    1.16
 -15   0  13   -1.84    1.63
 -14   0  13   -1.49    1.83
 -14   0  13    0.90    1.64
 -13   0  13    0.41    1.98
 -13   0  13    1.00    1.75
 -12   0  13   -0.45    2.08
 -12   0  13    3.62    2.03
 -11   0  13   -0.48    1.85
 -11   0  13   -0.77    2.41
 -10   0  13   -0.50    2.25
 -10   0  13   -2.02    2.24
  -9   0  13   -1.06    2.21
  -9   0  13   -2.10    2.27
  -8   0  13    1.09    2.39
  -8   0  13   -0.43    2.48
  -7   0  13    2.24    2.44
  -7   0  13    0.44    2.47
  -6   0  13    0.44    3.41
  -5   0  13   -0.89    3.80
  -4   0  13    3.03    3.13
  -4   0  13   -0.45    4.99
  -3   0  13    0.61    2.49
  -3   0  13    5.80    5.71
  -2   0  13   -1.84    2.44
  -2   0  13    8.39    6.04
  -1   0  13   -4.91    2.86
  -1   0  13   -4.34    5.37
   0   0  13    4.26    2.99
   0   0  13   -1.27    5.31
   1   0  13    0.60    2.62
   1   0  13   -1.64    4.84
   2   0  13    1.17    2.68
   2   0  13    5.90    3.64
   3   0  13    1.72    2.39
   3   0  13    0.37    2.54
   4   0  13   -1.66    2.72
   5   0  13    4.78    2.57
  -5   0 -13    3.87    2.79
   6   0  13   -2.52    2.56
  -6   0 -13    3.66    2.70
  -7   0 -13    0.85    2.27
   8   0  13   -0.44    1.91
  -8   0 -13   -0.39    2.16
   9   0  13   -0.40    1.84
  -9   0 -13    0.35    2.03
 -10   0 -13    1.21    1.83
 -11   0 -13    1.02    1.43
 -12   0 -13    1.00    1.10
 -16   1  13   15.51    2.36
 -15   1  13   35.59    3.63
 -14   1  13  237.67   12.95
 -13   1  13   18.85    3.22
 -12   1  13  180.54   10.56
 -12  -1  13  161.45   10.30
 -12   1  13  166.83   10.37
  12   1 -13  157.90    9.19
 -11   1  13  215.49   12.75
 -11  -1  13  203.45   12.58
 -11   1  13  229.59   12.95
  11   1 -13  214.22   11.60
 -10   1  13   50.98    5.41
 -10  -1  13   61.17    5.68
 -10   1  13   71.86    6.05
  10   1 -13   56.72    4.77
  -9   1  13   20.78    3.45
  -9  -1  13   21.50    3.61
   9   1 -13   17.42    2.72
  -9   1  13   11.59    3.31
  -8   1  13  309.08   17.85
  -8  -1  13  340.77   18.15
  -8   1  13  355.00   18.33
   8   1 -13  304.60   16.41
  -7   1  13    0.49    2.27
  -7  -1  13    2.90    2.45
   7   1 -13    3.36    1.70
  -7   1  13    8.44    3.55
  -6   1  13  378.61   20.86
  -6  -1  13  377.37   20.81
  -6   1  13  415.87   21.30
   6   1 -13  379.77   19.23
   5   1 -13    7.98    2.24
  -5   1  13    7.73    5.35
  -4   1  13  118.23   10.87
  -3   1  13  108.65   11.79
  -2   1  13    4.27    2.79
  -2  -1  13    2.10    2.40
  -2   1  13   -3.40    9.91
  -1   1  13  150.90   11.00
  -1  -1  13  161.68   11.07
  -1   1  13  165.79   15.23
   0   1  13   88.34    7.64
   0  -1  13   81.00    7.46
   0   1  13   74.71   13.27
   1   1  13   11.98    3.15
   1  -1  13    9.19    2.94
   2   1  13  119.01    9.07
   2  -1  13  117.07    8.92
   2   1  13  103.53   12.80
  -3   1 -13   23.95    3.95
  -3  -1 -13   27.45    4.19
   3   1  13   25.13    4.12
   3  -1  13   30.34    4.26
   3   1  13   35.04    8.55
   3   1  13   32.27    3.72
   4   1  13    0.47    2.07
   4  -1  13   -0.46    2.27
   4   1  13   -1.23    6.19
   4   1  13   -0.72    2.09
  -4   1 -13   -0.85    2.25
  -4  -1 -13    4.29    2.35
   5   1  13   32.84    4.25
   5  -1  13   21.47    3.67
  -5   1 -13   24.30    3.78
  -5  -1 -13   28.36    4.13
   6   1  13    1.69    2.11
   6  -1  13    1.23    1.79
  -6   1 -13   -1.11    2.03
  -6  -1 -13    1.13    2.15
  -7   1 -13  120.32    8.25
  -7  -1 -13  138.11    8.70
  -8   1 -13   16.39    3.02
  -8  -1 -13   21.11    3.02
  -9   1 -13   22.47    2.95
  -9  -1 -13   25.05    2.99
 -10   1 -13   22.52    2.56
 -10  -1 -13   20.65    2.63
 -11  -1 -13   53.23    3.93
  11   1  13   71.98    4.63
 -13   2  13  130.43    8.08
 -12   2  13  199.71   11.41
  12   2 -13  204.00   10.66
 -11   2  13  171.36   10.33
  11   2 -13  164.57    9.35
 -10   2  13  180.71   11.65
  10   2 -13  196.94   10.56
  -9   2  13   45.39    6.46
   9   2 -13   41.82    3.99
   8   2 -13   66.38    5.25
   7   2 -13  311.32   16.03
   6   2 -13   16.17    2.97
   5   2 -13  117.42    7.72
   4   2 -13  145.09    9.01
   3   2 -13   17.19    2.88
   2   2 -13  250.67   13.49
   1   2 -13  145.31    8.87
   0   2  13   87.16   13.91
   0   2 -13   96.27    6.64
   1   2  13  419.99   24.30
  -1   2 -13  430.63   20.80
  -2   2 -13   13.98    2.46
   2   2  13    8.48    8.72
   2   2  13   10.70    1.96
  -3   2 -13  413.45   20.61
   3   2  13  458.39   20.75
  -4   2 -13   83.50    5.79
   4   2  13  102.86    6.11
  -5   2 -13   79.02    5.45
   5   2  13  109.22    6.20
   6   2  13  147.24    8.19
   7   2  13  157.68    8.51
   8   2  13   53.64    3.72
 -11   0  14  182.76    9.87
 -10   0  14  327.72   16.16
  -9   0  14    8.86    3.57
  -8   0  14  462.59   22.21
  -7   0  14  459.03   22.44
  -7   0  14  427.24   21.39
  -6   0  14   60.20    5.63
  -6   0  14   70.76    6.60
  -5   0  14  458.73   22.31
  -5   0  14  413.69   21.18
  -4   0  14  193.12   11.48
  -3   0  14  235.99   13.19
  -2   0  14  505.71   24.17
  -1   0  14   75.84    6.35
   0   0  14  579.37   28.49
   1   0  14  240.53   13.88
  -2   0 -14  242.45   13.59
   2   0  14  234.54   13.67
  -3   0 -14 1122.12   50.86
  -4   0 -14   31.64    3.79
  -5   0 -14  409.59   20.25
  -6   0 -14   86.08    6.00
  -7   0 -14   32.97    3.16
  -8   0 -14  112.88    6.52
 -12   1  14  255.36   13.05
 -11   1  14  259.62   13.57
 -10   1  14   24.16    5.09
  -9   1  14  669.91   31.30
  -8   1  14  131.69    9.85
  -7   1  14  401.04   20.86
  -6   1  14  218.89   14.17
  -5   1  14   21.76    8.44
  -4   1  14  205.44   14.65
  -3   1  14  241.85   15.72
  -2   1  14  162.21   12.56
  -1   1  14  679.62   32.58
   0   1 -14   49.62    4.60
   0  -1 -14   46.86    4.69
   0   1  14   54.53    7.39
  -1   1 -14  236.62   12.69
  -1  -1 -14  225.49   12.68
   1   1  14  239.21   13.44
  -2   1 -14  374.64   19.00
  -2  -1 -14  398.40   19.21
  -3   1 -14    2.30    1.65
  -3  -1 -14    1.06    1.77
  -4   1 -14  147.06    9.02
  -4  -1 -14  185.25    9.44
  -5   1 -14  141.72    8.24
  -5  -1 -14  162.20    8.48
  -2   2  14   95.71    7.87
   4   0 -15   -1.24    1.20
   3   0 -15    1.24    1.31
   2   0 -15    2.23    1.26
   0   0   0    0.00    0.00


TITL tf-14 in P2(1)/c
REM P2(1)/c (#14 in standard setting)
CELL 1.54184  24.062946   4.755083  11.879529  90.0000  95.6310  90.0000
ZERR    4.00   0.000330   0.000080   0.000159   0.0000   0.0012   0.0000
LATT  1
SYMM -x, y+1/2,-z+1/2
SFAC C H N O Se
UNIT 64.00 52.00 4.00 12.00 4.00
TREF
HKLF 4
END
_computing_structure_solution     'SHELXT 2018/2 (Sheldrick, 2018)'
;
_shelx_hkl_checksum                889
_olex2_submission_special_instructions  'No special instructions were received'
_oxdiff_exptl_absorpt_empirical_details
;
Empirical correction (ABSPACK) includes:
- Absorption correction using spherical harmonics
- Frame scaling
;
_oxdiff_exptl_absorpt_empirical_full_max  1.373
_oxdiff_exptl_absorpt_empirical_full_min  0.653
