data_jmwel3_cu
_audit_creation_date               2021-03-18
_audit_creation_method
;
Olex2 1.3
(compiled 2020.11.12 svn.r5f609507 for OlexSys, GUI svn.r6272)
;
_shelx_SHELXL_version_number       '2018/3'
_audit_contact_author_address      ?
_audit_contact_author_email        ?
_audit_contact_author_name         ''
_audit_contact_author_phone        ?
_publ_contact_author_id_orcid      ?
_publ_section_references
;
Dolomanov, O.V., Bourhis, L.J., Gildea, R.J, Howard, J.A.K. & Puschmann, H.
 (2009), J. Appl. Cryst. 42, 339-341.

Sheldrick, G.M. (2015). Acta Cryst. A71, 3-8.

Sheldrick, G.M. (2015). Acta Cryst. C71, 3-8.
;
_chemical_name_common              ?
_chemical_name_systematic          ?
_chemical_formula_moiety          
 'C7.5 H6.5 N0.5 O Se0.5, C12 H12.5 N1.5 O Se0.5, C4.5 H6 N'
_chemical_formula_sum              'C24 H25 N3 O2 Se'
_chemical_formula_weight           466.43
_chemical_melting_point            ?
loop_
  _atom_type_symbol
  _atom_type_description
  _atom_type_scat_dispersion_real
  _atom_type_scat_dispersion_imag
  _atom_type_scat_source
 'C' 'C' 0.0181 0.0091 'International Tables Vol C Tables 4.2.6.8 and 6.1.1.4'
 'H' 'H' 0.0000 0.0000 'International Tables Vol C Tables 4.2.6.8 and 6.1.1.4'
 'N' 'N' 0.0311 0.0180 'International Tables Vol C Tables 4.2.6.8 and 6.1.1.4'
 'O' 'O' 0.0492 0.0322 'International Tables Vol C Tables 4.2.6.8 and 6.1.1.4'
 'Se' 'Se' -0.7943 1.1372
 'International Tables Vol C Tables 4.2.6.8 and 6.1.1.4'

_shelx_space_group_comment
;
The symmetry employed for this shelxl refinement is uniquely defined
by the following loop, which should always be used as a source of
symmetry information in preference to the above space-group names.
They are only intended as comments.
;
_space_group_crystal_system        'triclinic'
_space_group_IT_number             2
_space_group_name_H-M_alt          'P -1'
_space_group_name_Hall             '-P 1'
loop_
  _space_group_symop_operation_xyz
 'x, y, z'
 '-x, -y, -z'

_cell_length_a                     9.7799(3)
_cell_length_b                     12.7158(5)
_cell_length_c                     18.9949(6)
_cell_angle_alpha                  75.672(3)
_cell_angle_beta                   77.214(3)
_cell_angle_gamma                  68.133(3)
_cell_volume                       2102.03(14)
_cell_formula_units_Z              4
_cell_measurement_reflns_used      ?
_cell_measurement_temperature      293(2)
_cell_measurement_theta_max        ?
_cell_measurement_theta_min        ?
_shelx_estimated_absorpt_T_max     ?
_shelx_estimated_absorpt_T_min     ?
_exptl_absorpt_coefficient_mu      2.626
_exptl_absorpt_correction_T_max    ?
_exptl_absorpt_correction_T_min    ?
_exptl_absorpt_correction_type     ?
_exptl_absorpt_process_details     ?
_exptl_absorpt_special_details     ?
_exptl_crystal_colour              ?
_exptl_crystal_density_diffrn      1.474
_exptl_crystal_density_meas        ?
_exptl_crystal_density_method      ?
_exptl_crystal_description         ?
_exptl_crystal_F_000               960
_exptl_crystal_size_max            0.451
_exptl_crystal_size_mid            0.347
_exptl_crystal_size_min            0.049
_exptl_transmission_factor_max     ?
_exptl_transmission_factor_min     ?
_diffrn_reflns_av_R_equivalents    0.0487
_diffrn_reflns_av_unetI/netI       0.0475
_diffrn_reflns_Laue_measured_fraction_full  0.995
_diffrn_reflns_Laue_measured_fraction_max  0.971
_diffrn_reflns_limit_h_max         12
_diffrn_reflns_limit_h_min         -11
_diffrn_reflns_limit_k_max         16
_diffrn_reflns_limit_k_min         -15
_diffrn_reflns_limit_l_max         22
_diffrn_reflns_limit_l_min         -23
_diffrn_reflns_number              27336
_diffrn_reflns_point_group_measured_fraction_full  0.995
_diffrn_reflns_point_group_measured_fraction_max  0.971
_diffrn_reflns_theta_full          67.684
_diffrn_reflns_theta_max           77.254
_diffrn_reflns_theta_min           2.426
_diffrn_ambient_temperature        293(2)
_diffrn_detector_area_resol_mean   ?
_diffrn_measured_fraction_theta_full  0.995
_diffrn_measured_fraction_theta_max  0.971
_diffrn_measurement_device_type    ?
_diffrn_measurement_method         ?
_diffrn_radiation_type             CuK\a
_diffrn_radiation_wavelength       1.54184
_diffrn_source                     ?
_reflns_Friedel_coverage           0.000
_reflns_Friedel_fraction_full      .
_reflns_Friedel_fraction_max       .
_reflns_number_gt                  7620
_reflns_number_total               8651
_reflns_special_details
;
 Reflections were merged by SHELXL according to the crystal
 class for the calculation of statistics and refinement.
 
 _reflns_Friedel_fraction is defined as the number of unique
 Friedel pairs measured divided by the number that would be
 possible theoretically, ignoring centric projections and
 systematic absences.
;
_reflns_threshold_expression       'I > 2\s(I)'
_computing_cell_refinement         ?
_computing_data_collection         ?
_computing_data_reduction          ?
_computing_molecular_graphics      'Olex2 1.3 (Dolomanov et al., 2009)'
_computing_publication_material    'Olex2 1.3 (Dolomanov et al., 2009)'
_computing_structure_refinement    'ShelXL 2018/3 (Sheldrick, 2015)'
_computing_structure_solution      'SHELXT 2018/2 (Sheldrick, 2018)'
_refine_diff_density_max           0.782
_refine_diff_density_min           -0.985
_refine_diff_density_rms           0.099
_refine_ls_extinction_coef         0.00047(12)
_refine_ls_extinction_expression  
 'Fc^*^=kFc[1+0.001xFc^2^\l^3^/sin(2\q)]^-1/4^'
_refine_ls_extinction_method       'SHELXL-2018/3 (Sheldrick 2018)'
_refine_ls_goodness_of_fit_ref     1.131
_refine_ls_hydrogen_treatment      constr
_refine_ls_matrix_type             full
_refine_ls_number_parameters       544
_refine_ls_number_reflns           8651
_refine_ls_number_restraints       0
_refine_ls_R_factor_all            0.0534
_refine_ls_R_factor_gt             0.0484
_refine_ls_restrained_S_all        1.131
_refine_ls_shift/su_max            0.001
_refine_ls_shift/su_mean           0.000
_refine_ls_structure_factor_coef   Fsqd
_refine_ls_weighting_details      
 'w=1/[\s^2^(Fo^2^)+(0.0710P)^2^+1.6893P] where P=(Fo^2^+2Fc^2^)/3'
_refine_ls_weighting_scheme        calc
_refine_ls_wR_factor_gt            0.1348
_refine_ls_wR_factor_ref           0.1388
_refine_special_details            ?
_olex2_refinement_description
;
1.a Secondary CH2 refined with riding coordinates:
 C14A(H14C,H14D), C24(H24A,H24B), C21A(H21C,H21D), C21(H21A,H21B), C14(H14A,
 H14B), C24A(H24C,H24D), C22(H22A,H22B), C23(H23A,H23B), C23A(H23C,H23D),
 C22A(H22C,H22D)
1.b Aromatic/amide H refined with riding coordinates:
 C9A(H9A), C12(H12), C12A(H12A), C10A(H10A), C13(H13), C6A(H6A), C10(H10),
 C19(H19), C13A(H13A), C17A(H17A), C19A(H19A), C17(H17), C16(H16), C9(H9),
 C6(H6), C3A(H3A), C3(H3), C20A(H20A), C20(H20), C4(H4), C5A(H5A), C4A(H4A),
 C16A(H16A), C5(H5)
1.c Idealised Me refined as rotating group:
 C15(H15A,H15B,H15C), C15A(H15D,H15E,H15F)
;
_atom_sites_solution_hydrogens     geom
_atom_sites_solution_primary       dual
_atom_sites_solution_secondary     ?
loop_
  _atom_site_label
  _atom_site_type_symbol
  _atom_site_fract_x
  _atom_site_fract_y
  _atom_site_fract_z
  _atom_site_U_iso_or_equiv
  _atom_site_adp_type
  _atom_site_occupancy
  _atom_site_site_symmetry_order
  _atom_site_calc_flag
  _atom_site_refinement_flags_posn
  _atom_site_refinement_flags_adp
  _atom_site_refinement_flags_occupancy
  _atom_site_disorder_assembly
  _atom_site_disorder_group
 Se1A Se 0.36015(3) 0.89204(3) 0.91935(2) 0.02505(11) Uani 1 1 d . . . . .
 Se1 Se 0.28773(3) 0.47339(3) 0.49481(2) 0.02535(11) Uani 1 1 d . . . . .
 O2A O 0.2515(2) 1.07571(18) 1.23788(11) 0.0283(4) Uani 1 1 d . . . . .
 O2 O 0.2161(2) 0.66872(19) 0.80278(11) 0.0299(5) Uani 1 1 d . . . . .
 O1 O 0.5495(2) 0.23226(19) 0.63704(11) 0.0303(5) Uani 1 1 d . . . . .
 O1A O 0.6500(3) 0.6723(2) 1.05522(12) 0.0352(5) Uani 1 1 d . . . . .
 N1A N 0.4562(3) 0.8269(2) 1.00836(12) 0.0251(5) Uani 1 1 d . . . . .
 N1 N 0.3814(3) 0.4015(2) 0.58475(13) 0.0255(5) Uani 1 1 d . . . . .
 N3 N 0.0318(3) 0.7249(2) 0.18452(13) 0.0260(5) Uani 1 1 d . . . . .
 N3A N 0.0711(3) 1.1241(2) 0.61541(13) 0.0278(5) Uani 1 1 d . . . . .
 N2 N 0.1944(3) 0.5455(2) 0.38180(13) 0.0277(5) Uani 1 1 d . . . . .
 N2A N 0.2627(3) 0.9588(2) 0.80651(13) 0.0281(5) Uani 1 1 d . . . . .
 C8 C 0.3456(3) 0.4655(3) 0.64164(15) 0.0249(6) Uani 1 1 d . . . . .
 C8A C 0.4089(3) 0.8907(3) 1.06619(15) 0.0250(6) Uani 1 1 d . . . . .
 C18 C 0.0808(3) 0.6689(2) 0.24952(15) 0.0244(6) Uani 1 1 d . . . . .
 C1A C 0.4888(3) 0.7527(3) 0.88821(15) 0.0256(6) Uani 1 1 d . . . . .
 C11A C 0.2982(3) 1.0207(3) 1.17896(15) 0.0259(6) Uani 1 1 d . . . . .
 C9A C 0.4383(3) 0.8396(3) 1.13818(15) 0.0262(6) Uani 1 1 d . . . . .
 H9A H 0.495481 0.762108 1.148712 0.031 Uiso 1 1 calc R U . . .
 C7 C 0.4768(3) 0.2919(3) 0.58677(16) 0.0265(6) Uani 1 1 d . . . . .
 C12 C 0.2600(3) 0.6505(3) 0.67941(16) 0.0285(6) Uani 1 1 d . . . . .
 H12 H 0.230507 0.730393 0.667152 0.034 Uiso 1 1 calc R U . . .
 C12A C 0.2676(3) 1.0720(3) 1.10771(15) 0.0259(6) Uani 1 1 d . . . . .
 H12A H 0.209785 1.149348 1.097354 0.031 Uiso 1 1 calc R U . . .
 C2A C 0.5819(3) 0.6813(3) 0.94001(16) 0.0284(6) Uani 1 1 d . . . . .
 C2 C 0.4839(3) 0.2512(3) 0.51920(15) 0.0271(6) Uani 1 1 d . . . . .
 C10A C 0.3828(3) 0.9038(3) 1.19330(15) 0.0252(6) Uani 1 1 d . . . . .
 H10A H 0.402059 0.868682 1.240891 0.030 Uiso 1 1 calc R U . . .
 C13 C 0.3017(3) 0.5856(3) 0.62457(15) 0.0272(6) Uani 1 1 d . . . . .
 H13 H 0.300409 0.622539 0.575772 0.033 Uiso 1 1 calc R U . . .
 C18A C 0.1311(3) 1.0733(2) 0.67780(15) 0.0244(6) Uani 1 1 d . . . . .
 C6A C 0.4955(3) 0.7173(3) 0.82352(16) 0.0280(6) Uani 1 1 d . . . . .
 H6A H 0.434220 0.764568 0.788851 0.034 Uiso 1 1 calc R U . . .
 C10 C 0.3088(3) 0.4768(3) 0.77024(15) 0.0270(6) Uani 1 1 d . . . . .
 H10 H 0.312732 0.439869 0.818934 0.032 Uiso 1 1 calc R U . . .
 C1 C 0.3968(3) 0.3282(3) 0.46663(15) 0.0261(6) Uani 1 1 d . . . . .
 C19 C 0.0129(3) 0.5958(3) 0.30124(16) 0.0268(6) Uani 1 1 d . . . . .
 H19 H -0.071850 0.587200 0.292490 0.032 Uiso 1 1 calc R U . . .
 C13A C 0.3236(3) 1.0074(3) 1.05251(15) 0.0263(6) Uani 1 1 d . . . . .
 H13A H 0.303945 1.042628 1.004995 0.032 Uiso 1 1 calc R U . . .
 C17A C 0.2587(3) 1.0888(3) 0.69031(16) 0.0287(6) Uani 1 1 d . . . . .
 H17A H 0.301722 1.137922 0.656011 0.034 Uiso 1 1 calc R U . . .
 C19A C 0.0706(3) 0.9998(3) 0.73384(15) 0.0265(6) Uani 1 1 d . . . . .
 H19A H -0.014852 0.987721 0.729173 0.032 Uiso 1 1 calc R U . . .
 C17 C 0.2068(3) 0.6790(3) 0.26793(16) 0.0278(6) Uani 1 1 d . . . . .
 H17 H 0.255235 0.726875 0.236220 0.033 Uiso 1 1 calc R U . . .
 C16 C 0.2577(3) 0.6175(3) 0.33331(16) 0.0289(6) Uani 1 1 d . . . . .
 H16 H 0.340364 0.626087 0.344579 0.035 Uiso 1 1 calc R U . . .
 C14A C 0.1656(3) 1.1959(3) 1.22470(16) 0.0294(6) Uani 1 1 d . . . . .
 H14C H 0.073416 1.207432 1.207910 0.035 Uiso 1 1 calc R U . . .
 H14D H 0.220991 1.238022 1.187419 0.035 Uiso 1 1 calc R U . . .
 C11 C 0.2618(3) 0.5966(3) 0.75312(16) 0.0270(6) Uani 1 1 d . . . . .
 C7A C 0.5685(3) 0.7240(3) 1.00774(16) 0.0282(6) Uani 1 1 d . . . . .
 C9 C 0.3500(3) 0.4122(3) 0.71522(15) 0.0266(6) Uani 1 1 d . . . . .
 H9 H 0.380997 0.332215 0.727481 0.032 Uiso 1 1 calc R U . . .
 C6 C 0.3969(3) 0.2947(3) 0.40181(16) 0.0296(6) Uani 1 1 d . . . . .
 H6 H 0.339380 0.345287 0.366471 0.036 Uiso 1 1 calc R U . . .
 C3A C 0.6824(4) 0.5744(3) 0.92712(17) 0.0331(7) Uani 1 1 d . . . . .
 H3A H 0.744959 0.527252 0.961297 0.040 Uiso 1 1 calc R U . . .
 C3 C 0.5716(3) 0.1405(3) 0.50774(16) 0.0304(6) Uani 1 1 d . . . . .
 H3 H 0.628927 0.089246 0.542975 0.036 Uiso 1 1 calc R U . . .
 C20A C 0.1393(3) 0.9463(3) 0.79533(16) 0.0291(6) Uani 1 1 d . . . . .
 H20A H 0.097502 0.898380 0.831507 0.035 Uiso 1 1 calc R U . . .
 C24 C -0.0856(4) 0.7066(3) 0.15796(17) 0.0320(7) Uani 1 1 d . . . . .
 H24A H -0.183512 0.753182 0.177996 0.038 Uiso 1 1 calc R U . . .
 H24B H -0.078313 0.626167 0.170449 0.038 Uiso 1 1 calc R U . . .
 C20 C 0.0725(3) 0.5375(3) 0.36456(16) 0.0274(6) Uani 1 1 d . . . . .
 H20 H 0.025975 0.489551 0.397633 0.033 Uiso 1 1 calc R U . . .
 C21A C 0.1307(3) 1.1995(3) 0.55504(15) 0.0300(6) Uani 1 1 d . . . . .
 H21C H 0.237234 1.164576 0.541812 0.036 Uiso 1 1 calc R U . . .
 H21D H 0.110069 1.273776 0.567772 0.036 Uiso 1 1 calc R U . . .
 C21 C 0.1059(3) 0.7957(3) 0.12845(16) 0.0287(6) Uani 1 1 d . . . . .
 H21A H 0.206387 0.749981 0.110907 0.034 Uiso 1 1 calc R U . . .
 H21B H 0.109548 0.858654 0.147399 0.034 Uiso 1 1 calc R U . . .
 C4 C 0.5729(4) 0.1075(3) 0.44379(18) 0.0350(7) Uani 1 1 d . . . . .
 H4 H 0.632401 0.034062 0.435333 0.042 Uiso 1 1 calc R U . . .
 C5A C 0.5952(4) 0.6103(3) 0.81164(17) 0.0326(7) Uani 1 1 d . . . . .
 H5A H 0.600032 0.585727 0.768675 0.039 Uiso 1 1 calc R U . . .
 C14 C 0.2094(4) 0.6173(3) 0.87969(16) 0.0311(6) Uani 1 1 d . . . . .
 H14A H 0.210431 0.671497 0.907498 0.037 Uiso 1 1 calc R U . . .
 H14B H 0.296824 0.549247 0.886857 0.037 Uiso 1 1 calc R U . . .
 C4A C 0.6884(4) 0.5390(3) 0.86277(17) 0.0357(7) Uani 1 1 d . . . . .
 H4A H 0.754638 0.467525 0.853764 0.043 Uiso 1 1 calc R U . . .
 C16A C 0.3192(3) 1.0305(3) 0.75367(16) 0.0301(6) Uani 1 1 d . . . . .
 H16A H 0.404111 1.041142 0.760471 0.036 Uiso 1 1 calc R U . . .
 C24A C -0.0553(4) 1.1043(3) 0.59857(17) 0.0342(7) Uani 1 1 d . . . . .
 H24C H -0.142451 1.127623 0.634786 0.041 Uiso 1 1 calc R U . . .
 H24D H -0.031711 1.023683 0.597012 0.041 Uiso 1 1 calc R U . . .
 C5 C 0.4852(4) 0.1840(3) 0.39178(17) 0.0349(7) Uani 1 1 d . . . . .
 H5 H 0.485862 0.160171 0.349164 0.042 Uiso 1 1 calc R U . . .
 C15 C 0.0717(4) 0.5843(3) 0.90827(17) 0.0350(7) Uani 1 1 d . . . . .
 H15A H 0.065566 0.536401 0.877999 0.052 Uiso 1 1 calc R U . . .
 H15B H -0.014684 0.652643 0.907207 0.052 Uiso 1 1 calc R U . . .
 H15C H 0.076608 0.542846 0.957817 0.052 Uiso 1 1 calc R U . . .
 C15A C 0.1333(4) 1.2375(3) 1.29617(18) 0.0380(7) Uani 1 1 d . . . . .
 H15D H 0.077664 1.318471 1.289142 0.057 Uiso 1 1 calc R U . . .
 H15E H 0.225251 1.223887 1.312762 0.057 Uiso 1 1 calc R U . . .
 H15F H 0.076229 1.196515 1.332214 0.057 Uiso 1 1 calc R U . . .
 C22 C 0.0084(4) 0.8407(3) 0.06771(17) 0.0365(7) Uani 1 1 d . . . . .
 H22A H -0.070662 0.912461 0.075218 0.044 Uiso 1 1 calc R U . . .
 H22B H 0.066740 0.852744 0.019888 0.044 Uiso 1 1 calc R U . . .
 C23 C -0.0540(4) 0.7451(3) 0.07470(18) 0.0403(8) Uani 1 1 d . . . . .
 H23A H 0.017914 0.682327 0.051735 0.048 Uiso 1 1 calc R U . . .
 H23B H -0.144555 0.773657 0.052637 0.048 Uiso 1 1 calc R U . . .
 C23A C -0.0806(7) 1.1782(5) 0.5242(2) 0.0739(17) Uani 1 1 d . . . . .
 H23C H -0.095741 1.135402 0.492557 0.089 Uiso 1 1 calc R U . . .
 H23D H -0.168306 1.246089 0.528802 0.089 Uiso 1 1 calc R U . . .
 C22A C 0.0481(5) 1.2110(5) 0.4939(2) 0.0699(16) Uani 1 1 d . . . . .
 H22C H 0.018427 1.290109 0.467778 0.084 Uiso 1 1 calc R U . . .
 H22D H 0.112271 1.161977 0.459399 0.084 Uiso 1 1 calc R U . . .

loop_
  _atom_site_aniso_label
  _atom_site_aniso_U_11
  _atom_site_aniso_U_22
  _atom_site_aniso_U_33
  _atom_site_aniso_U_23
  _atom_site_aniso_U_13
  _atom_site_aniso_U_12
 Se1A 0.02611(17) 0.02905(18) 0.01875(16) -0.00130(12) -0.00764(11) -0.00734(13)
 Se1 0.02599(17) 0.03125(19) 0.01799(16) 0.00021(12) -0.00660(11) -0.00973(13)
 O2A 0.0330(11) 0.0299(11) 0.0206(9) -0.0034(8) -0.0085(8) -0.0071(9)
 O2 0.0378(11) 0.0303(11) 0.0227(10) -0.0037(8) -0.0062(8) -0.0125(9)
 O1 0.0326(11) 0.0321(11) 0.0236(10) -0.0005(8) -0.0115(8) -0.0064(9)
 O1A 0.0366(11) 0.0362(12) 0.0259(11) -0.0032(9) -0.0134(9) -0.0013(10)
 N1A 0.0278(12) 0.0264(12) 0.0174(11) 0.0018(9) -0.0079(9) -0.0059(10)
 N1 0.0278(12) 0.0281(12) 0.0186(11) 0.0032(9) -0.0075(9) -0.0094(10)
 N3 0.0281(12) 0.0303(13) 0.0216(11) -0.0016(10) -0.0077(9) -0.0116(10)
 N3A 0.0286(12) 0.0337(13) 0.0209(11) 0.0027(10) -0.0082(9) -0.0126(11)
 N2 0.0281(12) 0.0340(14) 0.0203(11) -0.0009(10) -0.0065(9) -0.0104(11)
 N2A 0.0305(12) 0.0316(13) 0.0207(11) -0.0022(10) -0.0096(10) -0.0073(11)
 C8 0.0221(12) 0.0334(15) 0.0186(13) -0.0030(11) -0.0051(10) -0.0084(11)
 C8A 0.0268(13) 0.0319(15) 0.0170(12) -0.0020(11) -0.0051(10) -0.0111(12)
 C18 0.0258(13) 0.0251(14) 0.0208(13) -0.0033(11) -0.0064(10) -0.0057(11)
 C1A 0.0274(13) 0.0273(14) 0.0219(13) -0.0016(11) -0.0046(11) -0.0101(12)
 C11A 0.0262(13) 0.0321(15) 0.0213(13) -0.0041(11) -0.0035(11) -0.0124(12)
 C9A 0.0275(13) 0.0290(15) 0.0216(13) -0.0006(11) -0.0076(11) -0.0094(12)
 C7 0.0262(13) 0.0308(15) 0.0225(13) 0.0020(11) -0.0062(11) -0.0125(12)
 C12 0.0307(14) 0.0273(15) 0.0276(14) 0.0006(12) -0.0064(11) -0.0122(12)
 C12A 0.0269(13) 0.0268(14) 0.0228(13) 0.0006(11) -0.0088(11) -0.0079(11)
 C2A 0.0281(14) 0.0328(16) 0.0215(13) -0.0009(12) -0.0047(11) -0.0091(12)
 C2 0.0255(13) 0.0360(16) 0.0215(13) -0.0007(12) -0.0051(11) -0.0139(12)
 C10A 0.0281(14) 0.0305(15) 0.0181(12) 0.0009(11) -0.0092(10) -0.0110(12)
 C13 0.0307(14) 0.0307(15) 0.0198(13) 0.0025(11) -0.0068(11) -0.0124(12)
 C18A 0.0267(13) 0.0254(14) 0.0193(13) -0.0021(11) -0.0050(10) -0.0071(11)
 C6A 0.0292(14) 0.0352(16) 0.0211(13) -0.0022(12) -0.0068(11) -0.0123(12)
 C10 0.0248(13) 0.0344(16) 0.0199(13) 0.0008(11) -0.0071(10) -0.0092(12)
 C1 0.0238(13) 0.0317(15) 0.0221(13) 0.0005(11) -0.0044(10) -0.0114(12)
 C19 0.0246(13) 0.0317(15) 0.0247(14) -0.0022(12) -0.0052(11) -0.0109(12)
 C13A 0.0289(14) 0.0312(15) 0.0188(13) 0.0028(11) -0.0087(10) -0.0119(12)
 C17A 0.0322(15) 0.0323(16) 0.0238(14) 0.0005(12) -0.0078(11) -0.0149(13)
 C19A 0.0275(13) 0.0310(15) 0.0223(13) -0.0014(11) -0.0072(11) -0.0116(12)
 C17 0.0307(14) 0.0332(16) 0.0219(13) 0.0008(12) -0.0064(11) -0.0158(13)
 C16 0.0278(14) 0.0389(17) 0.0224(14) -0.0010(12) -0.0084(11) -0.0141(13)
 C14A 0.0289(14) 0.0342(16) 0.0268(14) -0.0064(12) -0.0041(11) -0.0119(13)
 C11 0.0264(13) 0.0313(15) 0.0246(14) -0.0027(12) -0.0060(11) -0.0114(12)
 C7A 0.0286(14) 0.0304(15) 0.0226(13) 0.0007(12) -0.0078(11) -0.0076(12)
 C9 0.0252(13) 0.0296(15) 0.0229(14) 0.0003(11) -0.0064(11) -0.0086(12)
 C6 0.0316(15) 0.0341(16) 0.0241(14) -0.0022(12) -0.0070(11) -0.0123(13)
 C3A 0.0376(16) 0.0292(16) 0.0272(15) -0.0015(12) -0.0103(12) -0.0044(13)
 C3 0.0313(15) 0.0317(16) 0.0256(14) 0.0006(12) -0.0078(12) -0.0095(13)
 C20A 0.0339(15) 0.0313(16) 0.0217(14) 0.0014(12) -0.0070(11) -0.0126(13)
 C24 0.0339(15) 0.0375(17) 0.0298(15) 0.0003(13) -0.0142(12) -0.0165(14)
 C20 0.0273(14) 0.0321(15) 0.0229(14) -0.0003(12) -0.0031(11) -0.0132(12)
 C21A 0.0330(15) 0.0312(16) 0.0209(13) 0.0017(12) -0.0042(11) -0.0091(13)
 C21 0.0314(15) 0.0296(15) 0.0235(14) 0.0019(12) -0.0072(11) -0.0109(12)
 C4 0.0342(16) 0.0336(17) 0.0338(16) -0.0041(13) -0.0073(13) -0.0074(13)
 C5A 0.0369(16) 0.0387(17) 0.0238(14) -0.0073(13) -0.0035(12) -0.0140(14)
 C14 0.0377(16) 0.0333(16) 0.0220(14) -0.0033(12) -0.0072(12) -0.0112(13)
 C4A 0.0396(17) 0.0317(17) 0.0293(16) -0.0069(13) -0.0061(13) -0.0031(14)
 C16A 0.0292(14) 0.0375(17) 0.0250(14) -0.0038(12) -0.0089(11) -0.0112(13)
 C24A 0.0358(16) 0.0421(18) 0.0276(15) 0.0014(13) -0.0124(12) -0.0169(14)
 C5 0.0394(17) 0.0450(19) 0.0231(14) -0.0081(13) -0.0040(12) -0.0167(15)
 C15 0.0356(16) 0.0385(18) 0.0260(15) 0.0009(13) -0.0054(12) -0.0107(14)
 C15A 0.0375(17) 0.0430(19) 0.0356(17) -0.0127(15) -0.0089(14) -0.0104(15)
 C22 0.0369(16) 0.0451(19) 0.0238(15) 0.0055(14) -0.0110(13) -0.0133(15)
 C23 0.0482(19) 0.044(2) 0.0309(17) 0.0002(14) -0.0171(14) -0.0162(16)
 C23A 0.113(4) 0.089(4) 0.048(2) 0.036(2) -0.055(3) -0.072(3)
 C22A 0.059(3) 0.120(4) 0.0304(19) 0.030(2) -0.0215(18) -0.049(3)

_geom_special_details
;
 All esds (except the esd in the dihedral angle between two l.s. planes)
 are estimated using the full covariance matrix.  The cell esds are taken
 into account individually in the estimation of esds in distances, angles
 and torsion angles; correlations between esds in cell parameters are only
 used when they are defined by crystal symmetry.  An approximate (isotropic)
 treatment of cell esds is used for estimating esds involving l.s. planes.
;
loop_
  _geom_bond_atom_site_label_1
  _geom_bond_atom_site_label_2
  _geom_bond_distance
  _geom_bond_site_symmetry_2
  _geom_bond_publ_flag
 Se1A N1A 1.964(2) . ?
 Se1A C1A 1.897(3) . ?
 Se1 N1 1.972(2) . ?
 Se1 N2 2.356(2) . ?
 Se1 C1 1.898(3) . ?
 O2A C11A 1.369(4) . ?
 O2A C14A 1.432(4) . ?
 O2 C11 1.366(4) . ?
 O2 C14 1.443(3) . ?
 O1 C7 1.238(3) . ?
 O1A C7A 1.231(4) . ?
 N1A C8A 1.420(4) . ?
 N1A C7A 1.360(4) . ?
 N1 C8 1.417(4) . ?
 N1 C7 1.355(4) . ?
 N3 C18 1.354(4) . ?
 N3 C24 1.462(4) . ?
 N3 C21 1.463(4) . ?
 N3A C18A 1.346(4) . ?
 N3A C21A 1.466(4) . ?
 N3A C24A 1.464(4) . ?
 N2 C16 1.350(4) . ?
 N2 C20 1.348(4) . ?
 N2A C20A 1.341(4) . ?
 N2A C16A 1.350(4) . ?
 C8 C13 1.397(4) . ?
 C8 C9 1.397(4) . ?
 C8A C9A 1.403(4) . ?
 C8A C13A 1.396(4) . ?
 C18 C19 1.410(4) . ?
 C18 C17 1.410(4) . ?
 C1A C2A 1.400(4) . ?
 C1A C6A 1.391(4) . ?
 C11A C12A 1.394(4) . ?
 C11A C10A 1.398(4) . ?
 C9A H9A 0.9300 . ?
 C9A C10A 1.378(4) . ?
 C7 C2 1.477(4) . ?
 C12 H12 0.9300 . ?
 C12 C13 1.385(4) . ?
 C12 C11 1.399(4) . ?
 C12A H12A 0.9300 . ?
 C12A C13A 1.383(4) . ?
 C2A C7A 1.479(4) . ?
 C2A C3A 1.392(4) . ?
 C2 C1 1.398(4) . ?
 C2 C3 1.390(5) . ?
 C10A H10A 0.9300 . ?
 C13 H13 0.9300 . ?
 C18A C17A 1.410(4) . ?
 C18A C19A 1.414(4) . ?
 C6A H6A 0.9300 . ?
 C6A C5A 1.385(5) . ?
 C10 H10 0.9300 . ?
 C10 C11 1.391(4) . ?
 C10 C9 1.386(4) . ?
 C1 C6 1.399(4) . ?
 C19 H19 0.9300 . ?
 C19 C20 1.372(4) . ?
 C13A H13A 0.9300 . ?
 C17A H17A 0.9300 . ?
 C17A C16A 1.376(4) . ?
 C19A H19A 0.9300 . ?
 C19A C20A 1.376(4) . ?
 C17 H17 0.9300 . ?
 C17 C16 1.380(4) . ?
 C16 H16 0.9300 . ?
 C14A H14C 0.9700 . ?
 C14A H14D 0.9700 . ?
 C14A C15A 1.504(4) . ?
 C9 H9 0.9300 . ?
 C6 H6 0.9300 . ?
 C6 C5 1.385(5) . ?
 C3A H3A 0.9300 . ?
 C3A C4A 1.386(5) . ?
 C3 H3 0.9300 . ?
 C3 C4 1.376(5) . ?
 C20A H20A 0.9300 . ?
 C24 H24A 0.9700 . ?
 C24 H24B 0.9700 . ?
 C24 C23 1.533(4) . ?
 C20 H20 0.9300 . ?
 C21A H21C 0.9700 . ?
 C21A H21D 0.9700 . ?
 C21A C22A 1.505(5) . ?
 C21 H21A 0.9700 . ?
 C21 H21B 0.9700 . ?
 C21 C22 1.524(4) . ?
 C4 H4 0.9300 . ?
 C4 C5 1.391(5) . ?
 C5A H5A 0.9300 . ?
 C5A C4A 1.391(5) . ?
 C14 H14A 0.9700 . ?
 C14 H14B 0.9700 . ?
 C14 C15 1.506(4) . ?
 C4A H4A 0.9300 . ?
 C16A H16A 0.9300 . ?
 C24A H24C 0.9700 . ?
 C24A H24D 0.9700 . ?
 C24A C23A 1.504(4) . ?
 C5 H5 0.9300 . ?
 C15 H15A 0.9600 . ?
 C15 H15B 0.9600 . ?
 C15 H15C 0.9600 . ?
 C15A H15D 0.9600 . ?
 C15A H15E 0.9600 . ?
 C15A H15F 0.9600 . ?
 C22 H22A 0.9700 . ?
 C22 H22B 0.9700 . ?
 C22 C23 1.518(5) . ?
 C23 H23A 0.9700 . ?
 C23 H23B 0.9700 . ?
 C23A H23C 0.9700 . ?
 C23A H23D 0.9700 . ?
 C23A C22A 1.429(6) . ?
 C22A H22C 0.9700 . ?
 C22A H22D 0.9700 . ?

loop_
  _geom_angle_atom_site_label_1
  _geom_angle_atom_site_label_2
  _geom_angle_atom_site_label_3
  _geom_angle
  _geom_angle_site_symmetry_1
  _geom_angle_site_symmetry_3
  _geom_angle_publ_flag
 C1A Se1A N1A 84.31(11) . . ?
 N1 Se1 N2 174.48(10) . . ?
 C1 Se1 N1 83.99(11) . . ?
 C1 Se1 N2 90.84(11) . . ?
 C11A O2A C14A 117.0(2) . . ?
 C11 O2 C14 117.7(2) . . ?
 C8A N1A Se1A 118.87(19) . . ?
 C7A N1A Se1A 115.8(2) . . ?
 C7A N1A C8A 125.3(2) . . ?
 C8 N1 Se1 119.23(19) . . ?
 C7 N1 Se1 115.8(2) . . ?
 C7 N1 C8 125.0(2) . . ?
 C18 N3 C24 123.5(2) . . ?
 C18 N3 C21 123.5(2) . . ?
 C24 N3 C21 112.3(2) . . ?
 C18A N3A C21A 123.8(2) . . ?
 C18A N3A C24A 123.5(2) . . ?
 C24A N3A C21A 112.6(2) . . ?
 C16 N2 Se1 115.09(19) . . ?
 C20 N2 Se1 127.57(19) . . ?
 C20 N2 C16 116.5(2) . . ?
 C20A N2A C16A 116.5(2) . . ?
 C13 C8 N1 119.6(2) . . ?
 C13 C8 C9 118.4(3) . . ?
 C9 C8 N1 122.0(3) . . ?
 C9A C8A N1A 122.4(3) . . ?
 C13A C8A N1A 119.4(2) . . ?
 C13A C8A C9A 118.1(3) . . ?
 N3 C18 C19 122.7(3) . . ?
 N3 C18 C17 120.8(3) . . ?
 C19 C18 C17 116.4(3) . . ?
 C2A C1A Se1A 112.2(2) . . ?
 C6A C1A Se1A 127.5(2) . . ?
 C6A C1A C2A 120.3(3) . . ?
 O2A C11A C12A 125.3(3) . . ?
 O2A C11A C10A 115.8(2) . . ?
 C12A C11A C10A 119.0(3) . . ?
 C8A C9A H9A 119.9 . . ?
 C10A C9A C8A 120.2(3) . . ?
 C10A C9A H9A 119.9 . . ?
 O1 C7 N1 126.2(3) . . ?
 O1 C7 C2 123.5(3) . . ?
 N1 C7 C2 110.3(2) . . ?
 C13 C12 H12 119.8 . . ?
 C13 C12 C11 120.5(3) . . ?
 C11 C12 H12 119.8 . . ?
 C11A C12A H12A 120.1 . . ?
 C13A C12A C11A 119.7(3) . . ?
 C13A C12A H12A 120.1 . . ?
 C1A C2A C7A 117.5(3) . . ?
 C3A C2A C1A 120.3(3) . . ?
 C3A C2A C7A 122.2(3) . . ?
 C1 C2 C7 117.3(3) . . ?
 C3 C2 C7 122.2(3) . . ?
 C3 C2 C1 120.5(3) . . ?
 C11A C10A H10A 119.4 . . ?
 C9A C10A C11A 121.2(3) . . ?
 C9A C10A H10A 119.4 . . ?
 C8 C13 H13 119.6 . . ?
 C12 C13 C8 120.8(3) . . ?
 C12 C13 H13 119.6 . . ?
 N3A C18A C17A 122.1(3) . . ?
 N3A C18A C19A 121.5(3) . . ?
 C17A C18A C19A 116.4(3) . . ?
 C1A C6A H6A 120.6 . . ?
 C5A C6A C1A 118.8(3) . . ?
 C5A C6A H6A 120.6 . . ?
 C11 C10 H10 119.8 . . ?
 C9 C10 H10 119.8 . . ?
 C9 C10 C11 120.5(3) . . ?
 C2 C1 Se1 112.5(2) . . ?
 C2 C1 C6 120.3(3) . . ?
 C6 C1 Se1 127.2(2) . . ?
 C18 C19 H19 120.2 . . ?
 C20 C19 C18 119.7(3) . . ?
 C20 C19 H19 120.2 . . ?
 C8A C13A H13A 119.1 . . ?
 C12A C13A C8A 121.8(3) . . ?
 C12A C13A H13A 119.1 . . ?
 C18A C17A H17A 120.3 . . ?
 C16A C17A C18A 119.5(3) . . ?
 C16A C17A H17A 120.3 . . ?
 C18A C19A H19A 120.3 . . ?
 C20A C19A C18A 119.3(3) . . ?
 C20A C19A H19A 120.3 . . ?
 C18 C17 H17 120.2 . . ?
 C16 C17 C18 119.6(3) . . ?
 C16 C17 H17 120.2 . . ?
 N2 C16 C17 123.7(3) . . ?
 N2 C16 H16 118.2 . . ?
 C17 C16 H16 118.2 . . ?
 O2A C14A H14C 110.3 . . ?
 O2A C14A H14D 110.3 . . ?
 O2A C14A C15A 107.1(3) . . ?
 H14C C14A H14D 108.5 . . ?
 C15A C14A H14C 110.3 . . ?
 C15A C14A H14D 110.3 . . ?
 O2 C11 C12 115.7(3) . . ?
 O2 C11 C10 125.5(3) . . ?
 C10 C11 C12 118.9(3) . . ?
 O1A C7A N1A 126.5(3) . . ?
 O1A C7A C2A 123.5(3) . . ?
 N1A C7A C2A 110.0(2) . . ?
 C8 C9 H9 119.5 . . ?
 C10 C9 C8 120.9(3) . . ?
 C10 C9 H9 119.5 . . ?
 C1 C6 H6 121.0 . . ?
 C5 C6 C1 118.1(3) . . ?
 C5 C6 H6 121.0 . . ?
 C2A C3A H3A 120.4 . . ?
 C4A C3A C2A 119.3(3) . . ?
 C4A C3A H3A 120.4 . . ?
 C2 C3 H3 120.3 . . ?
 C4 C3 C2 119.4(3) . . ?
 C4 C3 H3 120.3 . . ?
 N2A C20A C19A 124.3(3) . . ?
 N2A C20A H20A 117.9 . . ?
 C19A C20A H20A 117.9 . . ?
 N3 C24 H24A 111.2 . . ?
 N3 C24 H24B 111.2 . . ?
 N3 C24 C23 102.7(3) . . ?
 H24A C24 H24B 109.1 . . ?
 C23 C24 H24A 111.2 . . ?
 C23 C24 H24B 111.2 . . ?
 N2 C20 C19 124.0(3) . . ?
 N2 C20 H20 118.0 . . ?
 C19 C20 H20 118.0 . . ?
 N3A C21A H21C 111.2 . . ?
 N3A C21A H21D 111.2 . . ?
 N3A C21A C22A 102.7(3) . . ?
 H21C C21A H21D 109.1 . . ?
 C22A C21A H21C 111.2 . . ?
 C22A C21A H21D 111.2 . . ?
 N3 C21 H21A 111.1 . . ?
 N3 C21 H21B 111.1 . . ?
 N3 C21 C22 103.5(2) . . ?
 H21A C21 H21B 109.0 . . ?
 C22 C21 H21A 111.1 . . ?
 C22 C21 H21B 111.1 . . ?
 C3 C4 H4 120.0 . . ?
 C3 C4 C5 120.0(3) . . ?
 C5 C4 H4 120.0 . . ?
 C6A C5A H5A 119.4 . . ?
 C6A C5A C4A 121.3(3) . . ?
 C4A C5A H5A 119.4 . . ?
 O2 C14 H14A 109.2 . . ?
 O2 C14 H14B 109.2 . . ?
 O2 C14 C15 111.9(3) . . ?
 H14A C14 H14B 107.9 . . ?
 C15 C14 H14A 109.2 . . ?
 C15 C14 H14B 109.2 . . ?
 C3A C4A C5A 120.1(3) . . ?
 C3A C4A H4A 120.0 . . ?
 C5A C4A H4A 120.0 . . ?
 N2A C16A C17A 124.0(3) . . ?
 N2A C16A H16A 118.0 . . ?
 C17A C16A H16A 118.0 . . ?
 N3A C24A H24C 111.0 . . ?
 N3A C24A H24D 111.0 . . ?
 N3A C24A C23A 103.9(3) . . ?
 H24C C24A H24D 109.0 . . ?
 C23A C24A H24C 111.0 . . ?
 C23A C24A H24D 111.0 . . ?
 C6 C5 C4 121.7(3) . . ?
 C6 C5 H5 119.1 . . ?
 C4 C5 H5 119.1 . . ?
 C14 C15 H15A 109.5 . . ?
 C14 C15 H15B 109.5 . . ?
 C14 C15 H15C 109.5 . . ?
 H15A C15 H15B 109.5 . . ?
 H15A C15 H15C 109.5 . . ?
 H15B C15 H15C 109.5 . . ?
 C14A C15A H15D 109.5 . . ?
 C14A C15A H15E 109.5 . . ?
 C14A C15A H15F 109.5 . . ?
 H15D C15A H15E 109.5 . . ?
 H15D C15A H15F 109.5 . . ?
 H15E C15A H15F 109.5 . . ?
 C21 C22 H22A 111.1 . . ?
 C21 C22 H22B 111.1 . . ?
 H22A C22 H22B 109.1 . . ?
 C23 C22 C21 103.2(3) . . ?
 C23 C22 H22A 111.1 . . ?
 C23 C22 H22B 111.1 . . ?
 C24 C23 H23A 111.1 . . ?
 C24 C23 H23B 111.1 . . ?
 C22 C23 C24 103.2(3) . . ?
 C22 C23 H23A 111.1 . . ?
 C22 C23 H23B 111.1 . . ?
 H23A C23 H23B 109.1 . . ?
 C24A C23A H23C 110.2 . . ?
 C24A C23A H23D 110.2 . . ?
 H23C C23A H23D 108.5 . . ?
 C22A C23A C24A 107.7(3) . . ?
 C22A C23A H23C 110.2 . . ?
 C22A C23A H23D 110.2 . . ?
 C21A C22A H22C 109.9 . . ?
 C21A C22A H22D 109.9 . . ?
 C23A C22A C21A 109.1(3) . . ?
 C23A C22A H22C 109.9 . . ?
 C23A C22A H22D 109.9 . . ?
 H22C C22A H22D 108.3 . . ?

loop_
  _geom_torsion_atom_site_label_1
  _geom_torsion_atom_site_label_2
  _geom_torsion_atom_site_label_3
  _geom_torsion_atom_site_label_4
  _geom_torsion
  _geom_torsion_site_symmetry_1
  _geom_torsion_site_symmetry_2
  _geom_torsion_site_symmetry_3
  _geom_torsion_site_symmetry_4
  _geom_torsion_publ_flag
 Se1A N1A C8A C9A 161.4(2) . . . . ?
 Se1A N1A C8A C13A -15.4(3) . . . . ?
 Se1A N1A C7A O1A 174.5(3) . . . . ?
 Se1A N1A C7A C2A -4.8(3) . . . . ?
 Se1A C1A C2A C7A -1.0(3) . . . . ?
 Se1A C1A C2A C3A 179.0(2) . . . . ?
 Se1A C1A C6A C5A -178.3(2) . . . . ?
 Se1 N1 C8 C13 -27.7(3) . . . . ?
 Se1 N1 C8 C9 151.1(2) . . . . ?
 Se1 N1 C7 O1 178.3(2) . . . . ?
 Se1 N1 C7 C2 -1.5(3) . . . . ?
 Se1 N2 C16 C17 -172.1(3) . . . . ?
 Se1 N2 C20 C19 170.2(2) . . . . ?
 Se1 C1 C6 C5 179.9(2) . . . . ?
 O2A C11A C12A C13A 178.8(3) . . . . ?
 O2A C11A C10A C9A -178.9(3) . . . . ?
 O1 C7 C2 C1 -179.4(3) . . . . ?
 O1 C7 C2 C3 1.5(4) . . . . ?
 N1A Se1A C1A C2A -1.3(2) . . . . ?
 N1A Se1A C1A C6A 177.3(3) . . . . ?
 N1A C8A C9A C10A -176.3(3) . . . . ?
 N1A C8A C13A C12A 176.3(3) . . . . ?
 N1 Se1 C1 C2 -1.3(2) . . . . ?
 N1 Se1 C1 C6 178.8(3) . . . . ?
 N1 C8 C13 C12 177.3(3) . . . . ?
 N1 C8 C9 C10 -177.5(3) . . . . ?
 N1 C7 C2 C1 0.4(4) . . . . ?
 N1 C7 C2 C3 -178.8(3) . . . . ?
 N3 C18 C19 C20 177.0(3) . . . . ?
 N3 C18 C17 C16 -177.5(3) . . . . ?
 N3 C24 C23 C22 -32.5(3) . . . . ?
 N3 C21 C22 C23 -30.3(3) . . . . ?
 N3A C18A C17A C16A -177.0(3) . . . . ?
 N3A C18A C19A C20A 177.5(3) . . . . ?
 N3A C21A C22A C23A 18.1(6) . . . . ?
 N3A C24A C23A C22A 14.8(6) . . . . ?
 N2 Se1 C1 C2 176.7(2) . . . . ?
 N2 Se1 C1 C6 -3.2(3) . . . . ?
 C8 N1 C7 O1 -2.1(5) . . . . ?
 C8 N1 C7 C2 178.2(2) . . . . ?
 C8A N1A C7A O1A -2.9(5) . . . . ?
 C8A N1A C7A C2A 177.7(3) . . . . ?
 C8A C9A C10A C11A -0.8(4) . . . . ?
 C18 N3 C24 C23 -156.8(3) . . . . ?
 C18 N3 C21 C22 -179.0(3) . . . . ?
 C18 C19 C20 N2 0.4(5) . . . . ?
 C18 C17 C16 N2 0.7(5) . . . . ?
 C1A C2A C7A O1A -175.6(3) . . . . ?
 C1A C2A C7A N1A 3.8(4) . . . . ?
 C1A C2A C3A C4A -0.6(5) . . . . ?
 C1A C6A C5A C4A -0.4(5) . . . . ?
 C11A O2A C14A C15A -177.7(2) . . . . ?
 C11A C12A C13A C8A 1.0(4) . . . . ?
 C9A C8A C13A C12A -0.6(4) . . . . ?
 C7 N1 C8 C13 152.6(3) . . . . ?
 C7 N1 C8 C9 -28.6(4) . . . . ?
 C7 C2 C1 Se1 0.9(3) . . . . ?
 C7 C2 C1 C6 -179.2(3) . . . . ?
 C7 C2 C3 C4 179.6(3) . . . . ?
 C12A C11A C10A C9A 1.2(4) . . . . ?
 C2A C1A C6A C5A 0.2(4) . . . . ?
 C2A C3A C4A C5A 0.5(5) . . . . ?
 C2 C1 C6 C5 0.0(4) . . . . ?
 C2 C3 C4 C5 -1.0(5) . . . . ?
 C10A C11A C12A C13A -1.3(4) . . . . ?
 C13 C8 C9 C10 1.4(4) . . . . ?
 C13 C12 C11 O2 -178.9(3) . . . . ?
 C13 C12 C11 C10 1.2(4) . . . . ?
 C18A N3A C21A C22A 167.8(4) . . . . ?
 C18A N3A C24A C23A -179.8(4) . . . . ?
 C18A C17A C16A N2A -0.8(5) . . . . ?
 C18A C19A C20A N2A -0.1(5) . . . . ?
 C6A C1A C2A C7A -179.7(3) . . . . ?
 C6A C1A C2A C3A 0.3(4) . . . . ?
 C6A C5A C4A C3A 0.1(5) . . . . ?
 C1 C2 C3 C4 0.5(4) . . . . ?
 C1 C6 C5 C4 -0.5(5) . . . . ?
 C19 C18 C17 C16 0.9(4) . . . . ?
 C13A C8A C9A C10A 0.5(4) . . . . ?
 C17A C18A C19A C20A -1.5(4) . . . . ?
 C19A C18A C17A C16A 1.9(4) . . . . ?
 C17 C18 C19 C20 -1.4(4) . . . . ?
 C16 N2 C20 C19 1.2(5) . . . . ?
 C14A O2A C11A C12A -0.6(4) . . . . ?
 C14A O2A C11A C10A 179.5(2) . . . . ?
 C11 O2 C14 C15 -78.8(3) . . . . ?
 C11 C12 C13 C8 0.3(4) . . . . ?
 C11 C10 C9 C8 0.2(4) . . . . ?
 C7A N1A C8A C9A -21.3(4) . . . . ?
 C7A N1A C8A C13A 161.9(3) . . . . ?
 C7A C2A C3A C4A 179.4(3) . . . . ?
 C9 C8 C13 C12 -1.6(4) . . . . ?
 C9 C10 C11 O2 178.7(3) . . . . ?
 C9 C10 C11 C12 -1.4(4) . . . . ?
 C3A C2A C7A O1A 4.4(5) . . . . ?
 C3A C2A C7A N1A -176.2(3) . . . . ?
 C3 C2 C1 Se1 -179.9(2) . . . . ?
 C3 C2 C1 C6 0.0(4) . . . . ?
 C3 C4 C5 C6 1.0(5) . . . . ?
 C20A N2A C16A C17A -0.7(5) . . . . ?
 C24 N3 C18 C19 -6.5(5) . . . . ?
 C24 N3 C18 C17 171.8(3) . . . . ?
 C24 N3 C21 C22 10.1(3) . . . . ?
 C20 N2 C16 C17 -1.7(5) . . . . ?
 C21A N3A C18A C17A -0.1(5) . . . . ?
 C21A N3A C18A C19A -178.9(3) . . . . ?
 C21A N3A C24A C23A -3.3(4) . . . . ?
 C21 N3 C18 C19 -176.4(3) . . . . ?
 C21 N3 C18 C17 2.0(5) . . . . ?
 C21 N3 C24 C23 14.0(3) . . . . ?
 C21 C22 C23 C24 39.2(3) . . . . ?
 C14 O2 C11 C12 177.1(3) . . . . ?
 C14 O2 C11 C10 -3.0(4) . . . . ?
 C16A N2A C20A C19A 1.2(5) . . . . ?
 C24A N3A C18A C17A 175.9(3) . . . . ?
 C24A N3A C18A C19A -2.9(5) . . . . ?
 C24A N3A C21A C22A -8.6(4) . . . . ?
 C24A C23A C22A C21A -21.0(7) . . . . ?

_shelx_res_file
;
TITL jmwel3_cu_a.res in P-1
    jmwel3_cu.res
    created by SHELXL-2018/3 at 13:51:55 on 09-Dec-2019
REM Old TITL jmwel3_Cu in P-1
REM SHELXT solution in P-1: R1 0.098, Rweak 0.004, Alpha 0.058
REM <I/s> 0.000 for 0 systematic absences, Orientation as input
REM Formula found by SHELXT: C48 N6 O4 Se2
CELL 1.54184 9.7799 12.7158 18.9949 75.672 77.214 68.133
ZERR 4 0.0003 0.0005 0.0006 0.003 0.003 0.003
LATT 1
SFAC C H N O Se
UNIT 96 100 12 8 4

L.S. 4
PLAN  2
CONF
BOND
list 4
fmap 2
MORE -1
ACTA
BOND $H
REM <olex2.extras>
REM <HklSrc "%./jmwel3_Cu.hkl">
REM </olex2.extras>

WGHT    0.071000    1.689300
EXTI    0.000465
FVAR       0.26045
SE1A  5    0.360154    0.892035    0.919351    11.00000    0.02611    0.02905 =
         0.01875   -0.00130   -0.00764   -0.00734
SE1   5    0.287733    0.473395    0.494807    11.00000    0.02599    0.03125 =
         0.01799    0.00021   -0.00660   -0.00973
O2A   4    0.251481    1.075713    1.237877    11.00000    0.03303    0.02986 =
         0.02058   -0.00337   -0.00849   -0.00714
O2    4    0.216109    0.668717    0.802777    11.00000    0.03781    0.03031 =
         0.02274   -0.00371   -0.00620   -0.01250
O1    4    0.549530    0.232261    0.637043    11.00000    0.03260    0.03207 =
         0.02356   -0.00047   -0.01152   -0.00644
O1A   4    0.649993    0.672254    1.055217    11.00000    0.03665    0.03624 =
         0.02592   -0.00321   -0.01340   -0.00126
N1A   3    0.456157    0.826854    1.008361    11.00000    0.02782    0.02637 =
         0.01737    0.00184   -0.00794   -0.00592
N1    3    0.381444    0.401543    0.584750    11.00000    0.02776    0.02807 =
         0.01861    0.00325   -0.00746   -0.00939
N3    3    0.031775    0.724903    0.184515    11.00000    0.02806    0.03026 =
         0.02156   -0.00156   -0.00775   -0.01155
N3A   3    0.071119    1.124150    0.615410    11.00000    0.02861    0.03370 =
         0.02085    0.00269   -0.00819   -0.01255
N2    3    0.194400    0.545546    0.381800    11.00000    0.02807    0.03399 =
         0.02033   -0.00090   -0.00651   -0.01043
N2A   3    0.262690    0.958765    0.806512    11.00000    0.03048    0.03163 =
         0.02074   -0.00218   -0.00959   -0.00729
C8    1    0.345551    0.465516    0.641642    11.00000    0.02212    0.03344 =
         0.01857   -0.00304   -0.00513   -0.00843
C8A   1    0.408855    0.890677    1.066194    11.00000    0.02680    0.03185 =
         0.01702   -0.00199   -0.00511   -0.01112
C18   1    0.080808    0.668882    0.249517    11.00000    0.02577    0.02512 =
         0.02084   -0.00334   -0.00641   -0.00572
C1A   1    0.488816    0.752732    0.888209    11.00000    0.02737    0.02725 =
         0.02186   -0.00156   -0.00455   -0.01013
C11A  1    0.298165    1.020736    1.178957    11.00000    0.02624    0.03210 =
         0.02125   -0.00407   -0.00349   -0.01237
C9A   1    0.438307    0.839586    1.138175    11.00000    0.02748    0.02899 =
         0.02165   -0.00061   -0.00756   -0.00937
AFIX  43
H9A   2    0.495481    0.762108    1.148712    11.00000   -1.20000
AFIX   0

C7    1    0.476770    0.291899    0.586774    11.00000    0.02620    0.03081 =
         0.02246    0.00199   -0.00620   -0.01252
C12   1    0.259952    0.650453    0.679409    11.00000    0.03068    0.02727 =
         0.02761    0.00058   -0.00635   -0.01223
AFIX  43
H12   2    0.230507    0.730393    0.667152    11.00000   -1.20000
AFIX   0

C12A  1    0.267602    1.072005    1.107713    11.00000    0.02693    0.02677 =
         0.02277    0.00063   -0.00883   -0.00791
AFIX  43
H12A  2    0.209785    1.149348    1.097354    11.00000   -1.20000
AFIX   0
C2A   1    0.581892    0.681298    0.940008    11.00000    0.02808    0.03278 =
         0.02151   -0.00090   -0.00472   -0.00907

C2    1    0.483945    0.251175    0.519197    11.00000    0.02549    0.03595 =
         0.02145   -0.00073   -0.00513   -0.01390
C10A  1    0.382824    0.903794    1.193299    11.00000    0.02813    0.03046 =
         0.01806    0.00087   -0.00921   -0.01098
AFIX  43
H10A  2    0.402059    0.868682    1.240891    11.00000   -1.20000
AFIX   0

C13   1    0.301650    0.585636    0.624568    11.00000    0.03069    0.03069 =
         0.01976    0.00253   -0.00682   -0.01242
AFIX  43
H13   2    0.300409    0.622539    0.575772    11.00000   -1.20000
AFIX   0

C18A  1    0.131121    1.073348    0.677801    11.00000    0.02666    0.02543 =
         0.01930   -0.00207   -0.00498   -0.00708
C6A   1    0.495546    0.717301    0.823515    11.00000    0.02915    0.03515 =
         0.02108   -0.00218   -0.00684   -0.01227
AFIX  43
H6A   2    0.434220    0.764568    0.788851    11.00000   -1.20000
AFIX   0

C10   1    0.308847    0.476828    0.770241    11.00000    0.02482    0.03444 =
         0.01992    0.00080   -0.00711   -0.00921
AFIX  43
H10   2    0.312732    0.439869    0.818934    11.00000   -1.20000
AFIX   0
C1    1    0.396775    0.328223    0.466628    11.00000    0.02380    0.03169 =
         0.02212    0.00053   -0.00440   -0.01140
C19   1    0.012921    0.595836    0.301242    11.00000    0.02456    0.03168 =
         0.02469   -0.00219   -0.00522   -0.01090
AFIX  43
H19   2   -0.071850    0.587200    0.292490    11.00000   -1.20000
AFIX   0

C13A  1    0.323601    1.007390    1.052513    11.00000    0.02891    0.03123 =
         0.01880    0.00275   -0.00869   -0.01195
AFIX  43
H13A  2    0.303945    1.042628    1.004995    11.00000   -1.20000
AFIX   0

C17A  1    0.258747    1.088756    0.690310    11.00000    0.03222    0.03232 =
         0.02384    0.00049   -0.00778   -0.01490
AFIX  43
H17A  2    0.301722    1.137922    0.656011    11.00000   -1.20000
AFIX   0
C19A  1    0.070589    0.999811    0.733836    11.00000    0.02746    0.03103 =
         0.02231   -0.00138   -0.00716   -0.01155
AFIX  43
H19A  2   -0.014852    0.987721    0.729173    11.00000   -1.20000
AFIX   0

C17   1    0.206771    0.679017    0.267933    11.00000    0.03075    0.03322 =
         0.02188    0.00082   -0.00643   -0.01577
AFIX  43
H17   2    0.255235    0.726875    0.236220    11.00000   -1.20000
AFIX   0
C16   1    0.257729    0.617485    0.333310    11.00000    0.02781    0.03894 =
         0.02239   -0.00098   -0.00840   -0.01407
AFIX  43
H16   2    0.340364    0.626087    0.344579    11.00000   -1.20000
AFIX   0

C14A  1    0.165561    1.195896    1.224698    11.00000    0.02890    0.03417 =
         0.02680   -0.00636   -0.00415   -0.01188
AFIX  23
H14C  2    0.073416    1.207432    1.207910    11.00000   -1.20000
H14D  2    0.220991    1.238022    1.187419    11.00000   -1.20000
AFIX   0

C11   1    0.261787    0.596575    0.753123    11.00000    0.02640    0.03127 =
         0.02464   -0.00271   -0.00596   -0.01137
C7A   1    0.568488    0.724028    1.007742    11.00000    0.02856    0.03038 =
         0.02259    0.00068   -0.00781   -0.00765
C9    1    0.349996    0.412199    0.715223    11.00000    0.02520    0.02964 =
         0.02289    0.00032   -0.00644   -0.00860
AFIX  43
H9    2    0.380997    0.332215    0.727481    11.00000   -1.20000
AFIX   0
C6    1    0.396913    0.294699    0.401813    11.00000    0.03164    0.03405 =
         0.02409   -0.00220   -0.00700   -0.01230
AFIX  43
H6    2    0.339380    0.345287    0.366471    11.00000   -1.20000
AFIX   0

C3A   1    0.682434    0.574413    0.927118    11.00000    0.03759    0.02923 =
         0.02716   -0.00154   -0.01027   -0.00439
AFIX  43
H3A   2    0.744959    0.527252    0.961297    11.00000   -1.20000
AFIX   0

C3    1    0.571636    0.140510    0.507735    11.00000    0.03134    0.03175 =
         0.02557    0.00065   -0.00783   -0.00952
AFIX  43
H3    2    0.628927    0.089246    0.542975    11.00000   -1.20000
AFIX   0

C20A  1    0.139322    0.946309    0.795332    11.00000    0.03395    0.03132 =
         0.02168    0.00135   -0.00702   -0.01263
AFIX  43
H20A  2    0.097502    0.898380    0.831507    11.00000   -1.20000
AFIX   0

C24   1   -0.085559    0.706608    0.157956    11.00000    0.03394    0.03750 =
         0.02976    0.00028   -0.01421   -0.01654
AFIX  23
H24A  2   -0.183512    0.753182    0.177996    11.00000   -1.20000
H24B  2   -0.078313    0.626167    0.170449    11.00000   -1.20000
AFIX   0
C20   1    0.072526    0.537543    0.364564    11.00000    0.02725    0.03207 =
         0.02294   -0.00032   -0.00308   -0.01323
AFIX  43
H20   2    0.025975    0.489551    0.397633    11.00000   -1.20000
AFIX   0

C21A  1    0.130680    1.199494    0.555043    11.00000    0.03295    0.03122 =
         0.02087    0.00170   -0.00418   -0.00905
AFIX  23
H21C  2    0.237234    1.164576    0.541812    11.00000   -1.20000
H21D  2    0.110069    1.273776    0.567772    11.00000   -1.20000
AFIX   0

C21   1    0.105861    0.795727    0.128450    11.00000    0.03144    0.02962 =
         0.02348    0.00186   -0.00718   -0.01093
AFIX  23
H21A  2    0.206387    0.749981    0.110907    11.00000   -1.20000
H21B  2    0.109548    0.858654    0.147399    11.00000   -1.20000
AFIX   0
C4    1    0.572898    0.107517    0.443792    11.00000    0.03421    0.03360 =
         0.03380   -0.00408   -0.00732   -0.00738
AFIX  43
H4    2    0.632401    0.034062    0.435333    11.00000   -1.20000
AFIX   0

C5A   1    0.595243    0.610341    0.811644    11.00000    0.03685    0.03873 =
         0.02379   -0.00734   -0.00354   -0.01397
AFIX  43
H5A   2    0.600032    0.585727    0.768675    11.00000   -1.20000
AFIX   0

C14   1    0.209411    0.617341    0.879686    11.00000    0.03769    0.03325 =
         0.02202   -0.00326   -0.00715   -0.01116
AFIX  23
H14A  2    0.210431    0.671497    0.907498    11.00000   -1.20000
H14B  2    0.296824    0.549247    0.886857    11.00000   -1.20000
AFIX   0

C4A   1    0.688352    0.539023    0.862767    11.00000    0.03960    0.03169 =
         0.02930   -0.00690   -0.00607   -0.00311
AFIX  43
H4A   2    0.754638    0.467525    0.853764    11.00000   -1.20000
AFIX   0

C16A  1    0.319197    1.030470    0.753666    11.00000    0.02916    0.03754 =
         0.02500   -0.00384   -0.00888   -0.01124
AFIX  43
H16A  2    0.404111    1.041142    0.760471    11.00000   -1.20000
AFIX   0
C24A  1   -0.055295    1.104305    0.598568    11.00000    0.03580    0.04209 =
         0.02762    0.00143   -0.01245   -0.01688
AFIX  23
H24C  2   -0.142451    1.127623    0.634786    11.00000   -1.20000
H24D  2   -0.031711    1.023683    0.597012    11.00000   -1.20000
AFIX   0

C5    1    0.485186    0.184010    0.391783    11.00000    0.03940    0.04505 =
         0.02315   -0.00805   -0.00395   -0.01667
AFIX  43
H5    2    0.485862    0.160171    0.349164    11.00000   -1.20000
AFIX   0
C15   1    0.071744    0.584314    0.908269    11.00000    0.03556    0.03854 =
         0.02598    0.00086   -0.00538   -0.01074
AFIX 137
H15A  2    0.065566    0.536401    0.877999    11.00000   -1.50000
H15B  2   -0.014684    0.652643    0.907207    11.00000   -1.50000
H15C  2    0.076608    0.542846    0.957817    11.00000   -1.50000
AFIX   0

C15A  1    0.133254    1.237451    1.296169    11.00000    0.03755    0.04300 =
         0.03565   -0.01269   -0.00892   -0.01044
AFIX 137
H15D  2    0.077664    1.318471    1.289142    11.00000   -1.50000
H15E  2    0.225251    1.223887    1.312762    11.00000   -1.50000
H15F  2    0.076229    1.196515    1.332214    11.00000   -1.50000
AFIX   0

C22   1    0.008395    0.840698    0.067706    11.00000    0.03693    0.04513 =
         0.02375    0.00552   -0.01095   -0.01331
AFIX  23
H22A  2   -0.070662    0.912461    0.075218    11.00000   -1.20000
H22B  2    0.066740    0.852744    0.019888    11.00000   -1.20000
AFIX   0
C23   1   -0.054019    0.745125    0.074698    11.00000    0.04817    0.04412 =
         0.03091    0.00015   -0.01712   -0.01624
AFIX  23
H23A  2    0.017914    0.682327    0.051735    11.00000   -1.20000
H23B  2   -0.144555    0.773657    0.052637    11.00000   -1.20000
AFIX   0

C23A  1   -0.080639    1.178184    0.524230    11.00000    0.11255    0.08934 =
         0.04809    0.03550   -0.05470   -0.07175
AFIX  23
H23C  2   -0.095741    1.135402    0.492557    11.00000   -1.20000
H23D  2   -0.168306    1.246089    0.528802    11.00000   -1.20000
AFIX   0
C22A  1    0.048101    1.211029    0.493893    11.00000    0.05900    0.11971 =
         0.03041    0.03045   -0.02146   -0.04909
AFIX  23
H22C  2    0.018427    1.290109    0.467778    11.00000   -1.20000
H22D  2    0.112271    1.161977    0.459399    11.00000   -1.20000
AFIX   0
HKLF 4




REM  jmwel3_cu_a.res in P-1
REM wR2 = 0.1388, GooF = S = 1.131, Restrained GooF = 1.131 for all data
REM R1 = 0.0484 for 7620 Fo > 4sig(Fo) and 0.0534 for all 8651 data
REM 544 parameters refined using 0 restraints

END

WGHT      0.0710      1.6894

REM Highest difference peak  0.782,  deepest hole -0.985,  1-sigma level  0.099
Q1    1   0.4246  0.8304  0.8926  11.00000  0.05    0.78
Q2    1   0.2338  0.5281  0.5271  11.00000  0.05    0.74
;
_shelx_res_checksum                49239
_shelx_hkl_file
;
   0   0  -1    5.95    0.38
   0   0  -2  143.71    6.94
   0   0  -3  455.31   21.63
   0   0  -4    8.14    0.72
   0   0  -7 1505.61   71.07
   0   0  -8   16.67    1.33
   0   0  -9  437.22   21.19
   0   0 -10  366.72   17.94
   0   0 -11    0.12    0.35
   0   0 -12  314.78   16.17
   0   0 -12  342.86   17.38
   0   0 -12  337.19   17.85
   0   0 -12  333.76   17.95
   0   0 -13    1.73    0.76
   0   0 -13    3.14    1.06
   0   0 -13    3.31    1.21
   0   0 -13    3.06    0.66
   0   0 -13    3.76    0.85
   0   0 -13    2.77    1.07
   0   0 -14  143.90    9.39
   0   0 -14  135.31    7.83
   0   0 -14  140.64    9.41
   0   0 -14  135.19    8.82
   0   0 -14  143.55    7.97
   0   0 -15    0.42    0.67
   0   0 -15   -0.52    0.92
   0   0 -15   -0.26    1.04
   0   0 -15    0.24    0.62
   0   0 -16  274.33   16.24
   0   0 -16  284.04   16.38
   0   0 -16  271.44   14.39
   0   0 -16  269.65   14.15
   0   0 -16  275.22   15.48
   0   0 -17   34.06    3.86
   0   0 -17   32.57    3.27
   0   0 -17   30.51    2.67
   0   0 -17   24.43    3.47
   0   0 -17   26.53    2.34
   0   0 -18    0.78    0.97
   0   0 -18    2.26    0.70
   0   0 -18    3.11    1.04
   0   0 -18    2.56    0.85
   0   0 -18    3.08    1.40
   0   0 -19  118.90    7.16
   0   0 -19  119.18    7.58
   0   0 -19  135.79    9.09
   0   0 -19  142.89    8.92
   0   0 -20    1.19    0.82
   0   0 -20    0.22    0.52
   0   0 -20    1.48    0.67
   0   0 -20    2.56    1.24
   0   0 -20    0.99    0.89
   0   0 -21   13.52    1.91
   0   0 -21   12.79    2.10
   0   0 -21   15.25    1.76
   0   0 -22   26.49    2.52
   0   1 -22   28.13    2.42
   0   1 -21    0.19    0.39
   0   1 -21    1.02    0.81
   0   1 -21    0.75    0.51
   0   1 -21    0.20    0.51
   0   1 -20   67.88    4.53
   0   1 -20   74.84    5.61
   0   1 -20   76.82    4.93
   0   1 -20   81.30    5.44
   0   1 -19    2.74    1.17
   0   1 -19    5.78    1.52
   0   1 -19    4.11    0.81
   0   1 -19    4.09    1.01
   0   1 -19    3.65    1.07
   0   1 -19    3.82    0.95
   0   1 -18   40.96    3.80
   0   1 -18   41.46    3.08
   0   1 -18   42.97    4.16
   0   1 -18   42.44    3.52
   0   1 -18   39.11    3.20
   0   1 -18   46.21    4.48
   0   1 -17    1.65    0.87
   0   1 -17    3.22    0.82
   0   1 -17    2.92    1.33
   0   1 -17    1.28    0.99
   0   1 -17    1.29    1.16
   0   1 -17    2.39    1.08
   0   1 -16    5.80    1.26
   0   1 -16    4.81    1.04
   0   1 -16    3.37    1.46
   0   1 -16    4.70    1.32
   0   1 -16    6.53    1.78
   0   1 -16    4.62    1.30
   0   1 -15  135.57    8.40
   0   1 -15  138.95    8.01
   0   1 -15  132.94    7.84
   0   1 -15  138.64    9.29
   0   1 -15  133.63    7.85
   0   1 -15  139.18    8.86
   0   1 -15  138.40    9.32
   0   1 -14    3.02    1.08
   0   1 -14    3.97    1.28
   0   1 -14    1.55    0.75
   0   1 -14    3.53    0.86
   0   1 -14    1.79    0.76
   0   1 -14    1.64    1.18
   0   1 -13  312.37   16.47
   0   1 -13  303.44   16.96
   0   1 -13  328.86   15.82
   0   1 -13  290.06   15.65
   0   1 -13  293.95   16.90
   0   1 -13  295.74   15.61
   0   1 -12    0.33    0.40
   0   1 -12    0.68    0.51
   0   1 -12    0.51    0.53
   0   1 -12    0.30    0.50
   0   1 -12   -0.19    0.67
   0   1 -12    0.20    0.62
   0   1 -11  233.51   11.78
   0   1 -10   42.31    2.72
   0  -1   9   10.67    1.11
   0   1  -9   12.93    1.19
   0   1  -7   22.83    1.71
   0   1  -6  397.17   19.28
   0   1  -5  114.20    5.81
   0   1  -5  110.73    5.35
   0   1  -4    7.58    0.50
   0   1  -4    7.36    0.73
   0  -1   4    6.96    0.48
   0   1  -3    3.64    0.32
   0  -1   3    2.91    0.30
   0  -1   3    3.23    0.44
   0   1  -2  121.39    6.33
   0   1  -2  140.27    6.25
   0  -1   2  135.38    6.29
   0  -1   2  119.66    6.22
   0  -1   1  730.53   34.67
   0  -1   1  739.26   34.60
   0  -1   0   10.80    0.72
   0  -1  -1  815.45   38.92
   0   1   1  837.33   38.91
   0  -1  -2  511.17   24.15
   0   1   2  510.97   24.14
   0   1   3   31.43    1.71
   0  -1  -3   32.87    1.72
   0   1   4   16.79    0.96
   0  -1  -4   16.15    0.96
   0  -1  -4   16.60    1.07
   0  -1  -5   26.34    1.51
   0  -1  -5   22.93    1.26
   0  -1  -6  482.99   23.07
   0  -1  -7   85.49    4.52
   0  -1  -8   19.90    1.70
   0  -1  -8   20.93    1.51
   0  -1  -9  725.41   34.97
   0  -1  -9  722.21   34.57
   0  -1 -10    6.44    0.85
   0  -1 -11   97.57    5.42
   0  -1 -12   -0.17    0.91
   0  -1 -12    0.37    0.45
   0  -1 -13  123.13    7.41
   0  -1 -13   99.16    6.05
   0  -1 -13  112.49    7.79
   0  -1 -13  108.61    6.21
   0  -1 -14  105.38    6.43
   0  -1 -14  125.31    8.34
   0  -1 -14  112.82    6.56
   0  -1 -14  103.89    6.28
   0  -1 -14  125.94    8.37
   0  -1 -14  132.01    7.72
   0  -1 -15   95.46    5.86
   0  -1 -15   95.52    7.51
   0  -1 -15   95.97    6.65
   0  -1 -15  100.19    7.61
   0  -1 -15   94.50    5.59
   0  -1 -16   60.03    5.65
   0  -1 -16   56.25    3.75
   0  -1 -16   62.23    5.78
   0  -1 -16   59.89    4.71
   0  -1 -16   54.99    4.00
   0  -1 -17    1.20    1.17
   0  -1 -17    1.94    0.67
   0  -1 -17    1.58    1.36
   0  -1 -17    3.09    0.89
   0  -1 -17    2.26    0.97
   0  -1 -18   71.76    5.01
   0  -1 -18   67.38    6.31
   0  -1 -18   62.54    4.40
   0  -1 -18   73.78    6.32
   0  -1 -19    0.59    0.65
   0  -1 -19    1.22    1.27
   0  -1 -19    0.93    0.65
   0  -1 -19    0.83    0.97
   0  -1 -20   -0.55    1.15
   0  -1 -20    0.74    0.53
   0  -1 -20    1.20    1.10
   0  -1 -21   18.38    2.33
   0  -1 -21   16.99    2.47
   0  -1 -22    0.42    0.44
   0  -1 -22    0.27    0.62
   0  -1 -23   43.40    3.00
   0   2 -21   32.47    2.75
   0   2 -21   36.01    2.46
   0   2 -20    0.91    0.54
   0   2 -20    0.61    0.54
   0   2 -20    0.86    0.73
   0   2 -20    0.25    0.53
   0   2 -19   67.45    4.40
   0   2 -19   67.19    4.91
   0   2 -19   64.67    4.13
   0   2 -19   69.68    4.60
   0   2 -19   63.88    4.84
   0   2 -19   68.15    5.13
   0   2 -18   11.08    1.85
   0   2 -18   11.55    1.90
   0   2 -18    9.23    1.56
   0   2 -18   13.03    1.68
   0   2 -18   11.77    2.07
   0   2 -18   13.11    1.53
   0   2 -17  136.34    8.06
   0   2 -17  148.73    8.45
   0   2 -17  160.48    9.54
   0   2 -17  147.18    8.74
   0   2 -17  142.16    9.13
   0   2 -17  140.41    8.18
   0   2 -17  152.30    9.63
   0   2 -16   67.96    5.00
   0   2 -16   64.12    4.66
   0   2 -16   64.65    4.53
   0   2 -16   69.42    5.33
   0   2 -16   67.80    5.49
   0   2 -16   68.21    5.66
   0   2 -16   64.72    4.52
   0   2 -15   -0.13    0.87
   0   2 -15   -0.23    0.96
   0   2 -15    0.12    0.62
   0   2 -15   -0.24    0.88
   0   2 -15   -0.13    0.79
   0   2 -15    0.17    0.77
   0   2 -14  213.32   11.80
   0   2 -14  222.65   13.04
   0   2 -14  216.05   11.94
   0   2 -14  228.79   13.13
   0   2 -14  223.77   11.93
   0   2 -14  209.70   12.31
   0   2 -13   30.27    2.67
   0   2 -13   37.15    3.54
   0   2 -13   32.99    3.40
   0   2 -13   30.63    2.75
   0   2 -13   30.25    3.01
   0   2 -13   30.62    2.81
   0   2 -12  134.68    7.63
   0   2 -12  133.40    8.50
   0   2 -12  136.01    8.19
   0   2 -12  129.22    7.75
   0   2 -12  131.45    8.47
   0   2 -11  362.72   18.49
   0   2 -11  344.59   18.63
   0   2 -11  372.38   17.86
   0   2 -11  336.35   17.32
   0   2 -10    5.86    1.17
   0   2  -9  386.58   19.76
   0   2  -8   60.74    3.66
   0  -2   8   58.76    3.38
   0  -2   7  721.86   27.78
   0   2  -7  698.88   28.10
   0  -2   6    3.73    0.41
   0  -2   6    4.88    0.61
   0   2  -6    4.95    0.71
   0   2  -5    0.73    0.23
   0  -2   5    0.22    0.30
   0  -2   5    0.42    0.22
   0  -2   4  369.77   18.55
   0   2  -4  406.87   18.60
   0  -2   4  393.96   18.64
   0  -2   3   72.27    3.78
   0  -2   3   73.55    3.82
   0   2  -3   78.44    3.85
   0   2  -3   69.29    3.92
   0   2  -2   15.36    1.15
   0   2  -2   17.43    1.17
   0  -2   2   16.59    1.17
   0  -2   1   58.69    3.19
   0  -2   0   24.68    1.57
   0  -2  -1  132.85    6.10
   0   2   1  110.84    6.00
   0   2   2   53.41    2.77
   0  -2  -2   47.72    2.74
   0   2   3    1.01    0.33
   0  -2  -3    7.06    0.59
   0  -2  -4    1.37    0.34
   0   2   4    1.92    0.36
   0  -2  -5  464.64   22.70
   0   2   5  490.07   22.70
   0  -2  -5  469.91   22.65
   0   2   6    6.36    0.63
   0  -2  -6    5.16    0.57
   0  -2  -6    5.31    0.65
   0  -2  -7   47.56    2.67
   0  -2  -7   53.65    2.93
   0  -2  -8  168.43    7.64
   0   2   8  149.67    7.22
   0  -2  -8  167.92    7.83
   0  -2  -9    7.82    0.95
   0  -2  -9    7.56    1.01
   0  -2 -10  112.31    6.08
   0  -2 -10  109.71    6.28
   0  -2 -11   17.90    1.76
   0  -2 -11   16.25    1.56
   0  -2 -12   19.12    1.76
   0  -2 -12   16.40    1.84
   0  -2 -12   18.65    2.18
   0  -2 -13   43.70    3.76
   0  -2 -13   46.72    3.47
   0  -2 -13   41.52    3.18
   0  -2 -13   49.90    4.54
   0  -2 -13   44.03    3.64
   0  -2 -14    8.52    1.90
   0  -2 -14    5.04    1.23
   0  -2 -14    6.16    1.05
   0  -2 -14    6.71    1.29
   0  -2 -14    8.08    1.12
   0  -2 -15  353.62   17.34
   0  -2 -15  359.28   20.00
   0  -2 -15  373.84   20.20
   0  -2 -15  367.08   18.05
   0  -2 -15  348.28   18.11
   0  -2 -15  297.79   17.13
   0  -2 -16   20.58    2.41
   0  -2 -16   24.69    2.57
   0  -2 -16   22.96    3.41
   0  -2 -16   21.59    3.46
   0  -2 -16   20.25    2.01
   0  -2 -17   47.92    3.75
   0  -2 -17   45.67    5.28
   0  -2 -17   43.37    4.96
   0  -2 -17   38.49    3.14
   0  -2 -18    1.78    1.49
   0  -2 -18    0.10    0.56
   0  -2 -18    1.00    1.29
   0  -2 -18    0.71    0.65
   0  -2 -19   10.91    2.55
   0  -2 -19   11.97    2.63
   0  -2 -19   10.75    1.52
   0  -2 -20   29.14    3.64
   0  -2 -20   26.55    3.56
   0  -2 -20   28.67    2.40
   0  -2 -21   14.54    2.27
   0  -2 -21    8.91    1.75
   0  -2 -22   47.52    3.73
   0  -2 -22   41.55    3.27
   0  -2 -23    1.56    0.55
   0   3 -21    2.96    0.62
   0   3 -20   24.03    1.84
   0   3 -20   21.86    2.14
   0   3 -20   27.38    2.14
   0   3 -20   26.61    2.10
   0   3 -19   96.92    6.11
   0   3 -19  108.83    6.23
   0   3 -19  105.66    5.92
   0   3 -19  104.88    6.55
   0   3 -18   15.24    1.80
   0   3 -18   13.75    1.74
   0   3 -18   12.20    1.72
   0   3 -18   14.21    2.00
   0   3 -18   12.35    1.54
   0   3 -17  346.27   18.16
   0   3 -17  348.13   18.41
   0   3 -17  327.82   17.23
   0   3 -17  336.82   17.75
   0   3 -16    1.06    0.95
   0   3 -16   -0.20    0.82
   0   3 -16    1.00    0.87
   0   3 -16    1.16    0.76
   0   3 -16    0.25    0.74
   0   3 -15  284.50   15.57
   0   3 -15  298.80   16.46
   0   3 -15  297.14   15.57
   0   3 -15  293.77   16.58
   0   3 -15  302.38   16.15
   0   3 -14  145.54    9.21
   0   3 -14  152.43    8.79
   0   3 -14  155.54    9.31
   0   3 -14  154.46    8.96
   0   3 -14  150.40    9.53
   0   3 -14  148.36    9.61
   0   3 -13    3.09    1.12
   0   3 -13    1.60    0.93
   0   3 -13    3.23    1.00
   0   3 -13    2.31    0.83
   0   3 -13    3.70    1.22
   0   3 -13    2.99    1.01
   0   3 -12   13.48    1.75
   0   3 -12   13.37    2.07
   0   3 -12   12.26    1.69
   0   3 -12   11.30    1.92
   0   3 -12   13.05    1.95
   0   3 -12   14.60    1.74
   0   3 -12   13.04    1.80
   0   3 -11   -0.14    0.56
   0   3 -11    0.54    0.62
   0   3 -11    0.67    0.70
   0   3 -11    0.17    0.51
   0   3 -11    0.46    0.52
   0   3 -11    0.60    0.60
   0   3 -11    0.17    0.58
   0   3 -10  497.73   24.40
   0   3 -10  501.70   24.98
   0   3 -10  469.00   24.48
   0   3  -9   18.75    1.71
   0   3  -8 1583.06   75.18
   0   3  -7  167.21    8.22
   0   3  -7  146.31    7.72
   0   3  -6  101.65    5.42
   0  -3   6   88.80    4.97
   0   3  -6  100.99    5.09
   0  -3   5  895.97   43.31
   0   3  -5  932.98   43.39
   0   3  -4    1.61    0.44
   0  -3   4    2.02    0.47
   0  -3   3  816.03   38.70
   0   3  -3  808.70   38.73
   0  -3   2    2.69    0.56
   0  -3   1  586.90   28.12
   0  -3   0  133.27    6.84
   0  -3  -1  183.21    9.16
   0   3   2 4654.31  218.45
   0  -3  -3   90.75    5.02
   0   3   3  101.16    5.05
   0   3   4   25.19    1.69
   0  -3  -4   25.69    1.71
   0   3   5   18.25    1.30
   0  -3  -5   15.01    1.23
   0   3   6  114.62    5.96
   0  -3  -6  117.35    6.08
   0  -3  -6  110.62    5.90
   0   3   7  475.55   22.31
   0  -3  -7  450.92   22.19
   0  -3  -7  456.41   22.40
   0  -3  -8   44.52    2.79
   0  -3  -8   38.20    2.53
   0  -3  -8   40.60    2.74
   0  -3  -9   15.77    1.55
   0  -3  -9   15.91    1.53
   0  -3 -10    0.34    0.47
   0  -3 -10    0.35    0.36
   0  -3 -11  238.63   12.18
   0  -3 -11  225.17   12.03
   0  -3 -12  103.67    6.13
   0  -3 -12   95.27    5.91
   0  -3 -12  106.54    6.45
   0  -3 -13   82.15    6.88
   0  -3 -13   82.78    5.49
   0  -3 -13   80.98    5.52
   0  -3 -13   87.56    6.43
   0  -3 -13   88.87    5.31
   0  -3 -13   93.38    5.90
   0  -3 -14  457.41   23.55
   0  -3 -14  473.73   23.67
   0  -3 -14  485.30   25.90
   0  -3 -14  468.00   23.97
   0  -3 -14  453.19   23.11
   0  -3 -15    5.12    1.08
   0  -3 -15    3.31    1.15
   0  -3 -15    5.57    1.88
   0  -3 -16   88.51    7.61
   0  -3 -16   82.36    5.83
   0  -3 -16   77.35    5.43
   0  -3 -17    0.55    0.53
   0  -3 -17    0.91    0.96
   0  -3 -17    2.96    1.75
   0  -3 -17   -0.35    1.47
   0  -3 -18   12.94    2.71
   0  -3 -18   13.86    2.69
   0  -3 -18   11.48    1.98
   0  -3 -18    7.71    1.32
   0  -3 -19  118.03    8.73
   0  -3 -19  116.80    9.01
   0  -3 -19  106.00    6.52
   0  -3 -19  114.91    7.36
   0  -3 -20   35.75    3.94
   0  -3 -20   31.43    2.97
   0  -3 -20   32.86    3.83
   0  -3 -21   67.99    5.25
   0  -3 -21   70.17    5.45
   0  -3 -22    0.54    0.67
   0  -3 -22    1.17    0.62
   0  -3 -23    0.65    0.45
   0   4 -20   28.78    1.99
   0   4 -19    0.18    0.41
   0   4 -19   -0.35    0.47
   0   4 -19    0.35    0.47
   0   4 -18  154.26    9.04
   0   4 -18  159.30    8.93
   0   4 -18  166.53    8.74
   0   4 -17    8.67    1.30
   0   4 -17    6.45    1.18
   0   4 -17    6.12    1.28
   0   4 -17    6.31    1.23
   0   4 -16   63.77    4.68
   0   4 -16   56.26    4.21
   0   4 -16   59.76    4.51
   0   4 -16   61.14    4.58
   0   4 -16   56.37    4.59
   0   4 -16   59.02    4.24
   0   4 -16   58.12    4.35
   0   4 -15   67.46    5.15
   0   4 -15   74.73    5.03
   0   4 -15   65.35    5.02
   0   4 -15   64.36    5.08
   0   4 -15   67.48    4.83
   0   4 -15   70.21    5.32
   0   4 -15   75.59    5.10
   0   4 -14   34.94    3.35
   0   4 -14   38.71    3.37
   0   4 -14   40.93    3.48
   0   4 -14   36.25    3.53
   0   4 -14   36.16    3.52
   0   4 -14   40.86    3.70
   0   4 -13  388.90   20.98
   0   4 -13  412.44   21.02
   0   4 -13  392.17   21.33
   0   4 -13  415.47   21.45
   0   4 -13  387.37   21.23
   0   4 -13  422.84   20.98
   0   4 -12    6.96    1.42
   0   4 -12    5.88    1.36
   0   4 -12    6.95    1.41
   0   4 -12    8.98    1.69
   0   4 -12    6.98    1.46
   0   4 -12    4.98    1.22
   0   4 -11   46.08    3.98
   0   4 -11   46.35    3.87
   0   4 -11   51.19    4.11
   0   4 -11   53.50    3.92
   0   4 -11   45.76    3.74
   0   4 -11   53.31    4.30
   0   4 -10    2.69    0.85
   0   4 -10    0.94    0.70
   0   4 -10    1.56    0.81
   0   4 -10   -0.13    0.59
   0   4 -10    0.47    0.67
   0   4  -9  132.98    7.75
   0   4  -9  138.98    7.52
   0   4  -9  133.55    7.81
   0   4  -8  120.88    6.77
   0  -4   7    3.78    0.63
   0   4  -7    2.99    0.66
   0   4  -6  544.58   25.36
   0  -4   6  502.61   25.25
   0   4  -5   10.83    1.12
   0  -4   5    9.24    1.06
   0  -4   4  127.81    6.83
   0   4  -4  128.71    6.86
   0   4  -4  123.95    6.81
   0   4  -3   41.03    2.73
   0  -4   3   40.23    2.79
   0   4  -3   43.95    2.85
   0   4  -2   16.60    1.37
   0  -4   2   10.21    1.21
   0  -4   1   75.03    4.29
   0   4  -1   75.09    4.32
   0  -4   0   18.56    1.52
   0  -4  -1  473.76   22.96
   0   4   2    0.11    0.35
   0   4   3  639.85   30.70
   0   4   4  385.47   18.58
   0  -4  -4  375.96   18.57
   0  -4  -5   66.19    3.70
   0   4   5   60.13    3.64
   0   4   6  462.48   22.93
   0  -4  -6  482.52   22.92
   0  -4  -7    9.91    1.13
   0   4   7    7.85    0.96
   0  -4  -7    7.84    0.95
   0  -4  -7    8.44    1.07
   0  -4  -8  631.02   31.39
   0  -4  -8  671.28   31.62
   0  -4  -8  629.19   31.77
   0   4   8  683.40   31.56
   0  -4  -9   10.06    1.11
   0  -4  -9   14.10    1.40
   0  -4  -9   11.25    1.37
   0  -4 -10   14.85    1.70
   0  -4 -10   16.17    1.61
   0  -4 -11   98.76    5.81
   0  -4 -11   98.37    6.07
   0  -4 -12   87.54    5.43
   0  -4 -12   80.88    5.36
   0  -4 -12   73.71    6.16
   0  -4 -12   79.35    5.04
   0  -4 -13   66.87    5.96
   0  -4 -13   80.18    5.24
   0  -4 -13   71.74    5.10
   0  -4 -14    3.82    1.12
   0  -4 -14    3.78    1.58
   0  -4 -14    5.03    1.99
   0  -4 -14    5.65    1.33
   0  -4 -15  145.28   10.97
   0  -4 -15  154.14    9.14
   0  -4 -15  133.78   10.00
   0  -4 -15  144.71    8.43
   0  -4 -16    2.49    0.77
   0  -4 -16    1.62    1.08
   0  -4 -16    1.56    1.68
   0  -4 -17    4.41    1.42
   0  -4 -17    5.98    1.06
   0  -4 -18   11.98    1.99
   0  -4 -18   16.87    3.06
   0  -4 -19   29.08    2.95
   0  -4 -19   31.19    4.01
   0  -4 -20   33.83    3.69
   0  -4 -20   31.36    3.65
   0  -4 -21    0.51    0.83
   0  -4 -21    0.87    0.80
   0  -4 -22    8.08    1.27
   0  -4 -22    7.33    1.31
   0  -4 -23    0.08    0.35
   0   5 -19   64.66    3.97
   0   5 -19   60.23    3.67
   0   5 -18    0.92    0.70
   0   5 -18   -0.40    0.69
   0   5 -18    0.22    0.45
   0   5 -18    0.56    0.45
   0   5 -17   36.29    3.03
   0   5 -17   39.88    3.17
   0   5 -17   47.62    3.25
   0   5 -17   38.89    3.01
   0   5 -17   46.31    3.42
   0   5 -16   22.16    2.29
   0   5 -16   15.95    1.92
   0   5 -16   18.97    2.15
   0   5 -16   16.50    1.98
   0   5 -15    2.60    0.92
   0   5 -15    2.50    0.99
   0   5 -15    1.98    1.02
   0   5 -15    1.47    0.92
   0   5 -14  160.71    9.16
   0   5 -14  150.85    9.02
   0   5 -14  138.83    9.14
   0   5 -14  171.69    9.27
   0   5 -14  135.35    8.93
   0   5 -13    4.91    1.20
   0   5 -13    6.05    1.34
   0   5 -13    5.90    1.53
   0   5 -13    6.49    1.44
   0   5 -13    5.79    1.38
   0   5 -13    6.19    1.46
   0   5 -13    4.72    1.22
   0   5 -12  254.91   14.57
   0   5 -12  276.22   14.62
   0   5 -12  272.93   14.79
   0   5 -12  270.81   14.72
   0   5 -12  254.96   14.64
   0   5 -12  279.99   15.21
   0   5 -12  267.39   14.57
   0   5 -12  273.42   14.74
   0   5 -11   11.08    1.70
   0   5 -11    9.56    1.65
   0   5 -11   10.53    1.64
   0   5 -11   13.39    1.83
   0   5 -11   10.08    1.74
   0   5 -11   13.66    1.83
   0   5 -11    9.51    1.88
   0   5 -10   43.90    3.73
   0   5 -10   35.32    3.30
   0   5 -10   43.67    3.45
   0   5 -10   39.69    3.40
   0   5 -10   37.37    3.23
   0   5 -10   41.71    3.41
   0   5  -9  172.46    9.94
   0   5  -9  151.67    9.32
   0   5  -9  167.15    9.31
   0   5  -9  161.32    9.39
   0   5  -9  162.59    9.43
   0   5  -9  173.23    9.45
   0   5  -8   47.73    3.52
   0   5  -8   48.98    3.71
   0   5  -8   48.30    3.66
   0   5  -7  276.81   14.21
   0   5  -6    1.27    0.51
   0  -5   6    1.44    0.56
   0   5  -5  164.43    9.20
   0  -5   5  177.67    9.25
   0   5  -4   12.00    1.28
   0   5  -4    8.90    1.29
   0  -5   4   12.42    1.45
   0   5  -3   54.79    3.48
   0  -5   3   49.53    3.52
   0   5  -3   53.50    3.58
   0   5  -2   16.84    1.65
   0  -5   2   16.89    1.63
   0  -5   1    9.56    1.17
   0   5  -1    7.82    1.06
   0  -5   0  389.00   19.23
   0  -5  -1    7.90    1.03
   0   5   2  755.54   36.04
   0  -5  -2  742.36   36.06
   0   5   3  139.17    7.45
   0  -5  -4    0.51    0.50
   0   5   4    0.22    0.42
   0   5   5    9.81    1.14
   0  -5  -5   11.88    1.23
   0   5   6   66.89    4.15
   0  -5  -6   71.29    4.19
   0  -5  -7  365.25   18.29
   0   5   7  373.56   18.38
   0   5   8    0.43    0.39
   0  -5  -8    0.31    0.37
   0  -5  -9   33.29    2.45
   0  -5  -9   30.90    2.44
   0  -5  -9   38.85    2.76
   0  -5 -10   78.32    4.98
   0  -5 -10  103.00    5.61
   0  -5 -11    4.07    0.98
   0  -5 -12  141.35    8.31
   0  -5 -12  150.43    8.54
   0  -5 -13   46.08    3.57
   0  -5 -13   43.18    3.55
   0  -5 -13   38.08    4.21
   0  -5 -14    2.07    1.32
   0  -5 -14   -0.31    0.85
   0  -5 -15    0.33    1.33
   0  -5 -15    1.60    1.23
   0  -5 -15    0.80    0.91
   0  -5 -16   -0.49    0.79
   0  -5 -16    1.69    1.46
   0  -5 -16    2.34    1.26
   0  -5 -17   55.50    5.71
   0  -5 -17   53.37    4.34
   0  -5 -18   12.73    2.60
   0  -5 -19   12.13    2.33
   0  -5 -20    7.46    1.63
   0  -5 -21    0.94    0.74
   0  -5 -22    5.42    0.98
   0   6 -19    3.51    0.73
   0   6 -19    3.23    0.63
   0   6 -18   48.59    3.37
   0   6 -17   24.21    2.30
   0   6 -17   20.32    1.88
   0   6 -17   20.24    1.92
   0   6 -16    0.34    0.72
   0   6 -16    0.13    0.78
   0   6 -16   -0.25    0.55
   0   6 -15   34.35    3.06
   0   6 -15   26.62    2.53
   0   6 -15   37.41    3.11
   0   6 -15   37.34    3.15
   0   6 -15   34.20    3.01
   0   6 -14    0.62    0.54
   0   6 -14    0.15    0.86
   0   6 -14    0.30    0.72
   0   6 -14    0.35    0.75
   0   6 -14    1.45    0.90
   0   6 -13  137.37    8.37
   0   6 -13  138.39    8.22
   0   6 -13  113.53    7.69
   0   6 -13  140.98    8.18
   0   6 -13  136.76    8.52
   0   6 -12    2.27    1.14
   0   6 -12    3.44    1.15
   0   6 -12    3.81    1.22
   0   6 -12    4.14    1.02
   0   6 -12    4.99    1.45
   0   6 -12    2.26    0.96
   0   6 -11    7.54    1.37
   0   6 -11    8.61    1.68
   0   6 -11    9.61    1.57
   0   6 -11    9.40    1.88
   0   6 -11   10.71    1.75
   0   6 -10    2.80    1.10
   0   6 -10    1.99    0.95
   0   6 -10    2.45    0.88
   0   6 -10    1.48    0.92
   0   6 -10    1.66    0.71
   0   6  -9   26.42    2.35
   0   6  -9   17.38    2.28
   0   6  -9   19.51    2.11
   0   6  -9   18.79    2.50
   0   6  -9   20.27    2.14
   0   6  -8  276.82   13.65
   0   6  -8  237.93   13.54
   0   6  -8  258.68   13.63
   0   6  -8  257.04   14.06
   0   6  -7    0.41    0.72
   0   6  -7    0.97    0.54
   0   6  -7    1.72    0.71
   0   6  -7    1.07    0.58
   0  -6   6  461.07   23.74
   0   6  -6  486.90   23.90
   0   6  -5   21.45    2.24
   0  -6   5   20.90    2.18
   0   6  -4   28.73    2.41
   0   6  -4   29.90    2.67
   0  -6   4   29.27    2.68
   0   6  -3  323.92   16.48
   0   6  -3  321.01   16.66
   0  -6   3  323.40   16.63
   0   6  -2    7.04    1.17
   0  -6   2    7.63    1.19
   0   6  -2   10.74    1.34
   0  -6   1    0.49    0.53
   0   6  -1    1.58    0.59
   0  -6   0   31.92    2.55
   0   6   1  215.43   11.53
   0  -6  -1  227.31   11.60
   0  -6  -2  139.42    7.70
   0   6   3   20.24    1.86
   0  -6  -4  755.55   36.04
   0   6   4  730.36   36.00
   0  -6  -5  125.73    7.06
   0   6   5  124.07    7.04
   0   6   6    1.07    0.53
   0  -6  -6    1.03    0.53
   0   6   7    0.61    0.45
   0  -6  -7    1.05    0.54
   0   6   8   11.70    1.45
   0  -6  -8   11.48    1.38
   0   6   9  100.83    5.97
   0  -6  -9   91.27    5.74
   0  -6  -9  100.95    5.81
   0  -6 -10   73.46    4.89
   0  -6 -10   78.51    4.90
   0   6  11  295.85   16.13
   0   6  12   26.75    2.92
   0  -6 -12   24.81    2.33
   0   6  13   25.80    3.00
   0  -6 -14    7.55    1.87
   0  -6 -15  106.89    8.27
   0  -6 -15   92.04    7.27
   0  -6 -16   50.99    5.37
   0  -6 -16   46.65    4.67
   0  -6 -17    5.62    1.49
   0  -6 -17    7.24    2.01
   0  -6 -18   64.04    5.71
   0  -6 -18   75.88    6.23
   0  -6 -19    9.89    1.95
   0  -6 -19   12.34    2.18
   0  -6 -20    0.95    0.87
   0  -6 -21    9.05    1.49
   0  -6 -21    7.37    1.47
   0  -6 -22    7.67    1.14
   0  -6 -22    9.90    1.33
   0   7 -18   10.04    1.09
   0   7 -17    1.48    0.60
   0   7 -17    0.58    0.52
   0   7 -17    1.47    0.62
   0   7 -16   52.63    3.62
   0   7 -16   58.72    3.79
   0   7 -16   50.63    3.55
   0   7 -16   49.68    3.56
   0   7 -15    6.78    1.20
   0   7 -15    8.14    1.39
   0   7 -15    5.28    1.08
   0   7 -14  121.09    7.46
   0   7 -14  123.43    7.19
   0   7 -14  111.62    7.36
   0   7 -14  124.36    7.55
   0   7 -13   19.46    2.45
   0   7 -13   22.01    2.30
   0   7 -13   22.14    2.62
   0   7 -13   22.63    2.55
   0   7 -12    7.72    1.62
   0   7 -12    6.22    1.33
   0   7 -12    7.64    1.63
   0   7 -12    6.61    1.43
   0   7 -11  285.87   15.98
   0   7 -11  302.78   15.03
   0   7 -11  254.72   15.48
   0   7 -11  280.69   15.41
   0   7 -10    0.50    0.72
   0   7 -10    0.43    0.76
   0   7 -10    1.97    1.10
   0   7  -9   57.11    4.46
   0   7  -9   60.68    4.19
   0   7  -9   57.20    4.98
   0   7  -8    4.32    1.43
   0   7  -8    4.71    1.22
   0   7  -8    5.57    1.09
   0   7  -7  303.85   15.06
   0   7  -7  312.70   15.54
   0  -7   6    9.49    1.62
   0  -7   6   12.07    1.47
   0   7  -6   10.59    1.52
   0   7  -5    0.89    0.66
   0  -7   5    1.37    0.85
   0  -7   5    0.33    0.71
   0  -7   5   -0.11    0.47
   0   7  -5   -0.18    0.70
   0   7  -5    0.33    0.48
   0  -7   4  253.29   14.01
   0   7  -4  262.45   14.17
   0   7  -3    7.84    1.24
   0  -7   3    7.21    1.35
   0   7  -3    6.36    1.30
   0  -7   2   35.22    3.13
   0   7  -2   41.31    3.31
   0   7  -2   44.31    3.37
   0  -7   1   17.32    1.90
   0   7  -1   14.40    1.78
   0  -7   0    0.95    0.61
   0  -7  -1   67.85    4.57
   0  -7  -2  167.99    9.34
   0   7   3  100.29    6.13
   0   7   4   45.08    3.43
   0  -7  -5  204.17   10.76
   0   7   5  190.09   10.70
   0  -7  -6   57.09    3.91
   0   7   6   51.07    3.86
   0   7   7   48.16    3.45
   0  -7  -7   35.69    3.07
   0   7   8   48.64    3.79
   0  -7  -8   52.33    3.75
   0  -7  -9   58.13    4.32
   0  -7  -9   71.19    4.54
   0  -7 -10   21.80    2.15
   0  -7 -10   19.06    2.07
   0   7  10   22.03    2.49
   0   7  11   26.24    2.87
   0   7  12   48.95    4.31
   0   7  13    1.84    1.09
   0  -7 -14  146.62    9.85
   0   7  14  160.48    9.85
   0  -7 -15   16.11    2.50
   0  -7 -16    8.65    2.12
   0  -7 -16    6.79    1.66
   0  -7 -17   17.88    2.50
   0  -7 -17   18.98    2.87
   0  -7 -18    6.55    1.55
   0  -7 -18    8.06    1.54
   0  -7 -18    6.41    1.75
   0  -7 -19    7.57    1.61
   0  -7 -19    5.73    1.58
   0  -7 -20    2.96    1.09
   0  -7 -20    1.93    0.93
   0  -7 -21   17.32    1.98
   0  -7 -21   17.69    1.97
   0  -7 -22    4.83    0.82
   0   8 -17   25.50    1.79
   0   8 -16    0.14    0.48
   0   8 -16    0.05    0.39
   0   8 -16    0.88    0.52
   0   8 -15  151.39    7.92
   0   8 -15  136.94    7.64
   0   8 -15  140.60    8.06
   0   8 -14   10.51    1.59
   0   8 -14    8.77    1.40
   0   8 -14    8.39    1.19
   0   8 -13   29.98    2.56
   0   8 -13   32.75    2.84
   0   8 -13   32.38    3.04
   0   8 -12  129.73    7.70
   0   8 -12  129.12    8.18
   0   8 -12  124.36    7.31
   0   8 -11    8.58    1.77
   0   8 -11    6.10    1.18
   0   8 -11   10.58    1.80
   0   8 -11    7.74    1.41
   0   8 -10   29.43    2.76
   0   8 -10   24.32    2.37
   0   8 -10   25.47    3.05
   0   8  -9    0.54    0.63
   0   8  -9    0.42    0.80
   0   8  -9   -0.24    0.84
   0   8  -8    4.30    1.50
   0   8  -8    3.00    1.02
   0   8  -8    4.30    0.95
   0   8  -7   61.72    4.45
   0   8  -6   62.65    4.22
   0   8  -6   50.01    4.70
   0   8  -6   55.94    4.91
   0  -8   6   57.31    4.19
   0  -8   5  216.12   12.87
   0   8  -5  209.82   12.83
   0  -8   5  213.74   12.00
   0   8  -5  244.53   11.92
   0  -8   5  205.04   12.60
   0  -8   4   26.78    2.97
   0  -8   4   26.17    2.63
   0   8  -4   35.11    3.31
   0   8  -4   29.89    2.48
   0  -8   4   30.14    3.12
   0   8  -3   31.76    3.14
   0  -8   3   29.33    2.74
   0  -8   3   33.49    3.13
   0   8  -3   28.59    3.02
   0  -8   2    0.13    0.59
   0   8  -2   -0.16    0.57
   0   8  -2   -0.16    0.55
   0  -8   2    0.46    0.67
   0   8  -1    0.16    0.53
   0   8  -1    0.31    0.64
   0  -8   1    0.89    0.60
   0  -8   1    0.99    0.65
   0  -8   0    9.59    1.52
   0   8   0    8.97    1.52
   0   8   0   10.26    1.58
   0  -8   0    9.47    1.37
   0  -8  -1    1.98    0.81
   0  -8  -1    3.29    0.87
   0  -8  -2  150.88    8.80
   0  -8  -2  152.62    8.56
   0   8   2  147.11    8.89
   0  -8  -3   14.14    1.70
   0   8   3   12.65    1.84
   0  -8  -3   16.33    1.95
   0   8   3   11.37    1.72
   0   8   4    1.45    0.78
   0   8   4    1.04    0.70
   0  -8  -4    2.53    0.80
   0  -8  -5    2.24    0.88
   0  -8  -5    2.72    0.85
   0   8   5    3.14    0.96
   0   8   5    1.76    0.76
   0  -8  -6   99.89    6.42
   0   8   6   94.37    6.43
   0  -8  -6  113.49    6.68
   0   8   6   93.82    6.41
   0  -8  -7   14.81    1.89
   0   8   7   14.22    1.97
   0   8   7   18.28    2.18
   0  -8  -8   25.06    2.61
   0   8   8   30.98    2.94
   0  -8  -8   24.42    2.56
   0   8   8   29.94    2.90
   0  -8  -9   66.70    4.66
   0   8   9   64.21    4.76
   0  -8  -9   55.02    4.38
   0   8  10    4.34    1.23
   0  -8 -10    4.71    1.10
   0  -8 -10    4.72    1.13
   0  -8 -11    7.09    1.30
   0   8  11    6.61    1.54
   0   8  12    0.41    0.79
   0   8  13   22.25    2.78
   0  -8 -14   25.06    2.99
   0   8  14   18.63    2.64
   0  -8 -15   94.97    6.82
   0   8  15   88.36    6.52
   0  -8 -16    7.41    1.81
   0  -8 -16    4.87    1.40
   0  -8 -17    7.20    1.58
   0  -8 -17    8.62    1.85
   0  -8 -18    5.63    1.48
   0  -8 -18    6.22    1.21
   0  -8 -18    5.64    1.40
   0  -8 -19    7.93    1.48
   0  -8 -19    7.56    1.60
   0  -8 -20   49.95    3.96
   0  -8 -20   50.22    3.81
   0  -8 -21    1.57    0.62
   0  -8 -21    2.23    0.69
   0   9 -15    1.50    0.48
   0   9 -15    0.63    0.63
   0   9 -14    9.79    1.09
   0   9 -14    5.81    0.78
   0   9 -13   33.52    2.84
   0   9 -13   27.22    2.17
   0   9 -13   36.11    2.53
   0   9 -12    1.73    0.70
   0   9 -12    1.03    0.58
   0   9 -12    1.11    0.75
   0   9 -11   71.83    5.58
   0   9 -11   94.63    6.25
   0   9 -11   92.67    6.40
   0   9 -11   88.11    5.29
   0   9 -11   75.45    4.87
   0   9 -10    0.68    0.72
   0   9 -10    0.22    1.03
   0   9 -10   -0.41    0.95
   0   9 -10    0.09    0.58
   0   9 -10    0.44    1.36
   0   9  -9   54.63    5.03
   0   9  -9   57.05    4.07
   0   9  -8    2.25    0.85
   0   9  -8    1.08    1.24
   0   9  -7    0.58    0.64
   0  -9   6  329.52   17.71
   0   9  -6  323.86   18.95
   0   9  -6  370.25   17.75
   0  -9   5   66.62    5.90
   0   9  -5   85.92    5.16
   0   9  -5   69.86    6.11
   0  -9   5   81.98    5.36
   0   9  -5   93.06    6.48
   0  -9   4   28.44    2.71
   0   9  -4   32.31    3.38
   0  -9   4   28.21    3.23
   0  -9   4   30.78    3.35
   0   9  -3    1.38    0.88
   0  -9   3    0.27    0.60
   0  -9   3    2.10    1.09
   0  -9   3    2.56    1.02
   0  -9   2   14.65    2.07
   0  -9   2   13.24    2.09
   0   9  -2   15.13    2.27
   0   9  -2   12.65    2.08
   0  -9   2   17.05    1.93
   0  -9   1   10.00    1.71
   0  -9   1   12.04    1.85
   0  -9   1    9.29    1.45
   0   9  -1    9.64    1.80
   0   9  -1   11.51    1.91
   0  -9   0   63.26    4.73
   0   9   0   59.89    4.77
   0   9   0   49.01    4.55
   0  -9   0   64.10    4.40
   0  -9  -1   34.51    3.21
   0  -9  -1   28.41    2.73
   0  -9  -2   20.07    2.42
   0   9   2   18.13    2.36
   0  -9  -2   20.02    2.18
   0  -9  -3   48.32    3.91
   0  -9  -3   39.30    3.45
   0   9   3   41.89    3.80
   0   9   3   42.48    3.82
   0   9   4    5.66    1.34
   0  -9  -4    4.23    1.14
   0   9   4    4.57    1.19
   0   9   5   38.97    3.68
   0   9   5   42.94    3.75
   0  -9  -5   42.91    3.67
   0  -9  -5   35.86    3.45
   0   9   6    3.41    1.14
   0  -9  -6    3.12    1.07
   0  -9  -6    3.70    1.10
   0   9   6    1.97    0.97
   0   9   7  370.41   19.67
   0  -9  -7  370.85   19.50
   0   9   7  379.03   19.70
   0  -9  -7  355.31   19.38
   0   9   8  119.88    7.69
   0  -9  -8  110.17    7.41
   0  -9  -8  118.33    7.57
   0  -9  -9    3.40    1.08
   0   9   9    3.31    1.14
   0  -9  -9    5.31    1.25
   0   9  10   42.67    3.94
   0  -9 -10   46.31    3.94
   0  -9 -10   42.33    3.78
   0   9  10   50.38    4.39
   0   9  10   47.65    4.22
   0  -9 -11    1.95    0.92
   0   9  11    4.95    1.46
   0   9  12    1.69    0.95
   0   9  13   36.79    3.76
   0   9  14  118.47    8.00
   0  -9 -15    3.82    1.39
   0   9  15    2.95    1.14
   0  -9 -16    3.11    1.37
   0  -9 -16    3.86    1.26
   0  -9 -17   37.23    3.81
   0  -9 -17   35.65    3.32
   0  -9 -18    2.52    0.91
   0  -9 -18    1.59    0.93
   0  -9 -18    0.83    0.67
   0  -9 -19    6.87    1.37
   0  -9 -19    5.22    1.05
   0  -9 -20    6.68    1.11
   0  -9 -20    4.48    0.87
   0  10 -13    6.40    0.76
   0  10 -13    7.26    1.10
   0  10 -12   33.31    2.35
   0  10 -12   40.46    3.09
   0  10 -11    1.01    0.50
   0  10 -11    0.84    0.82
   0  10 -11    0.85    0.74
   0  10 -10    0.18    0.73
   0  10 -10   -0.16    0.93
   0  10 -10    0.57    0.93
   0  10  -9   70.43    5.75
   0  10  -9   57.98    5.37
   0  10  -9   68.09    4.26
   0  10  -9   70.94    5.29
   0  10  -8  103.07    6.67
   0  10  -8   86.87    7.14
   0  10  -8   86.99    5.45
   0  10  -7   17.39    3.10
   0  10  -7   23.34    2.09
   0 -10   6   37.51    3.05
   0  10  -6   39.91    3.97
   0 -10   5    4.82    1.37
   0 -10   5    2.64    0.87
   0  10  -5    3.44    1.21
   0  10  -4    0.86    0.86
   0 -10   4    0.13    0.59
   0  10  -4    0.47    0.78
   0 -10   4    1.92    1.09
   0 -10   3   25.54    3.01
   0  10  -3   27.67    3.13
   0 -10   3   18.69    2.70
   0  10  -3   21.32    2.96
   0 -10   3   26.83    2.53
   0 -10   2   27.58    3.03
   0  10  -2   20.66    2.74
   0 -10   2   18.50    2.62
   0 -10   2   21.03    2.30
   0 -10   1   32.73    2.98
   0  10  -1   35.74    3.60
   0 -10   1   29.69    3.23
   0 -10   1   29.61    3.29
   0 -10   0   59.52    4.93
   0 -10   0   64.81    4.67
   0  10   0   59.77    5.19
   0 -10   0   67.09    5.17
   0 -10  -1    3.21    1.20
   0 -10  -1    4.64    1.32
   0 -10  -1    3.17    1.08
   0 -10  -2    2.62    1.11
   0 -10  -2    2.11    1.01
   0 -10  -2    3.61    1.09
   0 -10  -3    8.17    1.64
   0 -10  -3    7.89    1.54
   0 -10  -3    5.93    1.53
   0  10   3    8.54    1.70
   0 -10  -4   30.72    3.08
   0  10   4   28.06    3.20
   0 -10  -5    1.47    0.89
   0 -10  -5    1.31    0.91
   0  10   5   -0.41    0.91
   0 -10  -6  185.00   10.70
   0 -10  -6  154.74   10.30
   0  10   6  186.87   10.85
   0 -10  -7   19.34    2.61
   0 -10  -7   23.71    2.87
   0  10   7   27.84    3.08
   0 -10  -8   11.33    1.98
   0  10   8   11.93    2.07
   0 -10  -8   12.97    2.01
   0  10   9   38.14    3.92
   0 -10  -9   42.97    3.86
   0  10   9   47.64    4.10
   0 -10 -10    5.31    1.35
   0  10  10    4.74    1.48
   0  10  10    8.28    1.61
   0  10  11   43.61    4.05
   0 -10 -11   36.18    3.53
   0  10  11   37.55    3.59
   0  10  12   10.08    1.97
   0 -10 -12    9.72    1.65
   0  10  13   42.81    4.05
   0 -10 -14   15.74    2.40
   0  10  14   18.89    2.44
   0 -10 -15    0.36    0.78
   0  10  15    0.17    0.67
   0  10  16   68.57    5.18
   0 -10 -16   85.14    6.07
   0 -10 -16   85.04    5.68
   0 -10 -17    3.21    1.16
   0 -10 -17    3.34    0.95
   0 -10 -17    3.18    0.99
   0 -10 -18   15.72    1.70
   0 -10 -18   25.51    2.50
   0 -10 -19    2.61    0.81
   0  11 -12    1.07    0.44
   0  11 -11    1.63    0.69
   0  11 -10   30.65    2.55
   0  11  -9    0.74    0.63
   0  11  -9    1.33    0.96
   0  11  -9    1.74    0.90
   0  11  -8    4.57    1.32
   0  11  -8    4.80    1.59
   0  11  -8    5.60    1.24
   0  11  -7    0.57    0.82
   0  11  -7    0.26    1.16
   0  11  -6    2.31    1.44
   0  11  -5    8.43    1.65
   0 -11   5    7.56    1.23
   0  11  -4    7.36    1.63
   0 -11   4    5.18    1.44
   0 -11   4    6.82    1.22
   0  11  -3   13.25    2.16
   0 -11   3   10.23    1.58
   0 -11   3   11.42    2.03
   0  11  -2   90.92    6.57
   0 -11   2   85.11    5.69
   0 -11   2   81.02    6.30
   0 -11   1    1.96    1.10
   0 -11   1    0.83    0.99
   0  11  -1    3.23    1.25
   0 -11   1    3.67    1.05
   0  11   0   12.69    2.19
   0 -11   0   11.63    2.09
   0  11   0   14.99    2.36
   0 -11   0   10.31    1.75
   0 -11   0    8.98    1.95
   0 -11  -1    1.25    0.93
   0 -11  -1    0.16    0.68
   0 -11  -1    0.58    0.72
   0  11   1    1.52    1.06
   0  11   1    1.18    0.83
   0 -11  -2    2.91    1.17
   0 -11  -2    4.16    1.20
   0 -11  -2    4.93    1.29
   0 -11  -3   30.94    3.22
   0 -11  -3   26.56    3.28
   0  11   3   36.67    3.70
   0 -11  -3   26.10    3.16
   0  11   4   30.51    3.41
   0 -11  -5   26.69    3.12
   0  11   5   28.43    3.35
   0  11   5   30.27    3.36
   0  11   6   12.69    2.11
   0 -11  -6    8.52    1.73
   0 -11  -6    9.91    1.93
   0  11   6    7.50    1.79
   0  11   7   11.88    2.03
   0  11   7    7.67    1.81
   0 -11  -7    7.55    1.76
   0 -11  -7    5.97    1.52
   0  11   8   17.42    2.51
   0 -11  -8   17.63    2.45
   0 -11  -9   11.82    2.01
   0  11   9   10.82    1.89
   0  11   9   10.39    1.96
   0 -11 -10   69.21    5.73
   0  11  10   81.65    5.97
   0  11  10   85.50    6.18
   0 -11 -11    3.17    1.03
   0  11  11    4.61    1.22
   0  11  11    4.01    1.35
   0  11  12   58.98    4.89
   0  11  13    1.46    0.95
   0 -11 -14    0.17    0.82
   0  11  14    1.14    0.83
   0 -11 -15   25.96    2.69
   0  11  15   23.40    2.52
   0 -11 -16    3.07    0.92
   0  11  16    2.31    0.71
   0 -11 -16    1.23    0.88
   0 -11 -17   57.96    4.09
   0 -11 -17   45.43    3.43
   0 -11 -18    7.65    1.19
   0  12  -9    7.01    0.97
   0  12  -8   12.04    1.34
   0  12  -8    7.57    1.39
   0  12  -7    0.74    0.74
   0  12  -7    0.88    0.62
   0  12  -6    4.81    1.04
   0  12  -6    1.47    1.09
   0  12  -5    4.21    1.39
   0  12  -5    2.86    0.92
   0  12  -4   72.38    5.86
   0  12  -4   59.95    4.79
   0  12  -4   61.16    4.34
   0  12  -3   39.86    3.64
   0  12  -3   63.87    4.73
   0 -12   3   67.30    4.14
   0 -12   3   49.84    4.42
   0  12  -2    2.45    1.16
   0 -12   2    1.29    0.88
   0 -12   2    3.30    0.96
   0  12  -1   34.34    3.55
   0 -12   1   29.17    3.27
   0 -12   1   32.18    3.00
   0  12   0    2.44    1.07
   0 -12   0   -0.39    0.93
   0 -12   0    1.19    0.76
   0 -12  -1    0.60    0.81
   0  12   1    0.83    0.95
   0 -12  -2   16.16    2.35
   0  12   3    0.21    0.71
   0 -12  -3   -0.20    0.85
   0  12   4    9.48    1.98
   0 -12  -4   12.82    2.09
   0  12   5    7.74    1.81
   0 -12  -6   16.38    2.49
   0  12   6   21.58    2.74
   0  12   7   22.82    2.64
   0 -12  -7   18.18    2.56
   0  12   7   21.01    2.71
   0 -12  -8    1.32    0.81
   0  12   8   -0.58    0.98
   0  12   8    1.65    1.02
   0  12   9   40.37    3.77
   0  12   9   42.97    3.81
   0 -12  -9   33.24    3.60
   0  12  10    0.50    0.80
   0 -12 -10    0.66    0.71
   0  12  10    1.63    0.92
   0  12  11   55.76    4.42
   0  12  11   50.79    4.00
   0 -12 -11   45.53    3.92
   0  12  12    4.25    1.21
   0 -12 -13    6.56    1.38
   0  12  13    7.34    1.42
   0  12  14   58.53    4.39
   0 -12 -14   66.66    4.61
   0  12  15    3.22    0.81
   0 -12 -15    2.80    0.87
   0 -12 -15    3.63    1.10
   0 -12 -16   10.11    1.33
   0 -12 -16   12.96    1.63
   0 -12 -17    6.91    1.10
   0  13  -6    7.23    1.24
   0  13  -5    1.37    0.44
   0  13  -5    1.39    0.71
   0  13  -4    2.12    0.94
   0  13  -3   13.74    2.07
   0  13  -3   12.88    1.74
   0 -13   2    2.19    0.84
   0  13  -2    1.68    0.80
   0  13  -1   26.93    2.79
   0 -13   1   18.89    2.42
   0  13   0    0.50    0.78
   0 -13   0    0.32    0.74
   0  13   0    0.21    0.44
   0  13   1   26.46    2.51
   0 -13  -1   25.16    2.89
   0  13   1   31.26    3.16
   0 -13  -2    7.93    1.57
   0  13   2    8.38    1.41
   0  13   3   30.79    3.18
   0  13   3   27.35    2.67
   0 -13  -3   27.29    3.03
   0  13   4    2.34    1.05
   0  13   4    0.57    0.69
   0 -13  -4    0.70    0.78
   0  13   5    2.05    0.91
   0  13   5    0.18    0.77
   0 -13  -6   38.17    3.87
   0  13   6   52.36    4.24
   0 -13  -7    0.99    0.85
   0  13   7    1.67    0.95
   0  13   8   95.24    6.08
   0  13   8   92.16    6.12
   0 -13  -9    0.14    0.60
   0  13   9    1.49    0.85
   0  13   9    0.57    0.66
   0  13  10    5.28    1.11
   0 -13 -10    2.88    0.98
   0  13  10    4.87    1.21
   0  13  11   39.83    3.41
   0  13  12    4.77    1.07
   0 -13 -12    3.24    0.98
   0  13  13   53.46    3.97
   0 -13 -13   63.67    4.20
   0 -13 -14    0.16    0.44
   0 -13 -14    0.19    0.48
   0  13  14    0.28    0.44
   0 -13 -15    7.73    1.20
   0  14  -3    0.95    0.51
   0  14  -2    2.44    0.87
   0  14  -1    0.36    0.48
   0  14   0   27.99    3.26
   0  14   0   64.39    3.86
   0  14   1    0.71    0.59
   0 -14  -2   15.64    2.00
   0  14   2   14.14    1.57
   0 -14  -3    3.54    1.04
   0  14   3    4.54    0.98
   0  14   4    2.61    0.89
   0  14   4    1.90    0.69
   0 -14  -4    0.77    0.69
   0  14   5    5.66    1.19
   0  14   5    5.97    1.10
   0  14   6   11.03    1.60
   0 -14  -6    7.91    1.49
   0  14   6   13.31    1.61
   0  14   7   47.41    3.65
   0  14   8   10.46    1.47
   0  14   9    7.19    1.19
   0  14   9   10.76    1.43
   0  14  10    9.93    1.37
   0  14  11    0.32    0.43
   0 -14 -11    1.11    0.54
   1 -14  -8   29.77    2.51
  -1  14   8   34.84    2.52
  -1  14   7    8.60    1.13
   1 -14  -7    8.12    1.17
  -1  14   6   -0.17    0.50
  -1  14   5    7.33    1.03
  -1  14   5    5.00    1.02
  -1  14   4   -0.15    0.47
  -1  14   4   -0.09    0.44
  -1  14   3    8.50    1.22
  -1  14   3    6.71    1.00
  -1  14   2    5.17    0.85
  -1  14   1   21.21    2.05
  -1  14   0    5.49    0.94
   1 -13 -13    0.75    0.48
   1 -13 -13    0.97    0.47
   1 -13 -12    0.70    0.51
  -1  13  12    0.42    0.41
   1 -13 -12    0.18    0.52
  -1  13  11    6.27    1.13
   1 -13 -11    7.07    1.23
  -1  13  10    5.03    1.03
  -1  13  10    3.76    0.75
   1 -13 -10    3.20    0.94
  -1  13   9   34.98    2.96
  -1  13   9   41.37    3.20
  -1  13   8   19.84    2.07
   1 -13  -8   13.66    1.92
  -1  13   8   18.53    2.07
   1 -13  -7    9.33    1.70
  -1  13   7   12.07    1.77
  -1  13   6    8.20    1.38
   1 -13  -6    5.25    1.23
  -1  13   5   -0.15    0.70
   1 -13  -4   39.74    3.92
  -1  13   4   46.82    3.60
   1 -13  -3   16.23    2.24
  -1  13   3   14.86    2.07
  -1  13   3   17.97    1.96
   1 -13  -2   17.99    2.35
  -1  13   2   20.27    2.06
  -1  13   1    3.35    0.87
  -1  13   1    3.45    1.12
   1 -13  -1    1.80    0.91
   1 -13   0    4.11    1.12
  -1  13   0    3.68    1.11
  -1  13   0    4.12    0.95
  -1  13  -1   26.00    2.52
   1 -13   1   20.93    2.49
  -1  13  -2    0.11    0.59
  -1  13  -2    0.14    0.73
  -1  13  -3   11.03    1.71
  -1  13  -4    0.57    0.47
   1 -12 -15    7.59    1.08
   1 -12 -14    0.21    0.50
   1 -12 -13    1.13    0.75
  -1  12  13    0.20    0.46
  -1  12  12    1.85    0.76
   1 -12 -12    1.56    0.85
  -1  12  11    1.81    0.93
  -1  12  10   43.06    3.62
   1 -12 -10   47.44    3.83
  -1  12  10   47.92    3.92
  -1  12   9    0.63    0.82
   1 -12  -9    0.64    0.65
  -1  12   9    1.05    0.77
  -1  12   8   21.90    2.51
  -1  12   8   21.22    2.44
   1 -12  -8   14.24    2.25
  -1  12   7    3.14    1.15
   1 -12  -7    2.80    1.19
  -1  12   7    4.16    1.24
   1 -12  -6    3.68    1.25
  -1  12   6    2.36    1.02
  -1  12   5   65.52    5.24
  -1  12   4    0.57    0.94
   1 -12  -3   76.07    5.87
  -1  12   3   75.32    5.76
   1 -12  -2    9.81    1.87
   1 -12  -1   11.46    2.06
   1 -12  -1   14.60    2.02
  -1  12   0   61.32    4.87
   1 -12   0   54.15    4.85
   1 -12   0   59.20    4.44
   1 -12   1    0.78    0.66
   1 -12   1    0.19    0.69
  -1  12  -1    0.17    0.80
   1 -12   2   94.01    6.92
   1 -12   2  108.99    6.41
  -1  12  -2  100.32    6.80
   1 -12   3    0.43    0.55
  -1  12  -3    0.15    0.71
   1 -12   3    0.32    0.69
  -1  12  -4    0.55    0.68
   1 -12   4    0.48    0.53
  -1  12  -4   -0.13    0.57
  -1  12  -5    3.30    0.89
  -1  12  -5    2.89    1.14
  -1  12  -6    4.68    1.28
  -1  12  -6    5.33    1.07
  -1  12  -7   31.13    2.49
  -1  12  -8   -0.06    0.38
   1 -11 -17    0.63    0.49
   1 -11 -16   11.00    1.63
   1 -11 -16   11.27    1.51
   1 -11 -15   19.22    2.16
  -1  11  14    0.68    0.55
   1 -11 -14    1.36    0.88
   1 -11 -13   98.40    6.57
  -1  11  13   91.96    6.15
  -1  11  12    2.88    1.09
   1 -11 -11   10.94    1.76
  -1  11  11   14.64    2.09
  -1  11  10    8.96    1.69
  -1  11  10   10.79    1.77
   1 -11 -10    6.44    1.51
   1 -11  -9   31.22    3.31
  -1  11   9   30.32    3.22
  -1  11   9   30.71    3.18
  -1  11   8   66.16    5.12
   1 -11  -8   56.32    4.99
  -1  11   7    2.37    1.15
   1 -11  -7    1.48    0.92
  -1  11   6  176.27   10.60
   1 -11  -6  165.75   10.66
   1 -11  -5    4.62    1.51
  -1  11   5    4.52    1.35
  -1  11   4    4.76    1.44
   1 -11  -4    5.72    1.50
  -1  11   3   15.15    2.31
   1 -11  -3   10.45    2.09
   1 -11  -3   14.43    2.11
   1 -11  -2    8.01    1.81
   1 -11  -2   12.10    1.87
   1 -11  -1   54.83    5.07
   1 -11  -1   60.03    4.57
   1 -11   0   -0.22    0.89
  -1  11   0    1.43    0.85
   1 -11   1  249.30   15.00
  -1  11  -1  278.01   15.06
   1 -11   1  260.21   14.22
   1 -11   2    2.76    0.94
   1 -11   2    1.71    1.13
  -1  11  -2    2.75    1.20
   1 -11   3   82.13    6.37
   1 -11   3   85.81    5.63
  -1  11  -3   86.54    6.29
   1 -11   4  106.66    6.33
   1 -11   4   87.54    6.98
  -1  11  -4  102.71    6.91
  -1  11  -5    8.07    1.57
   1 -11   5    8.78    1.32
  -1  11  -6   28.57    3.54
   1 -11   6   26.51    2.32
   1 -11   7    2.30    0.61
  -1  11  -7    1.80    1.07
  -1  11  -8   29.47    2.75
  -1  11  -9   24.77    2.31
  -1  11 -10    8.34    1.21
  -1  11 -11   61.34    3.77
   1 -10 -18   10.70    1.49
   1 -10 -17   21.53    2.35
   1 -10 -17   18.65    2.04
   1 -10 -16    7.48    1.37
   1 -10 -16    7.23    1.56
   1 -10 -15    0.17    0.74
   1 -10 -15    0.37    0.85
   1 -10 -14  118.07    7.33
  -1  10  14   94.60    6.59
  -1  10  13    2.53    0.93
   1 -10 -13    1.59    1.00
  -1  10  12  114.36    7.60
   1 -10 -11    2.21    0.97
  -1  10  11    2.29    1.09
   1 -10 -10    6.81    1.51
  -1  10  10    6.71    1.52
  -1  10  10    8.04    1.58
   1 -10  -9   28.86    3.31
  -1  10   9   36.09    3.48
   1 -10  -8    0.22    0.87
   1 -10  -8   -0.21    1.04
  -1  10   8    0.59    0.85
  -1  10   7  220.43   12.60
   1 -10  -7  235.48   12.87
  -1  10   6   41.46    3.97
  -1  10   6   40.00    3.95
   1 -10  -6   43.75    4.24
  -1  10   5   26.32    3.16
   1 -10  -5   31.69    3.22
  -1  10   5   23.65    3.03
   1 -10  -5   27.69    3.27
  -1  10   4   30.56    3.52
   1 -10  -4   37.51    3.55
  -1  10   4   40.28    3.79
  -1  10   3    0.41    0.64
   1 -10  -3   -0.17    0.73
  -1  10   3    0.81    0.84
   1 -10  -3   -1.10    1.04
   1 -10  -2   37.60    3.82
  -1  10   2   36.08    3.67
   1 -10  -2   33.96    3.29
   1 -10  -1    2.21    1.16
   1 -10  -1    3.00    1.02
  -1  10   0  156.87    9.62
   1 -10   0  145.38    8.89
   1 -10   0  173.76   10.01
  -1  10   0  127.36    9.28
  -1  10  -1    8.03    1.66
   1 -10   1    7.41    1.75
  -1  10  -1    6.71    1.61
   1 -10   1    8.71    1.53
   1 -10   2   28.70    2.89
   1 -10   2   28.23    3.59
   1 -10   2   33.59    3.60
  -1  10  -2   30.17    3.35
   1 -10   3   43.90    4.84
   1 -10   3   61.53    5.12
  -1  10  -3   55.77    4.71
   1 -10   3   55.26    4.21
  -1  10  -4   -0.20    0.76
   1 -10   4    1.09    0.64
   1 -10   4    0.23    0.86
  -1  10  -5   13.40    2.09
   1 -10   5   12.94    1.71
   1 -10   5   13.48    2.34
   1 -10   6    0.12    0.51
  -1  10  -6    0.18    0.58
   1 -10   7   72.12    4.98
  -1  10  -7   88.06    4.96
  -1  10  -7   70.99    6.63
  -1  10  -8    0.76    0.57
  -1  10  -8    0.50    0.87
   1 -10   8   -0.09    0.42
  -1  10  -9   13.82    1.98
  -1  10  -9    8.68    1.21
  -1  10 -10  166.91    9.78
  -1  10 -10  173.50    9.31
  -1  10 -11    3.18    0.93
  -1  10 -11    2.21    0.96
  -1  10 -12   89.02    5.01
  -1  10 -12   71.87    4.19
   1  -9 -19    1.56    0.73
   1  -9 -18    3.36    0.90
   1  -9 -18    5.15    1.21
   1  -9 -17   12.95    1.87
   1  -9 -17   13.31    2.03
   1  -9 -16    0.20    0.84
   1  -9 -16   -0.35    0.75
   1  -9 -15   43.17    4.03
   1  -9 -14    9.71    1.87
  -1   9  14    8.28    1.58
  -1   9  13  108.09    7.28
  -1   9  12   43.45    3.99
   1  -9 -11    1.04    0.72
  -1   9  11    1.55    0.99
  -1   9  10   95.75    6.20
   1  -9 -10   87.19    6.17
  -1   9   9    7.47    1.55
   1  -9  -9    5.76    1.50
   1  -9  -9    6.41    1.50
  -1   9   8  453.74   25.14
   1  -9  -8  511.97   25.57
  -1   9   8  500.69   25.30
  -1   9   7    1.66    0.90
  -1   9   7    1.11    0.85
   1  -9  -7    3.59    1.26
   1  -9  -6  105.75    7.10
  -1   9   6   97.90    6.80
  -1   9   6  110.67    7.02
   1  -9  -6   87.58    6.62
   1  -9  -5    0.18    0.77
  -1   9   5   -0.18    0.61
   1  -9  -5    1.39    0.89
  -1   9   5    0.73    0.81
  -1   9   4    8.37    1.71
  -1   9   4   12.27    1.90
   1  -9  -4   12.27    1.81
  -1   9   3  119.67    7.65
   1  -9  -3  123.21    7.38
  -1   9   3  104.20    7.45
   1  -9  -3  114.42    7.82
   1  -9  -2    1.79    1.02
  -1   9   2    1.27    0.93
   1  -9  -2   -0.19    0.73
   1  -9  -2   -0.15    0.62
   1  -9  -1  145.26    9.07
   1  -9  -1  145.35    8.92
   1  -9  -1  131.20    8.27
  -1   9   0    2.19    0.96
   1  -9   0    3.53    1.04
   1  -9   0    1.64    1.05
   1  -9   0    1.90    0.98
  -1   9   0    3.49    1.15
   1  -9   1   57.14    4.79
  -1   9  -1   57.50    4.73
   1  -9   1   66.48    4.63
   1  -9   1   56.32    4.93
  -1   9  -1   57.25    4.78
   1  -9   2   29.00    3.32
  -1   9  -2   28.04    3.08
  -1   9  -2   31.89    3.21
   1  -9   2   30.43    2.90
  -1   9  -3    2.67    0.98
  -1   9  -3    3.80    1.17
   1  -9   3    2.03    1.05
   1  -9   3    3.18    0.99
  -1   9  -4  181.02   10.57
   1  -9   4  179.57   10.04
   1  -9   4  177.10   10.99
   1  -9   4  145.92   10.87
  -1   9  -4  167.43   10.51
  -1   9  -5   14.47    2.15
   1  -9   5   13.84    1.87
   1  -9   5   10.61    2.31
  -1   9  -5   11.99    1.62
   1  -9   5   13.58    2.39
  -1   9  -6   45.33    3.34
   1  -9   6   44.60    4.49
   1  -9   6   39.13    3.44
  -1   9  -6   35.74    3.78
  -1   9  -7    7.69    1.69
  -1   9  -7    7.49    1.29
   1  -9   7    8.86    1.40
   1  -9   8   93.64    6.24
  -1   9  -8   93.22    7.61
   1  -9   9   68.04    4.75
  -1   9  -9   69.15    5.94
  -1   9 -10    5.32    1.05
  -1   9 -11   76.09    5.83
  -1   9 -11   78.94    5.72
  -1   9 -11   70.48    4.70
  -1   9 -12    4.76    0.97
  -1   9 -12    4.69    1.27
  -1   9 -13   26.02    2.58
  -1   9 -14   25.70    1.94
  -1   9 -14   28.72    2.50
  -1   9 -15    1.02    0.51
  -1   9 -15    0.41    0.31
   1  -8 -20    4.16    0.95
   1  -8 -19    0.88    0.62
   1  -8 -19    0.52    0.48
   1  -8 -18   24.63    2.83
   1  -8 -18   24.39    2.48
   1  -8 -18   24.74    2.56
   1  -8 -17    0.62    0.75
   1  -8 -17    1.48    1.13
   1  -8 -17   -0.17    0.79
   1  -8 -16  174.25   10.83
   1  -8 -16  164.68   10.35
   1  -8 -15    5.67    1.56
  -1   8  14   93.29    6.55
   1  -8 -14   99.90    7.18
  -1   8  13    5.60    1.40
  -1   8  12    0.38    0.70
   1  -8 -11  137.58    8.82
  -1   8  11  159.20    9.36
   1  -8 -10    4.33    1.25
   1  -8 -10    6.70    1.45
   1  -8  -9    4.91    1.25
   1  -8  -9    6.63    1.41
  -1   8   9    6.54    1.37
  -1   8   9    4.23    1.20
  -1   8   8   17.51    2.22
   1  -8  -8   13.72    2.10
  -1   8   8   13.33    1.94
  -1   8   7  639.48   32.28
   1  -8  -7  710.05   32.62
  -1   8   7  625.71   32.23
   1  -8  -7  597.33   32.14
   1  -8  -7  661.40   32.51
   1  -8  -6   24.56    2.64
  -1   8   6   26.73    2.75
   1  -8  -6   28.09    2.75
   1  -8  -6   24.55    2.74
  -1   8   6   19.29    2.44
  -1   8   5    5.20    1.17
  -1   8   5    3.59    1.06
   1  -8  -5    1.80    0.94
   1  -8  -5    5.12    1.23
  -1   8   4  238.18   13.56
  -1   8   4  259.76   13.68
  -1   8   3    1.69    0.77
  -1   8   3    1.05    0.61
   1  -8  -3    2.25    0.78
   1  -8  -2   86.38    5.99
   1  -8  -2   89.23    6.13
   1  -8  -2   89.19    5.75
  -1   8   2   85.41    5.92
   1  -8  -1   36.74    3.30
   1  -8  -1   44.13    3.73
   1  -8  -1   45.59    3.88
   1  -8   0   67.02    4.82
  -1   8   0   63.75    4.92
   1  -8   0   71.24    5.27
   1  -8   0   77.48    5.30
   1  -8   1  133.66    8.18
   1  -8   1  135.30    8.69
  -1   8  -1  141.05    8.43
  -1   8  -1  130.78    8.29
   1  -8   1  142.79    8.58
  -1   8  -2    1.62    0.81
  -1   8  -2    1.90    0.83
   1  -8   2    1.35    0.89
   1  -8   2    1.54    0.73
   1  -8   2    2.36    1.05
   1  -8   3  448.76   24.65
  -1   8  -3  464.81   24.42
   1  -8   3  509.01   25.12
  -1   8  -3  474.71   24.48
   1  -8   3  482.80   24.28
  -1   8  -4   19.65    2.00
  -1   8  -4   19.57    2.40
   1  -8   4   21.75    2.83
  -1   8  -4   18.11    2.38
   1  -8   4   17.76    2.17
  -1   8  -5  342.54   19.19
  -1   8  -5  358.43   19.27
   1  -8   5  340.02   20.16
   1  -8   5  357.54   18.83
   1  -8   5  407.69   20.45
  -1   8  -5  367.92   18.56
   1  -8   6  299.84   17.11
   1  -8   6  300.38   15.90
  -1   8  -6  318.51   15.78
  -1   8  -6  268.27   16.26
  -1   8  -7   17.61    1.98
   1  -8   7   14.87    1.89
  -1   8  -8  177.94    9.82
   1  -8   8  171.55   10.20
  -1   8  -8  197.21   10.43
  -1   8  -9    1.38    1.06
  -1   8  -9    0.41    0.60
  -1   8  -9    0.14    0.68
   1  -8   9    1.07    0.67
  -1   8 -10   10.50    1.59
  -1   8 -10    7.04    1.58
  -1   8 -10   10.21    1.39
  -1   8 -11   26.62    2.63
  -1   8 -11   28.76    2.47
  -1   8 -12   24.35    2.91
  -1   8 -12   25.60    2.47
  -1   8 -12   21.35    2.11
  -1   8 -13  102.63    6.98
  -1   8 -13  115.31    7.16
  -1   8 -13  112.26    6.50
  -1   8 -13   99.99    6.07
  -1   8 -14   -0.20    0.69
  -1   8 -14    0.95    0.87
  -1   8 -14   -0.14    0.58
  -1   8 -14    1.21    0.59
  -1   8 -15  234.47   11.81
  -1   8 -15  213.26   11.18
  -1   8 -16    2.50    0.65
  -1   8 -16    2.05    0.62
  -1   8 -16    1.92    0.49
   1  -7 -21    5.21    1.03
   1  -7 -20   17.14    2.04
   1  -7 -20   13.12    1.67
   1  -7 -19   42.40    3.47
   1  -7 -19   33.34    2.99
   1  -7 -19   44.96    3.89
   1  -7 -18    0.64    0.65
   1  -7 -18    1.00    0.79
   1  -7 -18   -0.21    0.98
   1  -7 -17   45.58    4.15
   1  -7 -17   46.34    4.23
   1  -7 -17   49.46    4.68
   1  -7 -16    2.85    1.36
   1  -7 -16    2.44    1.16
   1  -7 -15  124.73    8.81
   1  -7 -15  118.31    8.37
   1  -7 -14    1.19    0.89
   1  -7 -13    3.51    1.35
  -1   7  13    5.11    1.38
  -1   7  12   54.45    4.55
  -1   7  11    2.58    0.99
   1  -7 -10    0.46    0.56
   1  -7 -10    0.16    0.50
  -1   7   9   22.04    2.28
   1  -7  -9   15.99    2.06
   1  -7  -8   73.73    5.23
   1  -7  -8   84.41    5.50
  -1   7   8   76.44    5.25
  -1   7   8   76.43    5.23
   1  -7  -7   94.67    6.24
  -1   7   7   97.70    6.30
   1  -7  -7  101.29    6.42
  -1   7   7   98.21    6.23
   1  -7  -7  101.03    6.40
   1  -7  -6    1.38    0.72
  -1   7   6    1.31    0.66
  -1   7   6    0.76    0.65
   1  -7  -6    2.03    0.81
   1  -7  -6    1.44    0.70
   1  -7  -5  357.34   18.13
   1  -7  -5  351.86   18.00
  -1   7   5  373.17   17.95
  -1   7   5  301.21   17.71
   1  -7  -5  351.65   17.83
   1  -7  -4    1.93    0.85
  -1   7   4    1.59    0.69
  -1   7   4    3.18    0.82
   1  -7  -4    2.11    0.82
   1  -7  -3   49.99    3.68
  -1   7   3   54.97    3.86
  -1   7   3   50.01    3.80
   1  -7  -2   33.15    2.96
  -1   7   2   31.03    2.80
   1  -7  -2   33.93    2.98
  -1   7   2   32.06    2.74
   1  -7  -2   31.74    2.73
   1  -7  -1   17.38    2.05
  -1   7   1   19.44    2.01
   1  -7  -1   17.15    1.92
   1  -7  -1   16.99    2.04
  -1   7   0  195.18   10.59
   1  -7   0  178.27   10.67
   1  -7   0  202.43   10.82
   1  -7   0  183.88   10.49
  -1   7  -1   10.28    1.50
   1  -7   1   10.48    1.66
  -1   7  -1    9.40    1.41
   1  -7   1    9.46    1.39
   1  -7   1    9.26    1.57
  -1   7  -2  338.84   17.34
   1  -7   2  332.64   17.24
  -1   7  -2  324.68   17.41
   1  -7   2  343.01   17.77
   1  -7   2  330.26   17.81
   1  -7   3   34.93    3.28
  -1   7  -3   30.96    2.86
  -1   7  -3   34.06    3.00
   1  -7   3   32.81    3.26
   1  -7   3   31.58    2.79
  -1   7  -4   23.90    2.54
   1  -7   4   25.09    2.94
   1  -7   4   24.58    2.37
  -1   7  -4   23.45    2.56
   1  -7   4   23.73    2.81
  -1   7  -4   27.41    2.40
  -1   7  -5  136.17    8.32
  -1   7  -5  132.14    8.25
  -1   7  -5  133.32    7.89
   1  -7   5  147.25    8.97
   1  -7   5  134.42    7.93
   1  -7   6    2.34    0.97
   1  -7   6    0.42    0.71
  -1   7  -6    1.02    0.76
   1  -7   6    0.63    0.62
  -1   7  -6    0.83    0.67
  -1   7  -6    1.30    0.83
   1  -7   7  645.95   30.01
  -1   7  -7  641.63   30.21
  -1   7  -8    1.68    0.73
  -1   7  -8    0.90    0.83
   1  -7   8    1.42    0.71
  -1   7  -9  115.24    6.68
  -1   7  -9   97.59    7.44
   1  -7   9  102.11    6.58
  -1   7  -9  117.69    7.17
  -1   7 -10    1.23    0.74
  -1   7 -10    1.49    0.94
   1  -7  10    0.74    0.61
  -1   7 -10    1.01    0.85
  -1   7 -11    2.12    0.97
  -1   7 -11    2.67    1.02
  -1   7 -11    2.17    1.09
  -1   7 -12  142.38    8.95
  -1   7 -12  146.22    8.55
  -1   7 -12  163.74    9.79
  -1   7 -13   12.49    1.88
  -1   7 -13   13.97    1.78
  -1   7 -13   10.54    1.97
  -1   7 -13   16.00    2.23
  -1   7 -14  141.79    8.47
  -1   7 -14  135.93    7.94
  -1   7 -14  142.37    8.40
  -1   7 -14  139.89    8.59
  -1   7 -15    2.92    0.85
  -1   7 -15    3.22    1.01
  -1   7 -15    4.09    1.00
  -1   7 -15    2.76    1.00
  -1   7 -16   19.22    1.92
  -1   7 -16   21.18    1.88
  -1   7 -16   18.27    1.88
  -1   7 -17   11.33    1.22
  -1   7 -17   13.40    1.41
  -1   7 -17    9.99    1.12
   1  -6 -21    0.19    0.51
   1  -6 -21   -0.11    0.56
   1  -6 -20   70.84    5.25
   1  -6 -20   71.49    4.96
   1  -6 -19    1.65    0.89
   1  -6 -19    1.67    0.88
   1  -6 -19    0.80    0.65
   1  -6 -18   89.49    6.62
   1  -6 -18   92.34    6.89
   1  -6 -17    3.04    1.24
   1  -6 -17    3.79    1.66
   1  -6 -17    3.26    1.25
   1  -6 -16   31.53    3.95
   1  -6 -16   26.10    3.31
   1  -6 -15   19.40    3.09
   1  -6 -15   18.67    2.84
   1  -6 -14   17.54    2.13
   1  -6 -14   17.65    2.70
   1  -6 -13  122.63    8.55
   1  -6 -13  120.80    7.35
   1  -6 -12    0.24    0.62
   1  -6 -11  383.01   19.11
  -1   6  11  366.87   19.72
   1  -6 -10   16.77    2.02
   1  -6 -10   17.85    1.98
   1  -6  -9   41.59    3.34
  -1   6   9   40.89    3.18
  -1   6   8   59.12    4.10
   1  -6  -8   60.14    4.28
   1  -6  -8   59.78    4.15
   1  -6  -7    1.76    0.72
  -1   6   7    2.21    0.71
   1  -6  -7    1.49    0.75
   1  -6  -6 1015.48   47.31
  -1   6   6  961.36   47.07
   1  -6  -6  954.01   47.30
   1  -6  -5   20.89    2.17
   1  -6  -5   27.21    2.33
  -1   6   5   20.90    2.03
  -1   6   4   25.43    2.23
   1  -6  -4   26.56    2.39
  -1   6   3   34.64    2.71
   1  -6  -2   74.64    4.93
  -1   6   2   76.44    4.74
   1  -6  -1   53.44    3.84
   1  -6   0    0.12    0.61
   1  -6   1  303.85   15.74
  -1   6  -1  297.04   15.37
   1  -6   2   19.55    2.16
   1  -6   2   20.23    2.15
  -1   6  -2   16.58    1.78
   1  -6   3   21.57    2.38
   1  -6   3   18.59    2.24
  -1   6  -3   21.94    2.08
   1  -6   4   97.34    6.65
   1  -6   4  109.46    6.70
  -1   6  -4  102.77    6.22
   1  -6   5   -0.14    0.57
  -1   6  -5   -0.12    0.57
   1  -6   5    0.31    0.60
  -1   6  -6  177.96   10.36
  -1   6  -6  204.17   10.49
   1  -6   6  171.59   10.42
   1  -6   7    9.90    1.62
  -1   6  -7   11.82    1.72
  -1   6  -7    8.29    1.49
  -1   6  -7    9.50    1.29
  -1   6  -8  146.66    8.45
  -1   6  -8  154.60    9.06
  -1   6  -9    2.09    0.81
  -1   6  -9    3.25    1.12
  -1   6  -9    3.35    1.11
  -1   6 -10   59.58    4.20
  -1   6 -10   51.95    4.45
  -1   6 -10   52.05    4.45
  -1   6 -10   51.34    3.92
  -1   6 -11  258.55   14.23
  -1   6 -11  233.01   13.47
  -1   6 -11  271.45   13.85
  -1   6 -12   11.12    1.73
  -1   6 -12   10.15    1.84
  -1   6 -12   12.56    2.18
  -1   6 -13   63.36    4.76
  -1   6 -13   64.00    4.58
  -1   6 -13   56.68    4.66
  -1   6 -13   53.79    4.83
  -1   6 -14    0.95    0.82
  -1   6 -14    1.27    0.92
  -1   6 -14    0.78    0.95
  -1   6 -14    1.30    0.87
  -1   6 -15    3.95    1.19
  -1   6 -15    1.96    0.94
  -1   6 -15    3.49    1.06
  -1   6 -15    1.80    0.91
  -1   6 -16   14.82    1.87
  -1   6 -16   15.54    1.79
  -1   6 -16   17.13    1.99
  -1   6 -17    2.20    0.69
  -1   6 -17    2.90    0.75
  -1   6 -17    1.82    0.81
  -1   6 -18   33.28    2.57
  -1   6 -19    0.26    0.35
  -1   6 -19    0.27    0.44
   1  -5 -22    5.01    0.84
   1  -5 -22    3.02    0.83
   1  -5 -21  149.76    9.04
   1  -5 -21  161.59    8.91
   1  -5 -20    1.10    0.72
   1  -5 -20   -0.37    0.78
   1  -5 -19   69.06    5.75
   1  -5 -19   69.25    5.43
   1  -5 -18    4.90    1.52
   1  -5 -18    3.31    1.36
   1  -5 -18    4.59    1.27
   1  -5 -17   15.05    2.50
   1  -5 -17   18.52    2.66
   1  -5 -17   13.18    2.83
   1  -5 -16  102.75    8.23
   1  -5 -16   95.42    7.49
   1  -5 -15    3.95    1.15
   1  -5 -15    5.85    2.09
   1  -5 -15    7.23    1.87
   1  -5 -14  262.15   15.78
   1  -5 -14  249.93   13.68
   1  -5 -14  239.46   15.07
   1  -5 -13    2.94    0.96
   1  -5 -13    4.99    1.66
   1  -5 -12  201.33   13.48
   1  -5 -12  235.65   12.16
   1  -5 -11  133.20    7.61
   1  -5 -10   55.48    4.01
   1  -5  -9  168.11    9.72
  -1   5   9  182.12    9.44
   1  -5  -9  176.67    9.73
  -1   5   8   14.12    1.45
   1  -5  -8   11.39    1.43
   1  -5  -8   13.78    1.59
   1  -5  -7    8.84    1.24
  -1   5   7    7.00    1.03
   1  -5  -7    9.16    1.27
  -1   5   6    8.22    1.07
   1  -5  -6    7.47    1.17
   1  -5  -6    9.47    1.27
  -1   5   5 1581.75   74.26
   1  -5  -5 1540.56   74.45
   1  -5  -4  740.63   36.20
  -1   5   4  750.51   36.02
  -1   5   3   20.89    1.84
  -1   5   2  908.65   43.65
   1  -5  -1   14.40    1.62
   1  -5   0 1151.14   55.29
  -1   5  -1    0.90    0.56
   1  -5   1    1.08    0.73
   1  -5   2   12.20    1.62
  -1   5  -2   14.27    1.48
   1  -5   3  422.93   20.40
   1  -5   3  384.09   20.35
  -1   5  -3  414.85   20.01
  -1   5  -3  392.46   19.63
   1  -5   4   23.44    2.24
  -1   5  -4   22.46    2.01
   1  -5   4   24.14    2.22
   1  -5   5  449.64   22.97
   1  -5   5  461.27   23.09
  -1   5  -5  470.63   22.93
   1  -5   6   20.97    2.06
  -1   5  -6   21.91    2.11
   1  -5   7  318.05   16.77
  -1   5  -7  360.73   17.23
  -1   5  -7  304.87   16.54
  -1   5  -8   11.74    1.52
   1  -5   8   17.02    1.73
  -1   5  -8   17.05    1.82
   1  -5   9   72.73    4.87
  -1   5  -9   78.39    5.11
  -1   5  -9   81.35    5.64
  -1   5  -9   81.49    5.52
  -1   5 -10   57.23    4.28
   1  -5  10   47.84    3.58
  -1   5 -10   51.53    3.90
  -1   5 -11    1.57    1.09
  -1   5 -11    0.97    0.94
  -1   5 -11    1.01    0.67
  -1   5 -12  280.24   16.35
  -1   5 -12  323.44   16.74
  -1   5 -12  319.90   16.77
  -1   5 -12  328.98   17.49
  -1   5 -13    2.38    1.22
  -1   5 -13    2.73    1.07
  -1   5 -13    2.48    0.94
  -1   5 -13    3.04    1.24
  -1   5 -13    2.10    0.96
  -1   5 -14   41.48    3.68
  -1   5 -14   43.78    3.60
  -1   5 -14   37.06    3.51
  -1   5 -14   42.03    3.88
  -1   5 -15   24.56    2.74
  -1   5 -15   24.23    2.63
  -1   5 -15   22.85    2.44
  -1   5 -15   25.87    2.63
  -1   5 -16    1.98    0.94
  -1   5 -16    0.31    0.74
  -1   5 -16    1.00    0.68
  -1   5 -17   28.02    2.62
  -1   5 -17   27.70    2.46
  -1   5 -17   27.00    2.36
  -1   5 -17   29.41    2.64
  -1   5 -18    5.00    0.94
  -1   5 -18    5.62    1.12
  -1   5 -18    4.24    0.91
  -1   5 -19   89.51    5.13
  -1   5 -19   83.46    4.81
  -1   5 -20    0.15    0.39
   1  -4 -22   51.33    3.64
   1  -4 -22   54.73    3.66
   1  -4 -21    1.19    0.83
   1  -4 -21    0.41    0.66
   1  -4 -20   83.77    6.40
   1  -4 -20   89.23    6.21
   1  -4 -19    9.59    2.18
   1  -4 -19   12.67    2.24
   1  -4 -18   20.50    3.54
   1  -4 -18   22.61    2.90
   1  -4 -18   25.56    3.25
   1  -4 -17   79.70    7.24
   1  -4 -17   77.01    6.59
   1  -4 -17   72.52    6.30
   1  -4 -16   -0.74    1.55
   1  -4 -16    0.28    1.05
   1  -4 -16    0.89    1.19
   1  -4 -15  117.96    9.31
   1  -4 -15  136.02   10.32
   1  -4 -15  131.03    8.08
   1  -4 -14   -1.09    1.40
   1  -4 -14    1.87    1.48
   1  -4 -14    0.45    0.69
   1  -4 -13  260.31   16.78
   1  -4 -13  260.06   16.21
   1  -4 -13  271.32   14.34
   1  -4 -12   31.81    2.78
   1  -4 -12   31.72    3.89
   1  -4 -11   10.80    1.45
   1  -4 -11   12.10    1.66
   1  -4 -11   10.48    2.22
   1  -4 -10  406.59   20.56
  -1   4   9   15.17    1.41
   1  -4  -9   18.74    1.78
   1  -4  -9   13.53    1.64
   1  -4  -8   78.88    4.76
  -1   4   8   76.26    4.45
   1  -4  -7   40.19    3.00
  -1   4   7   47.48    2.89
  -1   4   6  258.63   13.14
   1  -4  -6  268.30   13.43
   1  -4  -5    5.83    0.95
  -1   4   5    4.53    0.74
  -1   4   4    0.07    0.38
   1  -4  -4    0.48    0.54
  -1   4   3  760.91   37.41
   1  -4  -3  804.61   37.64
  -1   4   2   40.01    2.66
   1  -4  -1  705.59   34.15
   1  -4   0    7.78    1.13
   1  -4   1    3.69    0.83
  -1   4  -2   65.71    4.11
   1  -4   2   76.23    4.38
  -1   4  -3   16.73    1.32
   1  -4   3   18.67    1.68
  -1   4  -3   16.46    1.50
  -1   4  -4  390.18   18.51
   1  -4   4  357.15   18.49
   1  -4   5    3.42    0.69
  -1   4  -5    4.77    0.81
  -1   4  -6   53.39    3.52
  -1   4  -7   59.77    3.79
   1  -4   7   61.99    4.00
  -1   4  -8   14.07    1.34
  -1   4  -9  132.98    7.88
  -1   4  -9  141.41    8.06
  -1   4 -10    2.38    0.84
  -1   4 -10    2.41    0.86
  -1   4 -10    1.68    0.71
   1  -4  10    1.53    0.61
  -1   4 -11   73.04    4.83
  -1   4 -11   59.44    4.52
  -1   4 -12    1.87    0.88
  -1   4 -12    2.35    0.86
  -1   4 -12    1.25    0.91
  -1   4 -12    2.48    0.87
  -1   4 -13   16.96    2.17
  -1   4 -13   14.92    1.90
  -1   4 -13   15.33    2.04
  -1   4 -13   13.77    1.96
  -1   4 -13   11.87    1.81
  -1   4 -14   87.76    6.12
  -1   4 -14   94.25    6.07
  -1   4 -14  100.98    6.40
  -1   4 -14   85.33    6.08
  -1   4 -14   89.73    6.13
  -1   4 -15    6.31    1.26
  -1   4 -15    3.90    1.08
  -1   4 -15    8.29    1.64
  -1   4 -15    9.19    1.62
  -1   4 -15    9.18    1.64
  -1   4 -15    9.82    1.56
  -1   4 -16    5.62    1.23
  -1   4 -16    6.04    1.33
  -1   4 -16    5.56    1.20
  -1   4 -16    6.46    1.24
  -1   4 -16    7.08    1.43
  -1   4 -16    5.89    1.35
  -1   4 -17    2.60    0.93
  -1   4 -17    1.70    0.80
  -1   4 -17    1.63    0.78
  -1   4 -17    1.41    0.70
  -1   4 -17    2.85    1.02
  -1   4 -17    1.38    0.71
  -1   4 -18    7.30    1.23
  -1   4 -19    3.19    0.71
  -1   4 -19    1.70    0.66
  -1   4 -20    0.29    0.40
   1  -3 -22    1.03    0.50
   1  -3 -21   69.90    5.18
   1  -3 -20   14.95    2.44
   1  -3 -19   19.43    3.12
   1  -3 -18   53.00    5.83
   1  -3 -17    8.08    2.06
   1  -3 -17    8.09    2.49
   1  -3 -17    4.38    1.93
   1  -3 -16   80.05    7.39
   1  -3 -16   78.57    7.12
   1  -3 -15    9.18    2.21
   1  -3 -15   11.28    1.82
   1  -3 -15    9.16    2.36
   1  -3 -15   10.80    2.73
   1  -3 -14  270.46   16.81
   1  -3 -14  290.65   15.39
   1  -3 -14  283.59   17.60
   1  -3 -13   73.81    5.05
   1  -3 -13   74.65    6.68
   1  -3 -13   65.78    5.99
   1  -3 -12   49.22    4.77
   1  -3 -12   38.94    4.17
   1  -3 -12   39.20    3.24
   1  -3 -11  290.42   15.08
   1  -3  -9   25.13    1.98
  -1   3   8  142.56    7.37
   1  -3  -8  145.66    7.80
  -1   3   7    0.05    0.27
   1  -3  -6  254.76   12.52
  -1   3   6  241.69   12.21
   1  -3  -5   26.26    2.02
  -1   3   5   26.44    1.83
  -1   3   4 1029.57   49.27
   1  -3  -4 1046.13   49.48
  -1   3   3    3.83    0.62
   1  -3  -3    5.53    0.83
  -1   3   2  653.46   31.32
   1  -3  -1   99.95    5.45
  -1   3   1   98.61    5.31
  -1   3   0   12.50    1.15
   1  -3   0   13.91    1.26
   1  -3   1    6.08    0.81
  -1   3  -2   24.24    1.78
   1  -3   2   25.34    1.83
  -1   3  -3  309.16   14.55
  -1   3  -3  296.09   14.18
   1  -3   3  274.99   14.42
  -1   3  -4    2.30    0.52
   1  -3   4    2.25    0.54
   1  -3   4    2.41    0.53
   1  -3   5  263.98   13.03
  -1   3  -5  277.95   12.81
  -1   3  -5  278.92   13.12
  -1   3  -6  125.41    6.70
  -1   3  -6  125.54    6.46
   1  -3   6  126.10    6.70
   1  -3   7   93.30    5.11
  -1   3  -7   91.40    4.86
  -1   3  -7   90.69    4.93
   1  -3   7   85.97    5.08
   1  -3   8  459.44   21.71
  -1   3  -8  432.43   21.35
   1  -3   9   16.43    1.48
  -1   3 -10  136.01    7.95
  -1   3 -11    2.05    0.77
  -1   3 -11    0.28    0.65
  -1   3 -11    1.39    0.67
  -1   3 -12   23.58    2.66
  -1   3 -12   25.74    2.70
  -1   3 -12   29.58    2.62
  -1   3 -12   30.07    2.82
  -1   3 -13   75.24    5.08
  -1   3 -13   77.14    5.18
  -1   3 -13   70.31    5.41
  -1   3 -13   76.58    5.23
  -1   3 -13   70.42    5.31
  -1   3 -13   77.91    5.46
  -1   3 -14   90.85    6.12
  -1   3 -14   94.22    6.57
  -1   3 -14  103.04    6.17
  -1   3 -14   88.68    6.27
  -1   3 -14   91.67    6.39
  -1   3 -15  141.47    7.92
  -1   3 -15  128.19    8.12
  -1   3 -15  124.97    7.78
  -1   3 -15  136.43    8.39
  -1   3 -15  121.76    8.25
  -1   3 -16    4.92    1.09
  -1   3 -16    3.90    1.04
  -1   3 -16    5.29    1.18
  -1   3 -16    7.34    1.48
  -1   3 -16    5.41    1.37
  -1   3 -17    5.14    1.31
  -1   3 -17    7.44    1.44
  -1   3 -17    5.63    1.09
  -1   3 -17    6.23    1.18
  -1   3 -17    6.53    1.26
  -1   3 -18    0.16    0.67
  -1   3 -18   -0.14    0.58
  -1   3 -18    1.11    0.72
  -1   3 -19    3.00    0.75
  -1   3 -19    2.19    0.81
  -1   3 -19    2.50    0.73
  -1   3 -19    1.81    0.72
  -1   3 -20   19.51    1.58
  -1   3 -20   20.68    1.84
  -1   3 -20   18.45    1.78
  -1   3 -21   13.34    1.31
   1  -2 -22   35.23    2.77
   1  -2 -22   27.93    2.50
   1  -2 -21   21.77    2.50
   1  -2 -21   18.19    2.36
   1  -2 -20   25.04    2.46
   1  -2 -20   31.05    3.46
   1  -2 -20   25.27    3.29
   1  -2 -19  314.25   18.62
   1  -2 -19  304.43   16.35
   1  -2 -18    1.44    0.65
   1  -2 -18    0.72    1.51
   1  -2 -18    2.22    1.01
   1  -2 -17   17.37    1.91
   1  -2 -17   13.97    2.63
   1  -2 -17   17.36    1.92
   1  -2 -17   16.53    3.32
   1  -2 -17   20.01    2.50
   1  -2 -16    0.83    1.11
   1  -2 -16    0.39    0.52
   1  -2 -16    0.36    1.38
   1  -2 -16    0.52    0.89
   1  -2 -16   -0.11    0.57
   1  -2 -15   15.89    1.93
   1  -2 -15   19.36    2.42
   1  -2 -15   18.03    3.12
   1  -2 -15   16.26    1.77
   1  -2 -15   16.95    2.80
   1  -2 -14  316.25   16.26
   1  -2 -14  291.48   15.62
   1  -2 -14  278.95   15.17
   1  -2 -14  337.26   18.23
   1  -2 -14  302.03   17.24
   1  -2 -13    7.22    1.39
   1  -2 -13    6.71    1.20
   1  -2 -13    7.53    1.11
   1  -2 -13    9.73    2.05
   1  -2 -13    4.12    1.54
   1  -2 -12  217.43   12.06
   1  -2 -12  219.45   12.99
   1  -2 -12  225.52   13.46
   1  -2 -10   62.36    3.77
   1  -2  -9   66.84    3.91
   1  -2  -8  178.45    9.07
   1  -2  -8  190.21    9.28
  -1   2   8  178.39    8.92
   1  -2  -7  153.52    8.09
   1  -2  -7  168.59    8.17
  -1   2   7  156.93    7.88
  -1   2   6   15.29    1.16
   1  -2  -6   17.62    1.35
   1  -2  -5  390.43   19.29
  -1   2   5  408.21   19.25
   1  -2  -4   11.08    1.00
  -1   2   4   12.19    0.96
   1  -2  -3 3950.45  184.59
  -1   2   3 3914.64  184.48
  -1   2   2  442.50   21.18
   1  -2   0   67.68    3.70
   1  -2   1    8.27    0.82
  -1   2  -2  755.43   36.01
   1  -2   2  801.35   36.34
   1  -2   2  747.93   36.26
   1  -2   3   46.06    2.79
   1  -2   3   55.65    3.00
   1  -2   4  338.33   14.69
  -1   2  -4  311.37   14.24
  -1   2  -5  130.76    6.66
   1  -2   5  139.00    7.05
   1  -2   6   20.23    1.59
  -1   2  -6   17.06    1.23
   1  -2   6   15.83    1.32
  -1   2  -6   18.08    1.35
   1  -2   7  323.97   16.30
   1  -2   7  343.21   16.63
  -1   2  -7  337.88   16.13
  -1   2  -8  279.19   14.06
   1  -2   8  338.66   14.86
   1  -2   9  550.06   26.83
   1  -2  10    1.82    0.57
  -1   2 -11    1.77    0.75
  -1   2 -11    2.01    0.71
  -1   2 -12   49.51    3.93
  -1   2 -12   51.52    3.63
  -1   2 -12   48.41    4.01
  -1   2 -12   47.83    4.05
  -1   2 -13   26.88    2.27
  -1   2 -13   29.48    2.63
  -1   2 -13   25.01    2.80
  -1   2 -13   29.49    2.54
  -1   2 -13   22.66    2.63
  -1   2 -13   28.09    3.00
  -1   2 -14  278.88   15.24
  -1   2 -14  291.72   15.98
  -1   2 -14  300.61   16.31
  -1   2 -14  304.84   15.45
  -1   2 -14  280.35   15.95
  -1   2 -15   18.04    2.46
  -1   2 -15   20.57    2.29
  -1   2 -15   19.18    2.64
  -1   2 -15   21.57    2.26
  -1   2 -15   21.91    2.62
  -1   2 -15   25.49    2.39
  -1   2 -16    7.77    1.26
  -1   2 -16    7.52    1.63
  -1   2 -16    8.79    1.72
  -1   2 -16    7.01    1.29
  -1   2 -16    9.22    1.53
  -1   2 -16    7.33    1.65
  -1   2 -17   18.32    2.58
  -1   2 -17   24.50    2.40
  -1   2 -17   27.30    2.81
  -1   2 -17   23.57    2.15
  -1   2 -17   17.93    2.07
  -1   2 -18   52.90    3.81
  -1   2 -18   50.78    4.31
  -1   2 -18   49.81    4.00
  -1   2 -19   60.30    3.92
  -1   2 -19   52.83    3.56
  -1   2 -19   52.47    3.86
  -1   2 -19   53.84    4.26
  -1   2 -20   30.68    2.79
  -1   2 -20   33.58    2.36
  -1   2 -20   37.09    2.65
  -1   2 -21    8.76    1.10
  -1   2 -21    6.18    0.95
   1  -1 -22   22.78    2.09
   1  -1 -22   17.57    1.82
   1  -1 -21   10.26    1.73
   1  -1 -21    8.26    1.62
   1  -1 -20   46.40    3.72
   1  -1 -20   55.18    5.04
   1  -1 -20   52.89    4.85
   1  -1 -19    8.16    1.53
   1  -1 -19    8.28    2.10
   1  -1 -19    6.84    1.96
   1  -1 -19    6.22    1.14
   1  -1 -18  362.48   19.35
   1  -1 -18  307.53   16.22
   1  -1 -18  323.76   19.00
   1  -1 -18  303.88   16.86
   1  -1 -18  306.54   16.09
   1  -1 -17    2.76    0.92
   1  -1 -17    2.17    0.94
   1  -1 -17    2.91    0.77
   1  -1 -17    2.34    1.49
   1  -1 -17    3.42    0.91
   1  -1 -17    3.99    1.74
   1  -1 -16   15.78    2.96
   1  -1 -16   14.83    2.40
   1  -1 -16   14.00    1.70
   1  -1 -16   11.27    1.91
   1  -1 -16   14.35    1.57
   1  -1 -16   13.62    2.73
   1  -1 -16   11.99    1.76
   1  -1 -15  247.91   14.15
   1  -1 -15  266.06   15.33
   1  -1 -15  286.19   16.27
   1  -1 -15  293.14   16.38
   1  -1 -15  252.54   13.47
   1  -1 -15  255.40   14.48
   1  -1 -15  271.08   13.82
   1  -1 -15  255.83   14.21
   1  -1 -14    4.08    1.40
   1  -1 -14    6.43    1.45
   1  -1 -14    4.60    1.14
   1  -1 -14    3.38    1.55
   1  -1 -14    3.06    0.97
   1  -1 -14    5.41    0.95
   1  -1 -14    3.09    0.93
   1  -1 -13   63.47    3.97
   1  -1 -13   65.89    5.11
   1  -1 -13   63.44    4.64
   1  -1 -13   73.80    5.89
   1  -1 -13   62.79    4.43
   1  -1 -13   61.11    4.11
   1  -1 -13   60.94    5.13
   1  -1 -12    3.66    0.96
   1  -1 -12    4.05    0.73
   1  -1 -12    3.38    0.83
   1  -1 -12    3.37    1.34
   1  -1 -12    3.12    1.01
   1  -1 -11  410.90   19.97
   1  -1 -11  386.33   19.41
   1  -1 -10    2.89    0.61
   1  -1 -10    1.99    0.61
   1  -1  -9  118.82    6.52
   1  -1  -9  116.37    6.25
   1  -1  -8   89.52    4.87
   1  -1  -8   89.40    5.05
   1  -1  -7    1.59    0.47
   1  -1  -7    1.13    0.24
  -1   1   7    1.11    0.22
   1  -1  -6  147.13    7.40
   1  -1  -6  153.67    7.53
  -1   1   6  147.95    7.28
   1  -1  -5   63.62    3.46
   1  -1  -5   64.04    3.48
  -1   1   5   65.87    3.34
  -1   1   4   48.06    2.59
   1  -1  -4   48.84    2.73
   1  -1  -4   50.74    2.71
  -1   1   3   29.79    1.71
   1  -1  -3   30.82    1.83
  -1   1   2  280.69   12.96
   1  -1  -2  258.32   12.96
  -1   1   1  139.69    6.87
   1  -1   0    7.00    0.63
   1  -1   1  655.79   43.29
   1  -1   1 1300.36   43.44
   1  -1   2   83.50    4.24
  -1   1  -2   76.67    4.02
  -1   1  -3   86.69    4.14
   1  -1   3   89.00    4.57
  -1   1  -3   80.80    4.28
   1  -1   3   82.55    4.37
   1  -1   4  529.12   25.84
   1  -1   4  548.39   26.08
  -1   1  -4  549.93   25.74
   1  -1   5   51.07    2.91
  -1   1  -5   54.28    2.84
  -1   1  -6   13.51    1.01
   1  -1   6   14.12    1.04
  -1   1  -7  240.34   10.94
   1  -1   7  211.42   11.02
   1  -1   8    1.88    0.65
   1  -1   9   29.80    2.32
  -1   1 -10    3.38    0.93
   1  -1  10    3.01    0.76
  -1   1 -11  203.02   10.75
   1  -1  11  178.08    9.95
  -1   1 -12   46.15    3.92
  -1   1 -12   44.33    3.26
  -1   1 -12   47.18    3.25
  -1   1 -12   44.20    3.73
  -1   1 -13   35.07    2.81
  -1   1 -13   37.96    2.91
  -1   1 -13   36.33    3.31
  -1   1 -13   33.15    3.35
  -1   1 -13   33.48    2.81
  -1   1 -13   32.19    2.60
  -1   1 -13   37.65    3.53
  -1   1 -14   20.38    2.59
  -1   1 -14   16.44    2.24
  -1   1 -14   18.10    2.05
  -1   1 -14   19.54    2.02
  -1   1 -14   18.26    1.97
  -1   1 -14   20.98    2.68
  -1   1 -14   20.67    1.85
  -1   1 -15   75.12    5.86
  -1   1 -15   84.50    5.30
  -1   1 -15   76.16    5.65
  -1   1 -15   78.01    5.10
  -1   1 -15   74.93    6.09
  -1   1 -16    4.26    1.32
  -1   1 -16    4.67    1.12
  -1   1 -16    4.54    1.47
  -1   1 -16    4.37    1.03
  -1   1 -17  222.86   13.64
  -1   1 -17  239.61   12.47
  -1   1 -17  225.46   12.25
  -1   1 -17  229.05   13.35
  -1   1 -18    8.23    1.25
  -1   1 -18    8.17    1.63
  -1   1 -18    9.84    1.44
  -1   1 -18    8.51    1.78
  -1   1 -19   25.17    2.31
  -1   1 -19   22.25    2.02
  -1   1 -19   26.47    2.68
  -1   1 -19   30.12    3.13
  -1   1 -19   26.80    2.92
  -1   1 -20    1.65    0.90
  -1   1 -20    1.16    0.74
  -1   1 -20    0.90    0.65
  -1   1 -21    1.72    0.63
  -1   1 -21    1.71    0.73
   1   0 -22    6.44    1.08
   1   0 -22    4.13    0.77
   1   0 -21   29.55    2.82
   1   0 -21   25.64    2.84
   1   0 -21   24.97    2.17
   1   0 -20    1.90    1.16
   1   0 -20    0.22    0.94
   1   0 -20    2.28    0.87
   1   0 -19   84.88    6.66
   1   0 -19   73.41    5.22
   1   0 -19   70.49    4.81
   1   0 -19   93.28    6.75
   1   0 -18    0.70    0.61
   1   0 -18    1.53    0.89
   1   0 -18   -0.29    1.23
   1   0 -18    1.46    0.71
   1   0 -18    0.69    0.65
   1   0 -18    0.29    1.03
   1   0 -17   13.51    1.58
   1   0 -17   16.49    2.84
   1   0 -17   14.06    2.73
   1   0 -17   15.67    1.89
   1   0 -17   13.54    1.92
   1   0 -17   15.52    2.04
   1   0 -16  117.96    8.81
   1   0 -16  113.80    6.95
   1   0 -16  118.55    7.36
   1   0 -16  108.62    6.65
   1   0 -16  117.68    7.46
   1   0 -16  130.50    9.02
   1   0 -15    6.26    1.16
   1   0 -15    8.38    1.39
   1   0 -15    6.47    1.60
   1   0 -15   11.58    2.24
   1   0 -15    8.09    1.18
   1   0 -15    6.74    1.41
   1   0 -15    7.20    1.98
   1   0 -15    8.11    1.59
   1   0 -14  299.53   16.55
   1   0 -14  280.57   14.85
   1   0 -14  281.77   15.58
   1   0 -14  276.51   16.19
   1   0 -14  272.91   15.64
   1   0 -14  268.92   14.27
   1   0 -14  277.95   14.37
   1   0 -14  276.72   14.49
   1   0 -14  281.97   15.32
   1   0 -14  268.12   15.68
   1   0 -13    3.48    1.26
   1   0 -13    2.61    0.73
   1   0 -13    4.77    1.29
   1   0 -13    3.20    0.91
   1   0 -13    4.94    1.49
   1   0 -13    2.05    0.71
   1   0 -13    2.94    1.07
   1   0 -13    2.95    0.87
   1   0 -13    3.15    1.23
   1   0 -13    2.52    1.09
   1   0 -12  227.63   12.44
   1   0 -12  221.55   11.86
   1   0 -12  233.69   13.19
   1   0 -12  214.33   12.81
   1   0 -12  209.72   12.39
   1   0 -12  220.54   12.25
   1   0 -12  214.18   11.52
   1   0 -11   29.61    2.15
   1   0 -11   33.86    2.68
   1   0 -10    7.28    1.11
   1   0 -10    7.62    0.88
   1   0  -9  368.30   18.37
   1   0  -9  402.46   18.98
   1   0  -8   22.19    1.87
   1   0  -8   24.19    1.58
   1   0  -7  113.74    5.75
   1   0  -6    2.11    0.51
   1   0  -6    1.67    0.32
  -1   0   6    0.93    0.12
   1   0  -5   62.72    3.24
   1   0  -5   61.97    3.18
   1   0  -5   66.06    3.62
  -1   0   5   62.55    3.10
   1   0  -4   61.15    3.31
   1   0  -4   58.99    3.02
   1   0  -4   56.06    2.99
   1   0  -3    1.56    0.39
   1   0  -3    1.00    0.28
   1   0  -3    1.77    0.34
   1   0  -2  788.32   37.23
   1   0  -1  238.89   11.36
   1   0   0  488.98   23.21
   1   0   1    0.19    0.15
   1   0   1    0.27    0.15
   1   0   2  545.41   25.91
   1   0   2  547.18   25.85
   1   0   3   25.76    1.53
   1   0   4  116.66    5.79
  -1   0  -5    5.59    0.45
   1   0   5    5.05    0.49
   1   0   6   26.88    1.60
  -1   0  -6   32.78    1.60
  -1   0  -8   30.91    2.44
  -1   0  -9  397.21   19.99
  -1   0 -10    3.84    0.93
  -1   0 -11  119.75    6.80
  -1   0 -11  127.00    7.34
  -1   0 -12   13.65    1.72
  -1   0 -12    9.55    1.52
  -1   0 -12   10.08    1.27
  -1   0 -13   13.45    1.61
  -1   0 -13   14.29    2.01
  -1   0 -13   13.42    1.48
  -1   0 -13   11.14    2.00
  -1   0 -13   13.52    1.83
  -1   0 -13   14.32    2.09
  -1   0 -13   13.96    1.54
  -1   0 -14    3.46    0.77
  -1   0 -14    3.70    1.22
  -1   0 -14    4.02    0.88
  -1   0 -14    7.17    1.14
  -1   0 -14    3.11    1.12
  -1   0 -14    3.22    1.06
  -1   0 -14    2.55    1.05
  -1   0 -15    1.56    0.60
  -1   0 -15    1.18    0.75
  -1   0 -15    1.39    0.70
  -1   0 -15    1.07    1.02
  -1   0 -15    0.73    1.01
  -1   0 -15    1.82    1.05
  -1   0 -15    1.30    0.74
  -1   0 -16   81.63    6.40
  -1   0 -16   79.84    6.23
  -1   0 -16   90.29    6.77
  -1   0 -16   84.87    5.32
  -1   0 -16   71.88    5.02
  -1   0 -16   87.53    5.90
  -1   0 -17    1.84    1.06
  -1   0 -17    1.59    0.79
  -1   0 -17    2.68    1.04
  -1   0 -17    2.11    1.20
  -1   0 -17    1.87    1.14
  -1   0 -18   13.39    2.11
  -1   0 -18   12.40    1.83
  -1   0 -18   11.57    1.40
  -1   0 -18   12.51    1.65
  -1   0 -18   12.65    2.32
  -1   0 -18   10.38    1.99
  -1   0 -19    9.25    1.37
  -1   0 -19    7.26    1.56
  -1   0 -19    7.39    1.54
  -1   0 -19    7.22    1.78
  -1   0 -19    8.27    1.48
  -1   0 -20    7.84    1.54
  -1   0 -20   10.06    1.48
  -1   0 -20    9.53    1.89
  -1   0 -20    8.93    1.24
  -1   0 -20    9.15    1.51
  -1   0 -21   33.74    2.78
  -1   0 -21   36.71    3.47
  -1   0 -22   11.02    1.58
   1   1 -22   70.66    4.37
   1   1 -21   -0.60    0.79
   1   1 -21    0.12    0.56
   1   1 -20   25.96    2.08
   1   1 -20   21.61    2.66
   1   1 -20   21.39    2.24
   1   1 -20   24.50    2.94
   1   1 -19    1.56    0.79
   1   1 -19    3.38    0.84
   1   1 -19    4.12    1.42
   1   1 -19    2.08    1.30
   1   1 -19    2.60    0.71
   1   1 -18    1.12    0.65
   1   1 -18    0.70    0.69
   1   1 -18    1.79    1.21
   1   1 -18   -0.25    1.11
   1   1 -18    0.86    0.70
   1   1 -18    0.47    0.77
   1   1 -17  106.33    8.05
   1   1 -17   99.88    6.18
   1   1 -17  115.12    8.10
   1   1 -17  106.51    6.35
   1   1 -17  113.07    7.11
   1   1 -17  111.82    6.62
   1   1 -17  102.06    6.74
   1   1 -16  162.37   10.58
   1   1 -16  158.60   10.51
   1   1 -16  156.14    9.59
   1   1 -16  154.91    8.69
   1   1 -16  147.53    9.10
   1   1 -16  155.97    8.93
   1   1 -16  154.04    8.67
   1   1 -15   18.77    2.03
   1   1 -15   21.02    2.04
   1   1 -15   22.23    3.09
   1   1 -15   17.63    2.05
   1   1 -15   19.44    2.26
   1   1 -15   15.20    2.26
   1   1 -15   19.22    2.91
   1   1 -14   16.80    2.23
   1   1 -14   15.87    2.22
   1   1 -14   12.98    1.71
   1   1 -14   13.50    1.67
   1   1 -14   16.28    1.97
   1   1 -14   14.93    2.48
   1   1 -14   19.04    2.67
   1   1 -14   12.37    1.64
   1   1 -13  186.61   11.62
   1   1 -13  198.82   12.17
   1   1 -13  207.17   11.69
   1   1 -13  197.79   11.20
   1   1 -13  216.42   12.60
   1   1 -13  200.38   10.92
   1   1 -13  202.46   11.63
   1   1 -13  205.16   10.94
   1   1 -12   49.39    3.92
   1   1 -12   48.02    3.82
   1   1 -12   48.09    4.00
   1   1 -12   46.30    3.33
   1   1 -12   48.30    3.68
   1   1 -12   43.52    3.36
   1   1 -12   48.70    3.94
   1   1 -12   46.86    4.37
   1   1 -12   48.50    3.43
   1   1 -12   44.01    4.15
   1   1 -11   21.99    2.61
   1   1 -11   19.07    2.01
   1   1 -11   18.24    2.33
   1   1 -11   17.52    1.83
   1   1 -10  443.14   22.00
   1   1 -10  502.54   23.03
   1   1  -9  144.13    7.33
   1   1  -9  151.97    8.11
   1   1  -8  189.11    9.45
   1   1  -8  190.27   10.08
   1   1  -8  206.85   10.23
   1   1  -7   24.77    1.99
   1   1  -7   25.20    1.52
   1   1  -6   52.78    3.21
   1   1  -6   49.61    2.66
  -1  -1   5    1.29    0.23
   1   1  -5    1.60    0.24
   1   1  -5    2.33    0.53
   1   1  -5    2.08    0.30
   1   1  -4   56.14    3.28
   1   1  -4   58.84    2.90
   1   1  -4   53.27    2.77
   1   1  -3  689.08   30.99
   1   1  -3  658.84   30.93
   1   1  -3  642.63   30.77
   1   1  -2  223.06   10.82
   1   1  -2  218.63   10.59
   1   1  -1  542.50   24.86
   1   1  -1  508.19   24.71
   1   1   1   34.97    2.03
   1   1   1   39.55    2.04
   1   1   2    0.90    0.22
   1   1   2    1.34    0.27
   1   1   3  365.49   17.40
   1   1   4    1.20    0.25
   1   1   4    1.61    0.32
   1   1   5   57.23    2.98
  -1  -1  -6    0.43    0.16
   1   1   6    0.36    0.18
  -1  -1  -7    1.05    0.15
  -1  -1  -8    6.50    0.90
  -1  -1  -9  194.63   10.43
  -1  -1  -9  202.45   10.22
  -1  -1 -10  399.87   19.37
  -1  -1 -10  382.78   19.65
  -1  -1 -11   33.68    2.45
  -1  -1 -11   32.90    2.71
  -1  -1 -12   52.28    3.86
  -1  -1 -12   53.30    3.48
  -1  -1 -13    1.23    0.76
  -1  -1 -13    1.52    0.59
  -1  -1 -13    0.75    0.63
  -1  -1 -13    1.99    0.94
  -1  -1 -13    3.78    1.06
  -1  -1 -14    7.30    1.58
  -1  -1 -14    6.97    1.07
  -1  -1 -14    7.08    1.68
  -1  -1 -14    6.52    1.07
  -1  -1 -14    4.49    0.93
  -1  -1 -14    6.67    1.30
  -1  -1 -15   89.19    6.27
  -1  -1 -15   79.00    6.28
  -1  -1 -15   65.80    4.60
  -1  -1 -15   76.78    4.83
  -1  -1 -15   78.33    6.12
  -1  -1 -15   70.82    4.59
  -1  -1 -15   80.02    5.36
  -1  -1 -16  222.63   13.00
  -1  -1 -16  236.91   12.44
  -1  -1 -16  232.98   13.77
  -1  -1 -16  213.43   13.40
  -1  -1 -16  200.39   11.57
  -1  -1 -17   19.80    2.87
  -1  -1 -17   17.99    2.25
  -1  -1 -17   14.72    1.58
  -1  -1 -17   15.12    1.82
  -1  -1 -17   20.86    3.07
  -1  -1 -17   13.90    2.23
  -1  -1 -18    7.36    1.53
  -1  -1 -18    7.74    1.25
  -1  -1 -18    8.28    1.63
  -1  -1 -18   10.26    2.32
  -1  -1 -18   11.21    2.14
  -1  -1 -19   16.67    2.76
  -1  -1 -19   12.54    1.57
  -1  -1 -19   13.44    2.33
  -1  -1 -19   11.26    1.74
  -1  -1 -19   14.90    2.01
  -1  -1 -20  129.59    7.69
  -1  -1 -20  129.02    7.76
  -1  -1 -20  125.63    8.38
  -1  -1 -20  140.57    9.16
  -1  -1 -20  119.06    7.02
  -1  -1 -21    1.30    1.14
  -1  -1 -21    2.26    0.68
  -1  -1 -21    1.85    0.89
  -1  -1 -21    1.91    0.86
  -1  -1 -22  105.27    6.97
  -1  -1 -22  111.62    6.46
  -1  -1 -23   18.36    1.71
   1   2 -21   23.22    1.82
   1   2 -21   28.37    2.44
   1   2 -20    0.92    0.80
   1   2 -20    1.67    0.64
   1   2 -20    1.88    0.67
   1   2 -20    1.20    0.73
   1   2 -19   15.34    1.83
   1   2 -19   17.00    1.83
   1   2 -19   17.60    2.28
   1   2 -19   18.77    2.45
   1   2 -19   16.55    1.61
   1   2 -18   56.53    4.35
   1   2 -18   70.60    5.37
   1   2 -18   62.22    4.15
   1   2 -18   66.01    5.39
   1   2 -18   67.54    4.45
   1   2 -17   17.07    1.98
   1   2 -17   15.84    1.78
   1   2 -17   13.99    2.07
   1   2 -17   15.39    1.74
   1   2 -17   14.21    2.42
   1   2 -17   13.77    2.43
   1   2 -17   11.72    1.74
   1   2 -16  191.93   10.56
   1   2 -16  190.22   10.71
   1   2 -16  197.72   11.95
   1   2 -16  197.23   11.99
   1   2 -16  180.22   11.12
   1   2 -16  180.50   10.31
   1   2 -16  185.20   10.27
   1   2 -15    1.80    1.15
   1   2 -15    2.47    0.93
   1   2 -15    3.89    1.12
   1   2 -15    2.30    0.97
   1   2 -15    4.02    1.41
   1   2 -15    3.29    1.11
   1   2 -15    2.03    0.83
   1   2 -14    7.33    1.35
   1   2 -14    8.84    1.63
   1   2 -14    7.46    1.37
   1   2 -14    6.11    1.30
   1   2 -14    7.24    1.74
   1   2 -14    7.02    1.78
   1   2 -13    6.73    1.21
   1   2 -13    8.19    1.45
   1   2 -13    8.44    1.34
   1   2 -13    9.33    1.42
   1   2 -13    6.05    1.19
   1   2 -13    9.47    1.87
   1   2 -13    6.75    1.48
   1   2 -13    9.72    1.94
   1   2 -13   10.34    1.61
   1   2 -12    2.33    0.90
   1   2 -12    3.35    0.98
   1   2 -12    2.63    0.88
   1   2 -12    3.52    0.96
   1   2 -12    2.14    0.87
   1   2 -12    3.09    1.08
   1   2 -12    2.71    0.88
   1   2 -12    3.28    1.27
   1   2 -12    2.39    0.77
   1   2 -11  116.99    6.79
   1   2 -11  119.98    6.98
   1   2 -11  118.50    7.10
   1   2 -11  120.90    6.99
   1   2 -11  117.94    7.21
   1   2 -11  119.30    7.84
   1   2 -11  110.29    7.03
   1   2 -11  117.68    7.17
   1   2 -11  118.74    7.68
   1   2 -10   40.87    3.23
   1   2  -9    6.40    1.10
   1   2  -9    7.03    1.08
   1   2  -9    6.98    0.67
   1   2  -8    8.30    1.21
   1   2  -8    8.45    1.15
   1   2  -8    8.55    0.76
   1   2  -7  207.56   10.10
   1   2  -7  207.28   10.81
   1   2  -7  204.05   10.83
   1   2  -6    4.91    0.84
   1   2  -6    4.80    0.48
  -1  -2   6    4.21    0.41
  -1  -2   5   40.59    2.35
   1   2  -4  441.79   20.10
  -1  -2   4  401.15   19.99
   1   2  -3   78.01    4.42
   1   2  -3   82.35    4.18
  -1  -2   3   78.12    4.08
   1   2  -2 1831.85   86.70
  -1  -2   2 1819.21   86.40
   1   2  -2 1864.41   86.49
   1   2  -1    6.44    0.65
  -1  -2   0   58.30    3.01
  -1  -2  -1  262.18   12.51
  -1  -2  -2  424.74   19.31
   1   2   2  380.02   19.43
   1   2   3  180.59    9.02
  -1  -2  -3  184.98    8.92
  -1  -2  -4   17.55    1.19
   1   2   4   18.60    1.28
  -1  -2  -4   19.42    1.27
  -1  -2  -5  188.40    9.34
   1   2   5  196.87    9.48
  -1  -2  -6   37.31    2.03
   1   2   6   34.18    2.12
  -1  -2  -7  537.17   26.17
  -1  -2  -7  584.27   26.55
   1   2   8   49.64    2.64
  -1  -2  -8   55.93    3.06
  -1  -2  -8   46.94    2.54
  -1  -2  -9  792.47   36.83
  -1  -2  -9  740.56   36.96
  -1  -2 -10   87.79    5.31
  -1  -2 -10   93.78    5.16
  -1  -2 -11    0.90    0.55
  -1  -2 -11    1.53    0.59
  -1  -2 -12   50.13    3.58
  -1  -2 -12   48.94    3.30
  -1  -2 -13    6.31    1.34
  -1  -2 -13    3.87    0.87
  -1  -2 -13    4.52    1.03
  -1  -2 -13    3.51    1.26
  -1  -2 -14  385.22   18.71
  -1  -2 -14  358.14   18.12
  -1  -2 -14  373.87   19.29
  -1  -2 -14  361.43   19.89
  -1  -2 -14  335.65   17.91
  -1  -2 -15  112.40    7.02
  -1  -2 -15  130.68    7.61
  -1  -2 -15  123.90    7.99
  -1  -2 -15  119.55    6.94
  -1  -2 -15  128.56    8.82
  -1  -2 -16   22.15    3.20
  -1  -2 -16   24.30    3.52
  -1  -2 -16   24.32    2.80
  -1  -2 -16   21.07    2.23
  -1  -2 -16   21.50    2.09
  -1  -2 -16   22.13    2.49
  -1  -2 -17    5.96    1.40
  -1  -2 -17    9.88    1.67
  -1  -2 -17    8.11    2.04
  -1  -2 -17    8.10    2.19
  -1  -2 -17    6.03    1.12
  -1  -2 -18    0.33    1.17
  -1  -2 -18    2.03    1.25
  -1  -2 -18    1.00    0.65
  -1  -2 -18    1.04    0.80
  -1  -2 -18    0.98    0.83
  -1  -2 -19   27.16    2.29
  -1  -2 -19   30.08    2.94
  -1  -2 -19   26.62    3.58
  -1  -2 -19   32.13    4.22
  -1  -2 -19   25.57    2.69
  -1  -2 -20   -0.30    1.34
  -1  -2 -20    0.13    0.57
  -1  -2 -20    0.24    0.97
  -1  -2 -20    0.15    0.77
  -1  -2 -21  134.76    7.31
  -1  -2 -21  120.01    7.67
  -1  -2 -21  132.40    8.92
  -1  -2 -21  121.84    8.00
  -1  -2 -22    0.06    0.36
  -1  -2 -22    0.39    0.52
  -1  -2 -22   -0.16    0.84
  -1  -2 -23   16.73    1.77
   1   3 -21    7.79    0.86
   1   3 -21    6.63    0.94
   1   3 -20    2.71    0.73
   1   3 -20    2.86    0.80
   1   3 -20    1.96    0.54
   1   3 -19   39.38    3.45
   1   3 -19   43.63    3.06
   1   3 -19   37.96    3.29
   1   3 -19   39.35    2.76
   1   3 -19   36.55    2.91
   1   3 -18    1.09    0.81
   1   3 -18   -0.46    0.78
   1   3 -18    0.69    0.57
   1   3 -18   -0.65    0.71
   1   3 -18    0.17    0.74
   1   3 -17  366.03   18.08
   1   3 -17  336.47   17.95
   1   3 -17  361.60   19.37
   1   3 -17  361.10   19.29
   1   3 -17  338.22   18.26
   1   3 -17  372.50   18.39
   1   3 -16    3.82    1.04
   1   3 -16    3.79    1.20
   1   3 -16    3.54    0.95
   1   3 -16    3.57    1.37
   1   3 -16    3.81    1.03
   1   3 -16    4.32    1.37
   1   3 -15    1.82    1.02
   1   3 -15    4.23    1.39
   1   3 -15    1.95    0.94
   1   3 -15    1.88    1.17
   1   3 -15    3.14    0.97
   1   3 -14   37.17    3.40
   1   3 -14   38.12    3.53
   1   3 -14   45.46    4.24
   1   3 -14   36.60    3.17
   1   3 -14   39.81    3.37
   1   3 -14   38.11    3.96
   1   3 -13   54.84    4.26
   1   3 -13   50.37    4.64
   1   3 -13   51.35    4.00
   1   3 -13   51.10    3.84
   1   3 -13   48.73    4.03
   1   3 -13   49.91    3.96
   1   3 -13   54.61    4.69
   1   3 -12  167.32   10.35
   1   3 -12  182.74   10.45
   1   3 -12  195.08   10.60
   1   3 -12  193.42   11.19
   1   3 -12  172.08   10.23
   1   3 -12  194.76   10.17
   1   3 -12  173.55   11.01
   1   3 -11   28.34    2.50
   1   3 -11   27.74    2.91
   1   3 -11   25.63    2.35
   1   3 -11   23.79    2.53
   1   3 -11   24.95    2.46
   1   3 -11   25.85    2.90
   1   3 -11   22.55    2.48
   1   3 -11   27.04    2.62
   1   3 -10   24.40    2.44
   1   3 -10   24.18    2.61
   1   3 -10   24.21    2.34
   1   3 -10   22.10    2.14
   1   3 -10   23.47    2.20
   1   3 -10   23.81    2.67
   1   3  -9    0.97    0.54
   1   3  -9    0.90    0.68
   1   3  -8    2.37    0.80
   1   3  -8    1.44    0.56
   1   3  -7   54.44    3.40
   1   3  -7   43.04    2.57
   1   3  -6   83.64    4.36
  -1  -3   6   76.24    4.16
  -1  -3   5    3.66    0.59
   1   3  -5    3.86    0.59
   1   3  -4  114.72    6.41
  -1  -3   4  119.06    6.19
  -1  -3   3    2.04    0.47
   1   3  -3    1.75    0.52
   1   3  -2   64.53    3.73
  -1  -3   2   62.22    3.49
  -1  -3   1   48.50    2.79
  -1  -3   0   66.86    3.65
  -1  -3  -1  651.63   31.04
  -1  -3  -2  252.74   12.32
   1   3   3   37.02    2.28
  -1  -3  -3   35.20    2.11
  -1  -3  -4   27.82    1.82
  -1  -3  -4   28.75    1.78
  -1  -3  -5   25.15    1.73
  -1  -3  -5   28.75    1.77
  -1  -3  -6   43.27    2.57
   1   3   6   43.54    2.72
  -1  -3  -7    3.45    0.51
   1   3   7    2.98    0.58
  -1  -3  -8   64.84    3.80
   1   3   8   66.57    3.81
  -1  -3  -8   66.52    3.55
  -1  -3  -9   39.24    2.33
  -1  -3  -9   40.93    2.77
  -1  -3  -9   47.03    2.80
  -1  -3 -10    1.28    0.55
  -1  -3 -10    1.72    0.55
  -1  -3 -11  641.22   32.38
  -1  -3 -11  689.27   32.31
  -1  -3 -12   10.99    1.33
  -1  -3 -12    8.80    1.29
  -1  -3 -13   86.04    5.25
  -1  -3 -13   87.80    5.43
  -1  -3 -13   86.89    6.50
  -1  -3 -13   77.87    5.60
  -1  -3 -14   30.21    2.68
  -1  -3 -14   34.06    2.91
  -1  -3 -14   26.49    2.82
  -1  -3 -14   34.14    3.80
  -1  -3 -15  137.13    8.47
  -1  -3 -15  152.72    9.01
  -1  -3 -15  160.45   10.38
  -1  -3 -15  144.51    8.66
  -1  -3 -16    4.89    1.24
  -1  -3 -16    5.84    1.86
  -1  -3 -16    6.40    1.34
  -1  -3 -16    2.68    1.03
  -1  -3 -17    0.36    1.21
  -1  -3 -17    0.33    0.59
  -1  -3 -17   -0.32    1.30
  -1  -3 -17    0.33    0.83
  -1  -3 -18  182.59   10.72
  -1  -3 -18  197.81   11.11
  -1  -3 -18  192.66   12.78
  -1  -3 -18  173.23   12.89
  -1  -3 -19    5.98    1.24
  -1  -3 -19    9.21    2.28
  -1  -3 -19    5.22    1.40
  -1  -3 -19    6.26    1.93
  -1  -3 -20   36.40    4.09
  -1  -3 -20   33.89    4.23
  -1  -3 -20   37.46    3.02
  -1  -3 -20   38.34    3.40
  -1  -3 -21    7.05    1.26
  -1  -3 -21    7.31    1.72
  -1  -3 -21    8.02    1.52
  -1  -3 -21    5.70    0.98
  -1  -3 -22   31.41    3.08
  -1  -3 -23   36.61    2.92
   1   4 -20   15.39    1.52
   1   4 -20   19.55    1.64
   1   4 -20   15.53    1.34
   1   4 -19   48.34    3.01
   1   4 -19   44.52    3.33
   1   4 -19   41.58    3.01
   1   4 -18   49.07    3.37
   1   4 -18   50.07    3.87
   1   4 -18   47.61    3.41
   1   4 -17   18.04    2.30
   1   4 -17   18.28    2.01
   1   4 -17   19.12    1.96
   1   4 -17   19.12    1.94
   1   4 -17   22.14    2.52
   1   4 -16   -0.14    0.70
   1   4 -16    0.35    0.78
   1   4 -16    0.20    0.81
   1   4 -16    0.19    0.69
   1   4 -16   -0.13    0.68
   1   4 -15   28.85    3.14
   1   4 -15   22.40    2.49
   1   4 -15   26.80    3.02
   1   4 -15   25.48    2.64
   1   4 -15   23.20    2.52
   1   4 -14  183.42   10.76
   1   4 -14  199.69   10.84
   1   4 -14  177.20   10.56
   1   4 -14  206.47   11.71
   1   4 -14  184.92   10.88
   1   4 -14  193.62   11.53
   1   4 -13   37.34    3.29
   1   4 -13   35.77    3.31
   1   4 -13   38.64    3.30
   1   4 -13   35.69    3.33
   1   4 -13   37.30    3.73
   1   4 -13   35.97    3.67
   1   4 -12   15.86    2.00
   1   4 -12   13.25    1.91
   1   4 -12   14.80    1.99
   1   4 -12   11.24    1.67
   1   4 -12   10.58    1.96
   1   4 -12   12.56    2.06
   1   4 -12   15.13    1.93
   1   4 -11  156.81    9.61
   1   4 -11  157.38    8.98
   1   4 -11  157.23    9.25
   1   4 -11  148.48    8.95
   1   4 -11  142.35    8.85
   1   4 -11  165.96    9.41
   1   4 -11  157.28    9.53
   1   4 -11  151.16    9.02
   1   4 -10    3.00    0.96
   1   4 -10    2.11    0.83
   1   4 -10    1.22    0.78
   1   4 -10    2.04    0.70
   1   4 -10    2.26    0.76
   1   4 -10    2.85    1.09
   1   4 -10    2.96    0.99
   1   4 -10    4.23    1.16
   1   4 -10    1.85    0.86
   1   4 -10    2.48    0.84
   1   4  -9  113.69    6.81
   1   4  -9  102.37    6.25
   1   4  -9  103.54    6.51
   1   4  -9  107.66    6.40
   1   4  -9  104.89    6.38
   1   4  -9  107.93    6.81
   1   4  -9   97.05    6.75
   1   4  -9  107.06    6.40
   1   4  -8  335.05   17.19
   1   4  -7  179.39    9.43
   1   4  -7  164.71    8.74
   1   4  -6   34.42    2.29
  -1  -4   6   28.99    2.08
   1   4  -5   63.60    3.73
  -1  -4   5   59.36    3.68
   1   4  -4  348.02   16.76
  -1  -4   4  320.90   16.42
   1   4  -3   13.62    1.44
  -1  -4   3   15.24    1.37
  -1  -4   2    1.11    0.48
   1   4  -2    1.07    0.44
  -1  -4   1   54.51    3.32
   1   4  -1   55.63    3.39
  -1  -4   0  240.94   12.07
  -1  -4  -1    2.25    0.56
   1   4   2    7.83    0.97
  -1  -4  -2    8.04    0.92
   1   4   3 1269.75   58.05
  -1  -4  -3 1187.49   57.67
  -1  -4  -4   21.14    1.65
  -1  -4  -4   21.09    1.60
   1   4   4   20.92    1.77
   1   4   5  142.75    7.35
  -1  -4  -5  132.88    7.06
  -1  -4  -5  129.03    7.01
  -1  -4  -6    6.13    0.86
  -1  -4  -6    6.94    0.86
  -1  -4  -7  148.18    7.35
   1   4   7  130.92    7.68
  -1  -4  -8  400.02   19.66
  -1  -4  -8  413.60   19.41
   1   4   8  375.76   19.87
  -1  -4  -9    0.08    0.51
   1   4   9    0.09    0.37
  -1  -4  -9    0.16    0.37
  -1  -4  -9    0.34    0.29
  -1  -4 -10  268.16   12.39
  -1  -4 -10  265.31   12.37
  -1  -4 -11    1.57    0.59
  -1  -4 -11    1.56    0.76
  -1  -4 -12  267.56   13.89
  -1  -4 -12  263.20   13.89
  -1  -4 -13    1.31    0.80
  -1  -4 -13    0.38    0.71
  -1  -4 -13   -0.12    0.48
  -1  -4 -14  306.23   16.48
  -1  -4 -14  316.58   16.42
  -1  -4 -14  316.93   16.56
  -1  -4 -14  313.36   18.46
  -1  -4 -15   11.58    1.79
  -1  -4 -15   10.69    1.62
  -1  -4 -15   12.79    2.62
  -1  -4 -15    9.84    1.57
  -1  -4 -16    2.12    0.83
  -1  -4 -16    1.17    0.79
  -1  -4 -16    0.68    0.92
  -1  -4 -16    0.35    1.28
  -1  -4 -17  387.29   20.51
  -1  -4 -17  386.24   22.67
  -1  -4 -17  383.36   20.01
  -1  -4 -18    2.10    0.75
  -1  -4 -18    2.49    1.77
  -1  -4 -18    2.01    1.18
  -1  -4 -18    2.53    1.46
  -1  -4 -19  198.23   11.41
  -1  -4 -19  186.23   12.79
  -1  -4 -19  216.14   13.10
  -1  -4 -19  193.86   10.87
  -1  -4 -20    5.12    1.53
  -1  -4 -20    6.54    1.92
  -1  -4 -20    4.86    1.14
  -1  -4 -21   24.84    3.02
  -1  -4 -21   23.70    2.76
  -1  -4 -22   77.94    5.14
  -1  -4 -22   59.69    4.28
  -1  -4 -23    1.08    0.58
   1   5 -19    2.77    0.59
   1   5 -19    3.77    0.70
   1   5 -19    3.35    0.81
   1   5 -18    0.67    0.51
   1   5 -18    0.39    0.55
   1   5 -18    1.43    0.49
   1   5 -18    1.43    0.59
   1   5 -18    1.77    0.75
   1   5 -17    3.29    0.91
   1   5 -17    3.82    1.01
   1   5 -17    2.56    0.91
   1   5 -17    2.97    0.80
   1   5 -17    2.34    0.73
   1   5 -16   11.50    1.51
   1   5 -16    9.66    1.59
   1   5 -16    7.80    1.38
   1   5 -16    9.57    1.59
   1   5 -15   95.75    6.12
   1   5 -15   91.18    5.93
   1   5 -15   91.52    6.22
   1   5 -15   85.23    5.86
   1   5 -15   88.55    6.23
   1   5 -14   60.48    4.88
   1   5 -14   68.08    4.85
   1   5 -14   62.09    4.55
   1   5 -14   63.50    4.77
   1   5 -14   61.14    4.98
   1   5 -14   69.01    4.88
   1   5 -13   20.61    2.30
   1   5 -13   17.73    2.44
   1   5 -13   18.93    2.33
   1   5 -13   18.83    2.28
   1   5 -13   23.21    2.53
   1   5 -13   20.91    2.56
   1   5 -13   18.30    2.36
   1   5 -12   93.72    6.24
   1   5 -12   78.69    5.90
   1   5 -12   95.59    6.40
   1   5 -12   82.94    6.15
   1   5 -12   93.06    6.03
   1   5 -12   87.45    5.97
   1   5 -12   90.97    5.91
   1   5 -12   84.72    6.11
   1   5 -11    7.61    1.54
   1   5 -11    7.76    1.53
   1   5 -11    9.40    1.61
   1   5 -11    8.61    1.56
   1   5 -11    8.89    1.47
   1   5 -11    9.78    1.71
   1   5 -11    6.79    1.44
   1   5 -11    7.87    1.43
   1   5 -10   89.12    5.56
   1   5 -10   78.19    5.65
   1   5 -10   75.36    5.25
   1   5 -10   81.00    5.92
   1   5 -10   79.99    5.75
   1   5 -10   82.21    5.58
   1   5 -10   84.44    5.85
   1   5 -10   89.25    5.61
   1   5 -10   87.69    5.98
   1   5  -9   51.14    3.73
   1   5  -9   45.81    3.53
   1   5  -9   42.30    3.47
   1   5  -9   41.71    3.73
   1   5  -9   46.50    3.84
   1   5  -9   51.13    4.14
   1   5  -9   48.66    3.65
   1   5  -8  425.26   21.69
   1   5  -8  446.21   21.41
   1   5  -8  404.16   21.24
   1   5  -8  425.94   21.40
   1   5  -8  428.75   21.47
   1   5  -8  404.21   21.65
   1   5  -7    2.81    0.66
   1   5  -7    3.87    0.89
  -1  -5   6   31.23    2.33
   1   5  -6   29.29    2.34
   1   5  -5    8.25    1.14
  -1  -5   5    9.51    1.19
   1   5  -4   34.79    2.74
  -1  -5   4   34.60    2.54
   1   5  -3   85.25    5.03
   1   5  -3   79.35    4.86
  -1  -5   3   77.46    4.69
   1   5  -2  108.04    6.17
  -1  -5   2  106.40    5.96
   1   5  -1  155.31    8.40
  -1  -5   1  151.80    8.16
  -1  -5   0  103.57    5.80
  -1  -5  -1   18.59    1.67
  -1  -5  -2   56.26    3.53
   1   5   3   29.08    2.31
   1   5   4  456.21   21.70
  -1  -5  -4  423.01   21.45
  -1  -5  -5    6.07    0.93
   1   5   5    7.46    1.10
  -1  -5  -5    6.30    0.91
  -1  -5  -6  573.04   28.65
   1   5   6  629.28   29.08
  -1  -5  -6  587.25   28.68
  -1  -5  -7   88.43    5.05
  -1  -5  -7   87.85    5.10
  -1  -5  -7   87.53    4.97
  -1  -5  -8   13.79    1.45
  -1  -5  -8   15.33    1.38
   1   5   8   14.11    1.66
  -1  -5  -9  204.11   10.79
   1   5   9  212.06   11.18
  -1  -5  -9  200.77   10.42
  -1  -5 -10    7.52    1.17
   1   5  10    4.75    1.03
  -1  -5 -10    5.31    1.08
  -1  -5 -10    4.14    0.73
  -1  -5 -11  292.35   15.32
  -1  -5 -11  294.90   15.22
  -1  -5 -12   24.66    2.34
  -1  -5 -12   24.55    2.47
   1   5  12   26.54    3.28
  -1  -5 -13   72.14    5.01
   1   5  13   72.29    6.13
  -1  -5 -13   64.99    4.65
  -1  -5 -13   72.17    4.78
  -1  -5 -14   66.49    4.93
  -1  -5 -14   63.75    4.57
  -1  -5 -14   70.69    4.71
  -1  -5 -15    1.75    0.71
  -1  -5 -15    0.67    1.18
  -1  -5 -15    1.82    0.89
  -1  -5 -16  160.62    9.48
  -1  -5 -16  172.03    9.98
  -1  -5 -16  168.13   11.99
  -1  -5 -17    1.69    1.36
  -1  -5 -17    1.19    0.69
  -1  -5 -17    0.34    0.75
  -1  -5 -18   46.92    3.72
  -1  -5 -18   54.20    4.24
  -1  -5 -18   55.45    5.48
  -1  -5 -19   35.78    3.18
  -1  -5 -19   33.14    3.88
  -1  -5 -19   31.70    3.90
  -1  -5 -20   12.47    2.22
  -1  -5 -20   13.05    2.28
  -1  -5 -21   35.05    3.38
  -1  -5 -21   40.51    3.69
  -1  -5 -22    1.52    0.63
  -1  -5 -22    1.12    0.83
  -1  -5 -23   72.95    4.68
   1   6 -19    3.81    0.61
   1   6 -19    3.00    0.65
   1   6 -18    0.60    0.65
   1   6 -18    0.16    0.41
   1   6 -17    8.87    1.20
   1   6 -17   12.89    1.62
   1   6 -17   10.99    1.22
   1   6 -17   10.82    1.35
   1   6 -16   40.66    3.27
   1   6 -16   39.81    2.96
   1   6 -16   40.30    3.06
   1   6 -16   33.36    2.95
   1   6 -15   40.21    3.26
   1   6 -15   37.09    3.28
   1   6 -15   40.96    3.37
   1   6 -15   43.32    3.60
   1   6 -15   41.48    3.30
   1   6 -14   67.59    4.86
   1   6 -14   69.18    4.95
   1   6 -14   61.26    4.74
   1   6 -14   63.82    4.74
   1   6 -14   66.30    4.60
   1   6 -13   22.70    2.53
   1   6 -13   24.29    2.62
   1   6 -13   23.11    2.58
   1   6 -13   24.00    2.62
   1   6 -13   23.62    2.55
   1   6 -13   21.58    2.61
   1   6 -12    2.33    1.00
   1   6 -12    4.27    1.13
   1   6 -12    4.32    1.20
   1   6 -12    5.16    1.28
   1   6 -12    4.99    1.36
   1   6 -12    4.34    1.27
   1   6 -11   48.18    3.83
   1   6 -11   52.40    4.32
   1   6 -11   42.81    3.81
   1   6 -11   42.53    3.82
   1   6 -11   50.53    4.15
   1   6 -11   47.46    3.94
   1   6 -10  118.08    7.48
   1   6 -10  108.67    7.12
   1   6 -10  102.89    7.01
   1   6 -10  119.26    7.71
   1   6 -10  109.10    7.20
   1   6 -10  114.14    6.96
   1   6  -9   27.17    2.50
   1   6  -9   22.44    2.48
   1   6  -9   29.27    3.09
   1   6  -9   21.51    2.47
   1   6  -9   23.65    2.54
   1   6  -8   49.65    4.31
   1   6  -8   43.30    3.73
   1   6  -8   54.59    3.68
   1   6  -8   46.10    3.77
   1   6  -8   45.17    3.76
   1   6  -8   51.70    3.80
   1   6  -7   73.79    4.49
   1   6  -7   66.52    4.73
   1   6  -7   70.60    5.35
   1   6  -7   71.61    4.84
   1   6  -7   72.71    4.80
   1   6  -7   61.97    4.61
   1   6  -7   62.76    4.42
   1   6  -6   78.60    5.01
   1   6  -6   73.37    4.99
  -1  -6   6   78.64    4.93
  -1  -6   5    1.16    0.63
   1   6  -5    1.93    0.67
   1   6  -4  133.50    7.93
  -1  -6   4  141.74    7.78
   1   6  -3   21.05    2.11
  -1  -6   3   22.00    1.98
   1   6  -2   22.92    2.24
  -1  -6   2   20.16    1.86
   1   6  -2   20.29    2.08
  -1  -6   1    1.13    0.60
   1   6  -1    0.49    0.60
  -1  -6   0   48.22    3.31
  -1  -6  -1  468.10   23.11
  -1  -6  -2    0.68    0.60
   1   6   3  662.83   32.42
   1   6   4    4.38    0.93
   1   6   5   79.80    4.99
  -1  -6  -5   78.56    4.76
  -1  -6  -6  114.38    6.46
   1   6   6  114.18    6.71
  -1  -6  -7    0.67    0.52
  -1  -6  -8  208.76   10.87
  -1  -6  -9    3.37    0.74
   1   6   9    2.25    0.76
  -1  -6 -10  269.62   14.22
   1   6  10  300.48   15.04
  -1  -6 -11    4.63    0.79
  -1  -6 -11    2.73    0.84
   1   6  11    1.97    0.97
   1   6  12   46.41    4.38
  -1  -6 -12   47.80    3.62
   1   6  13  308.83   17.64
  -1  -6 -13  312.11   16.37
   1   6  14   -0.25    0.88
  -1  -6 -14    0.22    0.64
  -1  -6 -14    0.43    0.79
  -1  -6 -15  124.09    7.75
  -1  -6 -16    0.91    1.39
  -1  -6 -17   74.20    6.56
  -1  -6 -18   25.61    3.51
  -1  -6 -19    4.15    1.45
  -1  -6 -20   37.19    3.75
  -1  -6 -21   -0.15    0.61
  -1  -6 -21   -0.33    0.87
  -1  -6 -22   40.14    3.25
  -1  -6 -22   60.49    4.02
  -1  -6 -23    5.68    0.97
   1   7 -18   -0.36    0.46
   1   7 -17    5.33    0.83
   1   7 -17    4.83    0.95
   1   7 -17    4.15    0.88
   1   7 -16   13.84    1.62
   1   7 -16   13.51    1.54
   1   7 -16   12.42    1.52
   1   7 -15    2.99    0.97
   1   7 -15    4.17    1.11
   1   7 -15    3.03    0.77
   1   7 -15    4.97    0.95
   1   7 -15    4.98    1.14
   1   7 -14   13.98    1.63
   1   7 -14   15.69    1.89
   1   7 -14   11.11    1.61
   1   7 -14   15.52    1.99
   1   7 -13    2.15    0.88
   1   7 -13    1.74    0.99
   1   7 -13    2.18    0.81
   1   7 -13    1.52    0.90
   1   7 -13    1.37    0.78
   1   7 -12  140.38    8.23
   1   7 -12  142.24    8.73
   1   7 -12  122.39    8.10
   1   7 -12  143.44    8.63
   1   7 -12  149.07    8.64
   1   7 -11   14.71    2.24
   1   7 -11   18.04    2.07
   1   7 -11   16.47    2.24
   1   7 -11   16.58    2.00
   1   7 -11   15.99    2.22
   1   7 -10    1.17    0.90
   1   7 -10    1.58    1.13
   1   7 -10    1.77    0.99
   1   7 -10    1.48    0.88
   1   7 -10    2.05    0.91
   1   7 -10    1.90    0.84
   1   7  -9   84.97    6.01
   1   7  -9   93.61    5.75
   1   7  -9  100.01    6.87
   1   7  -9   84.79    5.86
   1   7  -8   31.51    2.75
   1   7  -8   35.69    3.72
   1   7  -8   40.30    3.28
   1   7  -8   32.76    3.02
   1   7  -7  206.32   10.92
   1   7  -7  213.97   12.41
   1   7  -7  222.11   11.43
   1   7  -7  183.51   11.11
  -1  -7   6   21.28    2.43
   1   7  -6   27.65    2.44
   1   7  -6   25.02    2.13
   1   7  -6   24.67    2.54
   1   7  -6   26.01    2.40
  -1  -7   5  183.17   10.27
   1   7  -5  169.34    9.81
   1   7  -5  176.56   10.42
   1   7  -5  191.73    9.93
   1   7  -4    1.15    0.62
  -1  -7   4    0.88    0.67
   1   7  -4    0.17    0.70
   1   7  -3  173.86    9.68
  -1  -7   3  161.26    9.24
   1   7  -2   70.44    4.83
  -1  -7   2   64.05    4.38
  -1  -7   1    4.24    0.88
   1   7  -1    2.75    0.91
  -1  -7   0  448.17   22.83
   1   7   0  472.22   23.35
  -1  -7  -1    2.46    0.78
  -1  -7  -2  837.04   40.57
  -1  -7  -3   15.87    1.76
   1   7   3   20.52    2.08
   1   7   4  140.03    8.12
  -1  -7  -5  229.48   11.97
   1   7   5  223.05   12.20
   1   7   6    9.32    1.42
  -1  -7  -6    9.83    1.32
  -1  -7  -7   94.92    5.73
  -1  -7  -8    9.21    1.28
   1   7   9  309.03   16.72
  -1  -7  -9  328.93   16.20
   1   7   9  301.55   16.81
   1   7  10    9.71    1.75
  -1  -7 -10    7.22    1.21
  -1  -7 -11  130.52    7.73
   1   7  11  157.34    9.25
   1   7  12  250.83   14.48
   1   7  13    0.91    0.92
   1   7  14  172.69   10.99
  -1  -7 -15   16.17    2.41
   1   7  15   16.44    2.50
  -1  -7 -16  149.81   10.32
  -1  -7 -17    1.33    1.33
  -1  -7 -18   24.97    3.21
  -1  -7 -19  140.73    9.20
  -1  -7 -20   -0.53    0.87
  -1  -7 -21   71.76    5.00
   1   8 -17    0.38    0.36
   1   8 -16   23.43    1.94
   1   8 -16   26.29    2.08
   1   8 -16   28.18    2.13
   1   8 -15    6.71    1.08
   1   8 -15    9.13    1.33
   1   8 -15    6.78    1.17
   1   8 -14    2.39    0.94
   1   8 -14    3.92    0.84
   1   8 -14    4.34    0.94
   1   8 -13   25.56    2.49
   1   8 -13   26.25    2.39
   1   8 -12    1.09    0.79
   1   8 -12    1.41    0.86
   1   8 -12    2.80    0.92
   1   8 -12    1.35    0.84
   1   8 -11  113.88    7.61
   1   8 -11  106.99    6.61
   1   8 -11  109.56    7.28
   1   8 -11  107.27    6.94
   1   8 -11  120.61    7.65
   1   8 -10   38.55    3.19
   1   8 -10   43.31    3.58
   1   8 -10   37.37    3.71
   1   8 -10   44.90    4.17
   1   8 -10   47.23    4.24
   1   8  -9   22.04    2.97
   1   8  -9   22.22    2.43
   1   8  -9   22.66    2.20
   1   8  -9   23.75    3.01
   1   8  -8  173.00   10.72
   1   8  -8  154.20    8.92
   1   8  -8  167.67    9.39
   1   8  -7   15.73    1.73
   1   8  -7   18.53    2.07
   1   8  -7   17.67    2.70
   1   8  -6   57.48    4.95
   1   8  -6   71.26    4.58
   1   8  -5    0.60    0.77
   1   8  -5    0.85    0.63
   1   8  -5   -0.20    0.76
  -1  -8   5    0.83    0.66
   1   8  -4   69.92    5.80
   1   8  -4   83.31    5.59
  -1  -8   4   70.98    5.23
   1   8  -4   80.16    5.97
   1   8  -3    1.62    0.87
  -1  -8   3    0.99    0.67
   1   8  -3    0.21    0.79
   1   8  -3    2.96    0.99
   1   8  -2    0.54    0.66
  -1  -8   2   -0.13    0.58
   1   8  -2    0.19    0.72
  -1  -8   2    1.48    0.55
  -1  -8   1  239.08   13.42
   1   8  -1  242.25   13.99
   1   8   0    3.72    1.05
  -1  -8   0    4.05    1.00
   1   8   0    3.29    0.98
  -1  -8  -1  122.25    6.91
   1   8   1  101.28    7.03
  -1  -8  -2   53.25    3.91
  -1  -8  -3   26.64    2.47
   1   8   3   25.28    2.65
   1   8   3   27.02    2.71
   1   8   4  144.64    8.74
  -1  -8  -4  150.24    8.54
   1   8   4  145.26    8.76
  -1  -8  -5    2.37    0.86
  -1  -8  -5    4.48    1.05
   1   8   5    3.05    0.88
   1   8   5    2.56    0.95
   1   8   6  243.79   14.00
  -1  -8  -6  268.28   13.73
  -1  -8  -7    6.59    1.21
   1   8   7    7.60    1.39
   1   8   8  163.67   10.15
  -1  -8  -8  183.44    9.87
   1   8   9   39.42    3.49
   1   8   9   33.76    3.27
  -1  -8  -9   33.44    2.97
   1   8   9   32.91    3.22
   1   8  10    0.19    0.84
  -1  -8 -10    0.26    0.57
   1   8  10    1.25    0.80
  -1  -8 -11  210.81   11.91
  -1  -8 -11  212.33   11.91
   1   8  12   15.78    2.39
   1   8  13   69.60    5.74
   1   8  14   11.19    2.10
   1   8  15   67.33    5.42
  -1  -8 -15   55.52    4.96
   1   8  16   12.25    2.14
  -1  -8 -16   14.46    2.21
  -1  -8 -17    0.48    1.00
  -1  -8 -18  205.88   12.41
  -1  -8 -19    0.19    0.84
  -1  -8 -20   88.45    5.86
  -1  -8 -20   78.53    5.69
  -1  -8 -21   10.31    1.48
  -1  -8 -21    7.80    1.31
  -1  -8 -22    1.25    0.51
   1   9 -15    0.16    0.55
   1   9 -15   -0.10    0.44
   1   9 -14   85.11    4.41
   1   9 -14   63.55    4.07
   1   9 -13    4.57    0.90
   1   9 -13    3.01    0.72
   1   9 -12   57.03    4.41
   1   9 -12   47.66    3.75
   1   9 -12   53.86    3.62
   1   9 -12   46.41    3.35
   1   9 -11    0.81    0.60
   1   9 -11    1.57    1.24
   1   9 -11    1.92    0.80
   1   9 -11    0.18    0.73
   1   9 -10    2.40    1.33
   1   9 -10    1.04    0.71
   1   9 -10    0.37    0.65
   1   9 -10    0.86    0.84
   1   9 -10    1.13    0.66
   1   9  -9  209.93   11.92
   1   9  -9  234.30   12.35
   1   9  -9  232.40   13.38
   1   9  -9  246.42   13.93
   1   9  -9  248.69   13.93
   1   9  -8   23.98    2.41
   1   9  -8   29.12    3.53
   1   9  -8   27.18    3.44
   1   9  -7  309.91   17.34
   1   9  -7  282.04   15.07
   1   9  -6   10.78    1.94
   1   9  -6   12.48    1.61
   1   9  -5   96.16    7.73
   1   9  -5   95.76    7.79
  -1  -9   5  108.64    7.36
   1   9  -5  119.88    6.54
   1   9  -4   65.36    5.83
  -1  -9   4   68.03    5.20
   1   9  -4   74.31    5.92
  -1  -9   3   14.87    2.15
   1   9  -3   16.96    2.59
  -1  -9   3   15.20    1.77
   1   9  -3   16.29    2.46
   1   9  -2  275.83   14.78
   1   9  -2  272.90   14.89
  -1  -9   2  232.73   13.80
  -1  -9   2  249.18   13.42
  -1  -9   1    1.55    0.86
   1   9  -1    0.92    0.73
  -1  -9   1    0.24    0.46
   1   9  -1    0.20    0.67
   1   9   0   60.33    4.99
  -1  -9   0   65.26    4.65
  -1  -9   0   56.65    4.21
   1   9   1    8.76    1.81
  -1  -9  -1    6.94    1.22
  -1  -9  -1    9.10    1.52
   1   9   1    5.20    1.37
  -1  -9  -2   27.03    2.73
  -1  -9  -2   27.12    2.57
   1   9   3  206.60   12.65
  -1  -9  -3  237.60   12.38
  -1  -9  -3  224.60   12.43
  -1  -9  -4    0.59    0.68
   1   9   4   -0.18    0.63
  -1  -9  -5  284.08   15.45
  -1  -9  -5  316.83   15.78
   1   9   5  266.42   15.72
   1   9   6   -0.18    0.67
  -1  -9  -6   -0.15    0.71
   1   9   7  252.82   14.70
  -1  -9  -7  274.41   14.42
  -1  -9  -8   23.18    2.57
   1   9   8   28.10    2.96
   1   9   8   26.52    2.98
   1   9   9    0.20    0.60
   1   9   9    0.56    0.76
   1   9   9    0.95    0.90
  -1  -9  -9    1.07    0.64
   1   9  10   19.79    2.58
  -1  -9 -10   15.65    2.08
   1   9  10   18.40    2.32
   1   9  10   18.61    2.51
   1   9  11   16.47    2.43
  -1  -9 -11   15.03    1.90
  -1  -9 -11   11.29    1.70
  -1  -9 -12   16.77    2.01
   1   9  12   16.54    2.56
   1   9  13   19.01    2.70
   1   9  14   62.09    5.32
   1   9  15   79.22    6.14
  -1  -9 -15   77.59    5.87
  -1  -9 -16    1.97    0.92
   1   9  16    2.39    1.02
   1   9  17   42.54    3.83
  -1  -9 -17   38.31    3.59
  -1  -9 -18    1.15    1.00
  -1  -9 -19   51.00    4.04
  -1  -9 -19   41.30    3.74
  -1  -9 -20   14.29    1.81
  -1  -9 -20   12.73    1.70
  -1  -9 -21    0.76    0.55
   1  10 -13   27.49    2.32
   1  10 -13   24.13    1.75
   1  10 -12   14.65    1.40
   1  10 -12   17.05    1.96
   1  10 -11    8.25    1.53
   1  10 -11    7.81    1.07
   1  10 -10   44.59    3.18
   1  10 -10   54.97    4.23
   1  10 -10   47.85    3.92
   1  10 -10   43.26    4.05
   1  10  -9    1.09    1.10
   1  10  -9   -0.47    0.86
   1  10  -9    0.57    0.97
   1  10  -8  225.64   12.40
   1  10  -8  186.86   12.81
   1  10  -7   17.29    2.38
   1  10  -7   18.07    3.01
   1  10  -7   13.09    1.60
   1  10  -6  151.31   10.31
   1  10  -6  114.60    8.72
   1  10  -5  148.23    9.92
  -1 -10   5  139.45    9.20
   1  10  -4    3.16    1.37
  -1 -10   4    4.35    1.31
   1  10  -4    2.62    1.35
  -1 -10   4    5.31    1.30
   1  10  -3  269.80   15.68
   1  10  -3  310.17   15.75
  -1 -10   3  273.50   14.04
  -1 -10   3  261.95   14.72
  -1 -10   2    0.18    0.60
  -1 -10   2   -0.39    0.61
   1  10  -2   -0.25    0.82
   1  10  -2    0.45    0.80
   1  10  -1   89.95    6.44
   1  10  -1   84.49    6.51
  -1 -10   1   79.39    5.40
  -1 -10   1   73.55    5.70
   1  10   0   53.22    4.65
   1  10   0   53.45    4.80
  -1 -10   0   45.08    4.10
  -1 -10   0   53.13    3.99
   1  10   1   59.79    5.13
   1  10   1   59.51    5.20
  -1 -10  -1   58.40    4.71
  -1 -10  -1   62.97    4.56
  -1 -10  -2   16.67    2.20
   1  10   2   12.32    2.51
  -1 -10  -2   18.46    2.20
  -1 -10  -3    1.46    0.87
   1  10   3    2.08    0.96
  -1 -10  -3    0.17    0.61
  -1 -10  -4  228.67   12.30
   1  10   4  195.54   12.39
   1  10   5    4.88    1.38
   1  10   5    6.41    1.53
   1  10   6   27.66    3.16
  -1 -10  -6   22.19    2.63
   1  10   6   24.31    2.95
   1  10   7  135.48    8.78
  -1 -10  -7  139.23    8.49
   1  10   7  123.62    8.75
  -1 -10  -8  155.13    9.59
   1  10   8  160.75   10.20
   1  10   8  159.60    9.96
   1  10   9    0.22    0.87
  -1 -10  -9    1.02    0.78
   1  10   9    0.62    1.00
  -1 -10  -9    0.85    0.73
   1  10   9    2.28    1.06
   1  10  10    6.48    1.60
   1  10  10    8.53    1.67
  -1 -10 -10    5.12    1.33
  -1 -10 -10    6.38    1.39
   1  10  10    5.31    1.42
  -1 -10 -11  105.82    7.00
   1  10  11  126.45    7.66
   1  10  11  119.63    7.80
   1  10  12    4.34    1.45
  -1 -10 -12    3.34    1.03
   1  10  13   30.24    3.51
   1  10  14  146.67    9.54
   1  10  15    5.92    1.41
  -1 -10 -15    2.68    1.09
   1  10  16   78.07    5.51
  -1 -10 -16   63.92    5.08
   1  10  17    4.25    1.13
  -1 -10 -17    5.58    1.18
  -1 -10 -18   20.55    2.44
  -1 -10 -19    1.81    0.77
  -1 -10 -19    1.86    0.80
  -1 -10 -20    5.51    1.05
  -1 -10 -20    6.21    1.01
   1  11 -12    6.18    0.95
   1  11 -11   50.07    3.45
   1  11 -10    3.83    0.97
   1  11 -10    3.73    1.17
   1  11  -9   33.69    3.61
   1  11  -9   34.48    3.01
   1  11  -8   21.67    2.45
   1  11  -8   19.89    3.03
   1  11  -7    1.32    0.96
   1  11  -7    1.23    0.79
   1  11  -7    0.29    1.19
   1  11  -6   27.27    4.02
   1  11  -6   24.98    2.78
   1  11  -5    4.52    1.35
   1  11  -5    2.82    1.12
   1  11  -5    4.17    1.87
   1  11  -4  136.53    8.58
  -1 -11   4  105.80    7.72
   1  11  -3    0.68    0.88
  -1 -11   3    0.25    0.56
  -1 -11   3    0.57    0.79
   1  11  -2   20.22    2.79
  -1 -11   2   18.53    2.13
   1  11  -2   18.14    2.79
  -1 -11   2   12.75    2.21
  -1 -11   2   16.76    2.31
   1  11  -1   36.10    3.76
   1  11  -1   32.99    3.73
  -1 -11   1   33.36    3.04
  -1 -11   1   21.84    2.98
  -1 -11   1   34.38    3.42
   1  11   0    6.93    1.84
  -1 -11   0    5.84    1.46
  -1 -11   0    7.56    1.60
  -1 -11   0    9.83    1.57
   1  11   0    5.95    1.69
   1  11   1   53.23    4.95
   1  11   1   54.42    5.08
  -1 -11  -1   50.43    4.57
  -1 -11  -1   61.16    4.53
  -1 -11  -2    0.19    0.84
  -1 -11  -2    0.17    0.81
   1  11   3  120.17    8.84
   1  11   3  141.77    8.89
  -1 -11  -3  117.25    8.12
   1  11   4   13.92    2.39
   1  11   4    9.33    2.10
  -1 -11  -4    8.89    1.88
   1  11   5    7.87    1.73
   1  11   5    6.83    1.71
  -1 -11  -6  192.71   11.97
   1  11   6  216.61   12.52
   1  11   6  205.32   12.61
   1  11   7    4.00    1.37
  -1 -11  -7    5.26    1.43
  -1 -11  -7    3.94    1.31
   1  11   7    1.69    1.22
   1  11   8   68.90    5.36
  -1 -11  -8   51.61    4.80
   1  11   8   56.18    5.17
  -1 -11  -8   63.30    4.99
   1  11   8   63.04    5.18
  -1 -11  -9    0.71    0.80
   1  11   9   -0.42    0.94
   1  11   9    0.43    0.79
   1  11   9    0.23    0.91
  -1 -11  -9   -0.37    0.89
   1  11  10  164.54   10.06
  -1 -11 -10  145.78    9.55
   1  11  10  167.63   10.27
  -1 -11 -11   11.59    1.92
   1  11  11   15.44    2.24
   1  11  11   12.74    2.30
  -1 -11 -12    5.31    1.28
   1  11  12    5.67    1.48
   1  11  13   36.99    3.80
   1  11  14    7.71    1.69
   1  11  15   85.80    6.09
  -1 -11 -15   83.42    5.85
  -1 -11 -16   -0.39    0.74
   1  11  16    0.74    0.77
  -1 -11 -17   28.09    2.54
   1  11  17   29.79    2.69
  -1 -11 -18   12.11    1.67
  -1 -11 -18    7.55    1.28
  -1 -11 -19    0.40    0.44
   1  12 -10   43.46    2.77
   1  12  -9    2.52    0.68
   1  12  -9    1.87    0.72
   1  12  -8    1.41    0.65
   1  12  -8    1.35    0.85
   1  12  -7   42.98    3.16
   1  12  -7   41.23    4.03
   1  12  -6    4.31    1.05
   1  12  -6    6.29    1.70
   1  12  -5   37.70    3.12
   1  12  -5   43.24    4.46
   1  12  -4    6.35    1.49
   1  12  -4    5.44    1.17
   1  12  -4    7.71    2.05
   1  12  -3   39.86    3.88
   1  12  -3   40.32    3.21
  -1 -12   3   36.30    3.62
   1  12  -2   51.71    4.53
  -1 -12   2   42.63    4.04
   1  12  -2   42.41    3.44
   1  12  -1   14.06    1.80
  -1 -12   1   15.11    2.20
   1  12  -1   14.27    2.31
   1  12   0   70.20    5.61
  -1 -12   0   62.11    5.15
   1  12   1    0.67    0.97
  -1 -12  -1    2.50    1.07
  -1 -12  -2   14.51    2.28
   1  12   3    2.04    1.08
  -1 -12  -3    3.30    1.21
   1  12   4   11.09    2.10
   1  12   4   14.05    2.35
  -1 -12  -4   14.19    2.23
   1  12   5  126.94    8.33
   1  12   5  119.92    8.75
   1  12   5  147.66    9.15
   1  12   6    4.02    1.30
   1  12   6    0.89    0.90
  -1 -12  -6    2.90    1.15
   1  12   6    4.30    1.32
   1  12   7   79.54    6.23
   1  12   7   68.72    6.07
  -1 -12  -7   88.19    6.12
  -1 -12  -8    6.19    1.47
   1  12   8    4.69    1.41
   1  12   9   69.52    5.40
  -1 -12  -9   58.52    4.97
   1  12   9   66.75    5.34
  -1 -12 -10   17.50    2.39
   1  12  10   24.65    2.90
   1  12  10   18.17    2.50
   1  12  11    2.00    1.09
   1  12  11    2.07    0.89
  -1 -12 -11    2.35    0.91
   1  12  12   92.69    6.30
  -1 -12 -12   74.49    5.41
   1  12  13   -0.36    0.81
  -1 -12 -14   34.69    3.29
   1  12  14   44.34    3.72
  -1 -12 -15    0.12    0.61
   1  12  15    0.84    0.70
  -1 -12 -16    7.04    1.10
   1  12  16    5.66    1.12
  -1 -12 -16    8.58    1.48
  -1 -12 -17   15.11    1.78
   1  13  -7    2.05    0.74
   1  13  -6   30.00    2.11
   1  13  -6   33.72    2.97
   1  13  -5    0.30    0.69
   1  13  -5   -0.34    0.48
   1  13  -4   15.13    2.26
   1  13  -3   41.66    3.64
  -1 -13   2    0.44    0.63
   1  13  -2    1.30    0.79
   1  13  -1  119.28    7.44
  -1 -13   1   94.98    6.88
   1  13   0    2.07    0.99
  -1 -13   0    1.50    0.82
  -1 -13  -1   15.04    2.22
   1  13   1   12.61    1.80
   1  13   2    9.83    1.58
  -1 -13  -2    9.71    1.78
   1  13   3   15.79    2.06
  -1 -13  -3   17.71    2.38
  -1 -13  -4   12.79    2.11
   1  13   4   15.23    2.36
   1  13   4   14.90    2.02
   1  13   5    1.21    0.96
   1  13   5    1.46    0.92
   1  13   6  109.93    7.48
   1  13   6  104.34    6.99
  -1 -13  -7    1.57    0.93
   1  13   7    0.86    0.87
   1  13   7    0.39    0.78
  -1 -13  -8   29.24    3.04
   1  13   8   26.99    3.06
  -1 -13  -9   10.65    1.79
   1  13   9    9.77    1.82
   1  13   9   15.57    2.10
   1  13   9   10.03    1.89
  -1 -13 -10   -0.15    0.73
   1  13  10    0.31    0.70
   1  13  10    0.51    0.87
   1  13  10    0.65    0.65
   1  13  11   55.45    4.25
  -1 -13 -11   47.56    4.11
   1  13  11   53.01    4.43
   1  13  12    3.52    1.09
   1  13  12    1.30    0.79
   1  13  13   55.23    3.93
   1  13  13   34.99    3.48
   1  13  14    0.81    0.62
  -1 -13 -14    1.52    0.71
   1  13  14    1.29    0.74
  -1 -13 -15   10.97    1.28
  -1 -13 -15   15.07    1.70
   1  13  15   12.14    1.51
  -1 -13 -16    8.62    1.24
   1  14  -4    3.51    0.86
   1  14  -1    2.92    1.02
   1  14  -1    2.91    0.92
  -1 -14   0   26.56    2.82
   1  14   0   30.75    3.15
  -1 -14  -1    8.92    1.51
   1  14   1    6.64    1.41
   1  14   1    6.18    1.44
   1  14   2    5.32    1.35
  -1 -14  -2    5.52    1.23
   1  14   3   34.40    2.83
  -1 -14  -3   29.77    3.07
   1  14   4    0.82    0.64
  -1 -14  -4    0.58    0.58
   1  14   4   -0.16    0.75
   1  14   5   45.94    3.53
   1  14   5   41.60    3.84
   1  14   6   -0.15    0.75
   1  14   6   -0.38    0.74
  -1 -14  -7    2.06    0.85
   1  14   7    1.18    0.72
   1  14   7    0.91    0.74
  -1 -14  -8   19.32    2.35
   1  14   8   22.17    2.42
   1  14   9    1.60    0.72
   1  14  10    5.92    1.18
   1  14  10   12.26    1.61
   1  14  11    3.08    0.89
  -1 -14 -12    2.83    0.83
   1  14  12    3.93    0.92
   1  14  13    0.08    0.47
  -1 -14 -13   -0.14    0.37
   1  15   0    0.32    0.40
   1  15   1   -0.07    0.36
   1  15   1   -0.07    0.36
   1  15   2   17.38    1.67
   1  15   2    6.23    1.18
   1  15   3    0.08    0.50
   1  15   4   22.04    1.96
   1  15   4    5.94    1.13
   1  15   5    0.19    0.34
   1  15   5    0.10    0.38
   1  15   5   -0.07    0.33
   1  15   6    0.83    0.43
   1  15   6    0.64    0.51
   1  15   7   21.03    1.94
   1  15   7   23.27    2.14
   1  15   8    2.01    0.64
   1  15   8    2.32    0.66
   1  15   9    3.50    0.83
   2 -13 -10    2.04    0.59
   2 -13  -9   15.25    1.69
  -2  13   9   16.01    1.59
  -2  13   8    8.77    1.29
  -2  13   8   10.22    1.20
   2 -13  -8   11.31    1.39
   2 -13  -7    4.85    0.95
  -2  13   7    4.22    0.85
  -2  13   7    3.59    0.86
  -2  13   6    6.85    1.13
   2 -13  -6    5.92    1.00
  -2  13   6    6.26    1.06
  -2  13   5    0.21    0.51
  -2  13   4   54.67    3.95
  -2  13   3    1.98    0.66
  -2  13   3    1.13    0.64
  -2  13   2   23.49    2.08
  -2  13   1   10.56    1.45
  -2  13   1    8.15    1.14
  -2  13   0   11.00    1.44
  -2  13   0    8.03    1.10
  -2  13  -1   39.48    2.90
  -2  13  -1   57.30    3.54
  -2  13  -2    0.24    0.48
  -2  13  -2    1.04    0.48
   2 -12 -13    0.08    0.49
   2 -12 -13    0.07    0.40
  -2  12  12   16.08    1.60
   2 -12 -12   19.23    2.06
  -2  12  11    1.18    0.55
  -2  12  10   17.11    1.87
  -2  12   9   14.04    1.75
   2 -12  -9   12.51    1.79
  -2  12   9   10.67    1.52
  -2  12   8   13.85    1.74
   2 -12  -8   10.14    1.64
  -2  12   8   11.19    1.63
  -2  12   7   39.34    3.29
  -2  12   7   38.80    3.22
   2 -12  -7   29.83    3.25
  -2  12   6    5.34    1.22
   2 -12  -6    3.71    1.15
  -2  12   5   38.85    3.54
   2 -12  -5   39.42    3.79
  -2  12   4    1.58    0.94
  -2  12   3   37.52    3.39
   2 -12  -3   31.04    3.39
  -2  12   2   39.16    3.53
   2 -12  -2   37.75    3.67
   2 -12  -1    2.48    0.93
   2 -12   0   90.03    5.54
   2 -12   0   69.58    5.67
  -2  12   0   80.96    5.68
   2 -12   1    5.54    1.20
   2 -12   1    3.41    1.24
  -2  12  -1    6.65    1.35
   2 -12   2   27.07    3.04
  -2  12  -2   34.70    3.06
   2 -12   2   36.49    2.87
  -2  12  -3    9.51    1.38
   2 -12   3    8.56    1.23
   2 -12   4    5.64    0.96
  -2  12  -4    2.27    0.95
  -2  12  -5   17.96    1.76
  -2  12  -5   16.43    2.01
  -2  12  -6    4.35    0.79
  -2  12  -7   17.72    1.56
   2 -11 -15   62.35    3.98
   2 -11 -15   52.87    3.93
   2 -11 -14    1.51    0.77
   2 -11 -14    2.80    0.86
   2 -11 -13   44.84    3.50
   2 -11 -13   39.17    3.33
   2 -11 -12    1.69    0.89
  -2  11  12    1.45    0.65
  -2  11  11  144.93    8.85
   2 -11 -11  164.20    9.45
  -2  11  10   36.90    3.20
  -2  11  10   31.63    2.85
   2 -11 -10   27.59    2.92
  -2  11   9    0.89    0.72
   2 -11  -9   -0.34    0.88
  -2  11   9    1.84    0.92
  -2  11   8  127.53    7.87
   2 -11  -8  114.87    7.95
   2 -11  -7    3.21    1.30
  -2  11   7    7.47    1.51
  -2  11   6   65.91    5.19
   2 -11  -6   63.80    5.33
   2 -11  -5    2.16    1.19
  -2  11   5    5.93    1.38
  -2  11   4    1.51    0.97
   2 -11  -3   44.18    4.40
   2 -11  -3   48.45    4.11
  -2  11   3   46.77    4.18
   2 -11  -2    1.92    1.07
  -2  11   2    0.76    0.77
   2 -11  -2    2.89    1.22
   2 -11  -1   52.44    4.87
   2 -11  -1   56.24    4.37
  -2  11   0   -0.56    0.90
   2 -11   0    2.34    0.95
  -2  11  -1   80.68    5.97
   2 -11   1   82.25    5.51
   2 -11   1   78.60    6.16
  -2  11  -2    3.32    1.16
   2 -11   2    2.48    1.06
   2 -11   2    2.36    0.90
  -2  11  -3   24.81    2.66
   2 -11   3   23.50    2.91
   2 -11   3   20.99    2.25
   2 -11   4    0.22    0.61
   2 -11   4    1.08    0.67
  -2  11  -4    1.21    0.78
   2 -11   5   11.56    1.46
   2 -11   6   72.94    4.17
  -2  11  -6   44.62    4.50
   2 -11   7   -0.30    0.46
  -2  11  -8    9.75    1.43
   2 -11   8   10.90    1.14
  -2  11  -9    3.96    0.84
  -2  11 -10    2.28    0.64
   2 -10 -17    2.66    0.65
   2 -10 -16   43.51    3.55
   2 -10 -16   45.53    3.45
   2 -10 -15    2.89    1.05
   2 -10 -15    1.93    0.87
   2 -10 -14   63.25    4.96
   2 -10 -14   68.46    5.04
   2 -10 -13    2.51    1.08
  -2  10  13    2.98    0.89
   2 -10 -12    0.58    0.89
  -2  10  12    1.58    0.83
  -2  10  11    5.08    1.27
  -2  10  10   19.26    2.37
   2 -10 -10   14.62    2.16
  -2  10  10   18.13    2.22
  -2  10   9  109.16    7.10
   2 -10  -9  102.03    7.28
  -2  10   8    3.82    1.23
   2 -10  -8    2.33    1.21
   2 -10  -7   23.36    2.98
  -2  10   7   29.87    3.18
   2 -10  -6   29.85    3.52
  -2  10   6   31.95    3.43
   2 -10  -5   -0.25    0.75
   2 -10  -5   -0.23    1.01
  -2  10   5    0.20    0.82
  -2  10   4    2.97    1.11
   2 -10  -4    2.56    1.22
  -2  10   4    2.00    0.95
   2 -10  -3    2.87    1.25
  -2  10   3    2.20    0.95
  -2  10   3    1.78    0.99
   2 -10  -3    2.23    0.96
  -2  10   2   23.81    2.83
   2 -10  -2   20.28    3.10
   2 -10  -2   18.51    2.77
   2 -10  -2   24.68    2.69
   2 -10  -1    4.18    1.20
   2 -10  -1    2.61    1.28
   2 -10  -1    4.81    1.55
   2 -10   0   14.66    2.64
   2 -10   0   18.82    2.78
  -2  10   0   19.38    2.58
   2 -10   0   19.86    2.35
   2 -10   1   62.95    4.63
   2 -10   1   65.06    5.52
  -2  10  -1   53.82    4.90
   2 -10   2    2.65    1.26
   2 -10   2    2.67    0.98
  -2  10  -2    2.13    0.99
   2 -10   3   45.36    4.47
  -2  10  -3   50.99    4.23
   2 -10   3   39.97    3.60
   2 -10   4   13.61    2.34
  -2  10  -4   15.60    2.23
   2 -10   4   18.10    2.09
   2 -10   5    1.81    1.10
  -2  10  -5    2.90    0.94
   2 -10   5    1.15    0.75
  -2  10  -6    0.47    0.74
   2 -10   6   -0.12    0.54
  -2  10  -7    0.31    0.48
  -2  10  -7    0.46    0.92
   2 -10   7   -0.21    0.50
  -2  10  -8   20.63    1.83
   2 -10   8   22.48    2.02
   2 -10   9   14.34    1.47
  -2  10  -9   13.90    1.39
  -2  10 -10   80.60    5.38
  -2  10 -10   79.46    4.86
  -2  10 -11    4.46    1.00
   2  -9 -18    5.37    0.90
   2  -9 -17   71.73    4.84
   2  -9 -16    0.44    0.70
   2  -9 -15   47.42    4.07
   2  -9 -14   10.73    1.95
   2  -9 -14   10.76    1.95
  -2   9  13    1.70    0.71
   2  -9 -13    1.26    0.94
   2  -9 -12   56.76    4.85
  -2   9  12   49.02    4.15
  -2   9  11    0.51    0.79
   2  -9 -11    0.50    0.55
  -2   9  10  111.34    6.90
   2  -9 -10   90.18    6.80
  -2   9   9    5.27    1.33
   2  -9  -9    6.63    1.62
   2  -9  -9    7.02    1.60
   2  -9  -8    5.10    1.55
  -2   9   8    4.98    1.39
   2  -9  -8    4.13    1.37
   2  -9  -7   41.41    4.08
  -2   9   7   36.99    3.61
  -2   9   7   35.81    3.59
   2  -9  -7   37.56    4.09
  -2   9   6   63.54    5.03
   2  -9  -6   53.33    5.27
  -2   9   6   63.94    5.03
   2  -9  -6   66.37    5.06
   2  -9  -6   65.13    5.43
   2  -9  -5    0.69    0.93
   2  -9  -5    0.98    0.73
  -2   9   5    1.12    0.69
  -2   9   5    1.50    0.86
   2  -9  -5    0.52    0.76
   2  -9  -4   10.14    2.07
  -2   9   4   11.77    1.93
  -2   9   4   11.08    1.94
  -2   9   3  116.33    7.46
  -2   9   3   99.63    7.18
  -2   9   2    4.88    1.29
   2  -9  -2    4.78    1.21
   2  -9  -2    2.25    1.20
   2  -9  -2    4.22    1.44
   2  -9  -1    6.00    1.39
   2  -9  -1    7.34    1.78
   2  -9  -1    4.97    1.54
   2  -9   0   32.93    3.22
   2  -9   0   36.72    4.04
  -2   9   0   36.53    3.61
   2  -9   0   32.32    3.75
  -2   9  -1   31.81    3.40
   2  -9   1   31.70    3.91
  -2   9  -1   36.49    3.57
   2  -9   1   34.71    3.34
   2  -9   1   43.64    4.18
  -2   9  -2   40.80    3.88
   2  -9   2   49.34    4.60
  -2   9  -2   41.02    3.88
   2  -9   2   36.80    4.35
   2  -9   2   40.61    3.60
   2  -9   3   12.20    1.95
  -2   9  -3   11.15    1.99
   2  -9   3   11.34    2.37
  -2   9  -3   15.83    2.19
   2  -9   3   16.91    2.67
   2  -9   4   42.63    5.07
   2  -9   4   52.02    4.96
  -2   9  -4   56.70    4.53
   2  -9   4   51.42    4.20
  -2   9  -4   46.64    4.42
  -2   9  -5    2.26    0.94
   2  -9   5    2.06    1.23
  -2   9  -5    4.04    1.14
   2  -9   5    1.89    1.21
  -2   9  -5    1.77    0.81
   2  -9   5    1.11    0.77
  -2   9  -6   12.87    2.07
  -2   9  -6   16.75    1.90
   2  -9   6   17.99    2.82
   2  -9   6   17.79    2.16
  -2   9  -7    0.86    0.74
  -2   9  -7    2.26    0.80
   2  -9   7    2.28    0.84
   2  -9   8   31.54    2.79
  -2   9  -8   34.50    2.74
  -2   9  -9   38.24    2.95
   2  -9   9   32.10    2.80
   2  -9  10   21.03    1.98
  -2   9 -10   24.60    2.18
  -2   9 -11    1.76    0.64
  -2   9 -11    1.27    1.09
  -2   9 -12    1.92    1.01
  -2   9 -12    0.07    0.56
  -2   9 -13   16.38    1.48
  -2   9 -14    6.09    1.04
  -2   9 -14    6.35    0.77
   2  -8 -19    2.07    0.70
   2  -8 -18   43.53    3.39
   2  -8 -17    0.15    0.64
   2  -8 -16   90.37    6.39
   2  -8 -15    2.26    1.10
   2  -8 -14   26.88    3.24
   2  -8 -13   44.07    4.34
  -2   8  12   36.19    3.48
   2  -8 -12   42.70    4.24
  -2   8  11   50.93    4.22
   2  -8 -10    5.46    1.41
   2  -8  -9  115.03    7.71
  -2   8   9  125.09    7.52
  -2   8   8  125.54    8.07
   2  -8  -8  130.99    8.46
  -2   8   8  134.53    8.17
   2  -8  -8  118.90    8.54
  -2   8   7    4.18    1.15
   2  -8  -7    4.39    1.41
   2  -8  -7    3.55    1.27
   2  -8  -7    5.08    1.31
  -2   8   7    3.38    1.15
   2  -8  -6   35.98    3.18
   2  -8  -6   31.41    3.45
   2  -8  -6   26.69    3.14
  -2   8   6   30.63    3.03
  -2   8   6   24.09    2.82
   2  -8  -5   26.51    2.97
  -2   8   5   17.62    2.40
   2  -8  -5   19.15    2.35
  -2   8   5   23.94    2.62
   2  -8  -5   22.30    2.85
  -2   8   4   24.64    2.77
   2  -8  -4   30.13    3.26
   2  -8  -4   21.64    3.07
  -2   8   4   27.35    2.85
   2  -8  -4   32.96    2.90
  -2   8   3    0.16    0.54
  -2   8   3    0.66    0.72
  -2   8   2    0.16    0.60
  -2   8   2    1.49    0.81
   2  -8  -2    1.49    1.06
   2  -8  -1   34.10    3.11
  -2   8   1   32.80    3.19
   2  -8  -1   37.74    3.71
   2  -8   0    2.36    1.00
   2  -8   0    4.41    1.46
  -2   8  -1   67.12    5.06
   2  -8   1   66.02    5.70
  -2   8  -1   63.19    4.96
   2  -8   1   66.53    4.97
   2  -8   1   74.05    5.75
  -2   8  -2   36.66    3.53
   2  -8   2   45.98    4.37
  -2   8  -2   41.71    3.73
   2  -8   2   39.15    4.31
   2  -8   2   43.81    3.73
   2  -8   3  102.12    7.26
   2  -8   3   96.12    6.24
  -2   8  -3   88.07    6.18
  -2   8  -3   90.21    5.59
  -2   8  -3   77.25    5.97
   2  -8   3   86.57    7.16
  -2   8  -4    1.93    0.78
   2  -8   4    1.44    1.11
   2  -8   4   -0.27    0.94
   2  -8   4    0.49    0.77
  -2   8  -4    0.87    0.75
  -2   8  -4    0.34    0.54
   2  -8   5    1.61    0.90
   2  -8   5    1.24    1.03
  -2   8  -5    0.35    0.55
  -2   8  -5   -0.25    0.80
   2  -8   5    1.73    1.24
  -2   8  -5    1.05    0.71
  -2   8  -6   41.71    4.29
  -2   8  -6   57.73    4.53
   2  -8   6   52.07    4.18
  -2   8  -6   56.65    4.09
   2  -8   6   55.93    5.27
   2  -8   7    2.47    1.02
  -2   8  -7    1.50    0.79
  -2   8  -7    1.44    0.88
  -2   8  -8  139.04    7.91
   2  -8   8  119.78    7.78
   2  -8   9   31.18    2.94
  -2   8  -9   37.71    3.14
  -2   8  -9   27.63    3.39
  -2   8  -9   36.18    2.80
  -2   8 -10   10.43    1.37
   2  -8  10   10.80    1.56
  -2   8 -10   12.15    1.69
  -2   8 -11    1.82    0.74
   2  -8  11    0.82    0.58
  -2   8 -11    1.52    0.81
  -2   8 -12   53.84    4.60
  -2   8 -12   56.00    3.81
  -2   8 -12   44.92    3.30
  -2   8 -13    9.03    1.20
  -2   8 -13   11.24    1.89
  -2   8 -13   11.51    1.86
  -2   8 -13   15.24    1.64
  -2   8 -14   56.81    4.03
  -2   8 -14   49.77    3.87
  -2   8 -14   45.32    3.10
  -2   8 -14   56.39    3.53
  -2   8 -15   19.54    1.82
  -2   8 -15   13.78    1.23
  -2   8 -16    4.97    0.69
   2  -7 -20    0.57    0.52
   2  -7 -19   11.05    1.50
   2  -7 -19   16.90    2.00
   2  -7 -18    4.04    1.07
   2  -7 -18    4.89    1.28
   2  -7 -17   43.17    3.91
   2  -7 -17   45.28    4.23
   2  -7 -16    5.44    1.36
   2  -7 -16    8.11    1.74
   2  -7 -15    2.23    1.04
   2  -7 -15    2.98    1.33
   2  -7 -14   78.67    6.15
   2  -7 -14   69.76    5.49
   2  -7 -13   23.87    3.16
   2  -7 -12   25.51    3.28
  -2   7  11    6.50    1.40
   2  -7 -10   53.65    4.64
   2  -7 -10   58.92    4.63
  -2   7   9   26.55    2.69
  -2   7   9   31.43    2.86
   2  -7  -9   24.15    2.93
   2  -7  -9   26.90    2.95
  -2   7   8    4.92    1.12
   2  -7  -8    4.13    1.24
   2  -7  -8    4.49    1.23
  -2   7   8    3.83    1.10
  -2   7   7  590.53   31.20
  -2   7   7  624.10   31.20
   2  -7  -7  623.06   31.78
   2  -7  -7  665.04   31.47
   2  -7  -7  632.61   31.97
  -2   7   6   53.16    4.03
   2  -7  -6   55.71    4.59
  -2   7   6   44.54    3.86
   2  -7  -6   48.41    4.26
   2  -7  -6   51.40    3.98
  -2   7   5    9.76    1.59
   2  -7  -5   11.39    1.57
   2  -7  -5    9.80    1.74
  -2   7   5   11.98    1.65
  -2   7   4    0.85    0.64
   2  -7  -4    1.41    0.69
  -2   7   4    0.69    0.60
   2  -7  -4    1.66    0.85
   2  -7  -3   30.47    2.70
  -2   7   3   28.42    2.74
   2  -7  -2   54.77    4.46
  -2   7   2   50.18    3.88
   2  -7  -2   49.27    4.16
   2  -7  -1   34.73    3.44
   2  -7  -1   39.99    3.54
   2  -7  -1   33.34    3.06
   2  -7   0  100.88    6.96
   2  -7   0   96.40    6.32
   2  -7   1    7.83    1.37
  -2   7  -1    8.30    1.43
  -2   7  -1    6.25    1.28
   2  -7   2   38.42    3.32
  -2   7  -2   38.23    3.31
   2  -7   2   42.98    4.06
  -2   7  -2   39.39    3.44
   2  -7   3    0.47    0.94
  -2   7  -3    0.74    0.54
  -2   7  -3    0.86    0.60
   2  -7   3   -0.14    0.52
   2  -7   3   -0.50    0.78
  -2   7  -4  103.11    6.60
  -2   7  -4  104.73    6.69
   2  -7   4  101.50    7.86
   2  -7   4  101.55    6.47
   2  -7   4  102.15    7.61
  -2   7  -5  113.28    7.38
  -2   7  -5  119.04    7.24
   2  -7   5  120.11    8.64
  -2   7  -5  121.95    7.53
   2  -7   5  113.87    8.30
   2  -7   5  124.44    7.42
  -2   7  -6  145.86    9.17
  -2   7  -6  142.18    9.16
   2  -7   6  142.40   10.12
   2  -7   6  165.37   10.18
  -2   7  -6  168.97    9.20
   2  -7   6  165.25    9.16
   2  -7   7   39.49    3.26
  -2   7  -7   28.60    3.17
  -2   7  -7   29.40    3.14
  -2   7  -7   42.26    3.40
   2  -7   8   33.11    3.06
  -2   7  -8   36.44    3.27
  -2   7  -9   71.80    5.11
   2  -7   9   68.30    4.81
  -2   7  -9   55.19    5.20
  -2   7  -9   72.05    4.67
  -2   7 -10    1.70    0.84
   2  -7  10    2.72    0.84
  -2   7 -10    2.45    1.02
  -2   7 -11  152.62    8.68
   2  -7  11  137.64    8.11
  -2   7 -11  131.61    8.02
  -2   7 -12   36.30    2.87
  -2   7 -12   33.72    3.14
   2  -7  12   27.83    2.60
  -2   7 -13   54.27    3.87
  -2   7 -13   54.68    4.65
  -2   7 -13   59.50    4.31
  -2   7 -13   48.53    4.36
  -2   7 -14    2.72    0.82
  -2   7 -14    3.41    1.18
  -2   7 -14    3.40    1.07
  -2   7 -14    2.23    1.04
  -2   7 -15   11.45    1.56
  -2   7 -15   10.19    1.45
  -2   7 -15    8.01    1.43
  -2   7 -15    9.53    1.28
  -2   7 -16    1.68    0.61
  -2   7 -16    1.30    0.71
  -2   7 -16    0.45    0.68
  -2   7 -16    0.63    0.53
  -2   7 -17    0.82    0.54
  -2   7 -17    0.33    0.37
   2  -6 -21   -0.15    0.36
   2  -6 -20   61.21    4.38
   2  -6 -19    2.29    0.78
   2  -6 -19    2.16    1.01
   2  -6 -19    3.22    0.85
   2  -6 -18   21.98    2.74
   2  -6 -18   16.00    2.20
   2  -6 -18   17.13    2.18
   2  -6 -17    0.68    0.71
   2  -6 -17    1.62    0.98
   2  -6 -17    0.71    1.06
   2  -6 -16    7.60    1.92
   2  -6 -16    8.83    1.88
   2  -6 -16    6.30    1.48
   2  -6 -15  107.64    8.01
   2  -6 -15  132.21    8.82
   2  -6 -15  125.99    7.46
   2  -6 -14    0.13    0.72
   2  -6 -14    1.04    1.05
   2  -6 -13   10.38    2.15
   2  -6 -13    9.37    1.51
   2  -6 -12    1.25    1.19
   2  -6 -12   -0.12    0.59
   2  -6 -11   33.31    2.82
   2  -6 -10    3.00    0.96
   2  -6 -10    4.52    0.96
   2  -6 -10    3.56    1.04
  -2   6   9   32.94    2.93
   2  -6  -9   39.46    3.52
   2  -6  -9   37.65    3.40
  -2   6   8   83.00    5.15
   2  -6  -8   71.89    5.47
  -2   6   8   71.21    5.04
   2  -6  -8   81.56    5.59
   2  -6  -7   36.92    3.50
   2  -6  -7   44.21    3.67
  -2   6   7   35.36    3.10
   2  -6  -7   39.13    3.24
  -2   6   7   38.71    3.14
   2  -6  -6   45.43    3.95
   2  -6  -6   44.94    3.83
  -2   6   6   48.75    3.56
   2  -6  -6   46.60    3.54
  -2   6   5    1.76    0.66
   2  -6  -5    1.78    0.70
   2  -6  -4    3.20    1.02
  -2   6   4    2.45    0.76
   2  -6  -4    2.81    0.98
  -2   6   3    3.85    0.89
  -2   6   2   13.12    1.64
   2  -6  -1   44.54    3.62
   2  -6  -1   39.60    3.58
   2  -6   0   25.32    2.73
   2  -6   0   24.02    2.59
   2  -6   1   79.11    5.60
  -2   6  -1   78.77    5.08
   2  -6   1   77.68    5.71
   2  -6   2   15.05    2.19
   2  -6   2   12.07    1.54
  -2   6  -2   11.62    1.58
  -2   6  -3  474.03   23.84
   2  -6   3  477.44   24.88
   2  -6   4   17.88    2.40
   2  -6   4   17.24    2.47
  -2   6  -4   15.12    1.83
   2  -6   5  108.64    7.23
  -2   6  -5  105.21    6.57
   2  -6   5  102.20    7.39
  -2   6  -5  105.27    6.50
  -2   6  -6    8.76    1.39
   2  -6   6    5.56    1.34
  -2   6  -6    5.97    1.22
   2  -6   6    5.62    1.41
  -2   6  -6    4.88    1.09
   2  -6   7   31.81    3.34
  -2   6  -7   39.39    3.34
  -2   6  -7   37.55    3.30
  -2   6  -7   35.02    3.20
  -2   6  -8  106.94    7.01
  -2   6  -9    0.88    0.83
  -2   6 -10  185.31   11.01
  -2   6 -11   11.12    1.69
  -2   6 -11   11.80    2.02
  -2   6 -12   73.79    5.13
  -2   6 -12   73.83    5.61
  -2   6 -13   38.17    3.21
   2  -6  13   32.35    2.80
  -2   6 -13   37.00    3.52
  -2   6 -14   10.38    1.62
  -2   6 -14   10.91    1.80
  -2   6 -14   11.78    1.86
  -2   6 -15   83.22    5.30
  -2   6 -15   81.53    5.49
  -2   6 -15   76.49    5.29
  -2   6 -16   10.60    1.45
  -2   6 -16    8.47    1.44
  -2   6 -16   10.23    1.39
  -2   6 -17   39.04    3.05
  -2   6 -17   43.63    3.06
  -2   6 -18    4.84    0.83
   2  -5 -21   12.63    1.54
   2  -5 -21   10.99    1.23
   2  -5 -20    5.70    1.31
   2  -5 -20    5.05    0.96
   2  -5 -19   15.84    2.00
   2  -5 -19   21.05    2.61
   2  -5 -19   18.77    2.19
   2  -5 -18    6.45    1.56
   2  -5 -18    9.65    2.07
   2  -5 -18   10.82    1.83
   2  -5 -17    4.83    1.31
   2  -5 -17    4.30    1.44
   2  -5 -17    4.06    1.61
   2  -5 -16   82.76    6.39
   2  -5 -16   81.03    6.64
   2  -5 -16   83.06    7.04
   2  -5 -15    5.84    1.71
   2  -5 -15    4.54    1.23
   2  -5 -15    5.87    1.84
   2  -5 -15    4.60    1.42
   2  -5 -14   90.25    7.36
   2  -5 -14   94.81    6.17
   2  -5 -13    3.09    1.44
   2  -5 -13    4.21    1.11
   2  -5 -12   49.80    3.85
   2  -5 -12   55.77    5.25
   2  -5 -11   28.70    2.60
   2  -5 -11   30.61    3.70
   2  -5 -10   30.29    2.56
   2  -5  -9   60.42    3.81
   2  -5  -9   55.71    4.34
   2  -5  -9   50.45    4.27
  -2   5   9   59.05    3.89
   2  -5  -8   16.37    2.11
   2  -5  -8   16.71    2.06
  -2   5   8   17.65    1.77
  -2   5   7   28.64    2.40
   2  -5  -7   27.58    2.74
   2  -5  -7   29.49    2.87
   2  -5  -6   -0.15    0.59
  -2   5   6    0.30    0.47
   2  -5  -6    0.88    0.63
   2  -5  -5  261.30   14.26
  -2   5   5  267.71   13.76
   2  -5  -4   23.95    2.47
   2  -5  -4   23.63    2.37
  -2   5   4   25.61    2.22
   2  -5  -3   62.00    4.16
   2  -5  -3   55.64    4.17
  -2   5   3   51.14    3.71
  -2   5   2  132.60    7.52
   2  -5  -1   14.69    1.88
   2  -5  -1   18.47    2.10
   2  -5   0   16.00    2.00
   2  -5   0   13.44    1.84
   2  -5   1    3.07    1.01
   2  -5   1    4.07    1.10
   2  -5   2  109.31    6.72
   2  -5   2   96.55    6.36
  -2   5  -2  100.47    6.04
  -2   5  -3   96.32    5.76
   2  -5   3   94.30    6.23
  -2   5  -4  460.96   22.78
   2  -5   4  450.41   23.55
   2  -5   4  455.96   23.34
  -2   5  -5   28.77    2.49
   2  -5   5   31.87    2.89
   2  -5   5   30.48    3.03
   2  -5   6   19.33    2.30
   2  -5   6   18.77    1.94
  -2   5  -6   20.09    2.01
   2  -5   6   23.54    2.34
   2  -5   7   65.45    4.83
   2  -5   7   63.61    4.42
  -2   5  -7   69.51    4.54
  -2   5  -8   15.07    1.64
   2  -5   8   13.48    1.71
  -2   5  -8   12.26    1.68
  -2   5  -8   15.07    2.12
  -2   5  -9   95.72    5.94
  -2   5  -9  104.97    6.79
   2  -5   9   90.52    5.98
  -2   5 -10    0.78    0.63
  -2   5 -10    0.18    0.88
   2  -5  10    1.17    0.60
  -2   5 -11  150.47    8.42
  -2   5 -11  157.59    9.03
  -2   5 -12   10.15    1.54
   2  -5  12    7.70    1.33
  -2   5 -13    7.71    1.63
  -2   5 -13    6.06    1.22
   2  -5  13    4.25    0.94
  -2   5 -13    7.06    1.52
  -2   5 -14  125.43    7.99
  -2   5 -14  125.02    7.71
  -2   5 -14  135.89    8.14
  -2   5 -15    4.48    1.28
  -2   5 -15    4.47    1.02
  -2   5 -15    2.96    1.13
  -2   5 -16  115.66    6.89
  -2   5 -16  101.25    6.43
  -2   5 -17    2.66    0.94
  -2   5 -17    1.88    0.82
  -2   5 -18   13.30    1.61
  -2   5 -19    0.30    0.51
  -2   5 -19    0.99    0.47
   2  -4 -21    4.21    0.90
   2  -4 -21    4.91    1.02
   2  -4 -20   59.64    4.50
   2  -4 -20   52.27    4.03
   2  -4 -19    3.51    1.03
   2  -4 -19    5.27    1.44
   2  -4 -19    6.17    1.33
   2  -4 -18   15.74    2.37
   2  -4 -18   19.39    2.97
   2  -4 -18   13.06    2.25
   2  -4 -17   35.47    4.00
   2  -4 -17   34.07    3.78
   2  -4 -17   41.33    4.67
   2  -4 -16   36.41    3.35
   2  -4 -16   39.42    4.69
   2  -4 -16   35.14    4.17
   2  -4 -16   31.43    3.82
   2  -4 -15   61.49    4.55
   2  -4 -15   53.55    5.90
   2  -4 -15   53.49    5.58
   2  -4 -15   53.10    5.17
   2  -4 -14    2.07    1.24
   2  -4 -14    4.50    1.83
   2  -4 -14    5.54    1.32
   2  -4 -13   12.33    2.65
   2  -4 -13   18.74    2.08
   2  -4 -12   78.75    5.14
   2  -4 -12   69.14    6.55
   2  -4 -11  305.71   15.53
   2  -4 -11  279.26   17.53
   2  -4 -10   75.37    4.79
   2  -4  -9   27.76    2.77
  -2   4   8   23.19    1.98
   2  -4  -8   24.92    2.53
   2  -4  -8   26.56    2.67
   2  -4  -7    0.14    0.66
   2  -4  -7    0.15    0.55
  -2   4   7    0.25    0.34
   2  -4  -6   15.75    1.91
  -2   4   6   17.60    1.67
   2  -4  -6   15.61    1.98
   2  -4  -5  440.18   21.77
  -2   4   5  416.04   21.05
  -2   4   4 1221.71   58.06
   2  -4  -4 1204.65   58.65
   2  -4  -3   63.46    4.18
   2  -4  -3   56.30    4.16
  -2   4   3   58.36    3.77
  -2   4   2   75.44    4.56
  -2   4   1   88.68    5.19
   2  -4  -1   85.53    5.46
   2  -4  -1   92.53    5.64
   2  -4   0   10.77    1.46
   2  -4   0    8.74    1.31
   2  -4   1   18.19    1.88
   2  -4   1   19.55    2.00
   2  -4   2   16.25    1.73
  -2   4  -2   12.54    1.42
   2  -4   2   13.80    1.59
   2  -4   3  397.33   21.23
  -2   4  -3  447.18   21.08
   2  -4   4    5.19    1.11
   2  -4   4    5.14    1.02
  -2   4  -4    5.48    0.95
   2  -4   5    7.45    1.21
   2  -4   5    9.58    1.38
  -2   4  -5    8.77    1.14
  -2   4  -6  157.92    8.31
   2  -4   6  150.19    8.68
   2  -4   6  144.65    8.48
  -2   4  -7    0.58    0.45
   2  -4   7    0.50    0.54
   2  -4   8   37.91    3.16
   2  -4   8   46.91    3.38
  -2   4  -8   39.93    3.06
  -2   4  -9   25.57    2.39
  -2   4  -9   25.41    2.66
   2  -4   9   30.26    2.62
   2  -4  10  118.52    7.30
  -2   4 -10  120.23    7.27
  -2   4 -10  122.87    7.57
  -2   4 -11    0.72    0.58
   2  -4  11    1.71    0.69
   2  -4  12    7.12    1.28
  -2   4 -12    7.52    1.41
   2  -4  13   15.24    1.91
  -2   4 -13   19.77    2.67
  -2   4 -13   16.52    2.10
  -2   4 -14    1.45    0.92
  -2   4 -14    3.36    1.26
  -2   4 -14    1.79    0.89
  -2   4 -14    2.40    1.24
   2  -4  14    0.88    0.66
  -2   4 -15  153.31    8.93
  -2   4 -15  148.21    8.70
  -2   4 -15  135.25    8.55
  -2   4 -15  151.32    8.91
  -2   4 -16    4.83    1.27
  -2   4 -16    4.32    1.11
  -2   4 -16    5.00    1.17
  -2   4 -16    4.17    1.04
  -2   4 -17   29.29    2.75
  -2   4 -17   33.65    2.92
  -2   4 -17   31.04    2.68
  -2   4 -18   86.18    5.38
  -2   4 -18   95.54    5.74
  -2   4 -19    3.69    0.80
  -2   4 -20   86.02    4.67
   2  -3 -22    2.27    0.63
   2  -3 -21   13.69    1.73
   2  -3 -21   11.49    1.46
   2  -3 -20   29.22    3.22
   2  -3 -20   33.13    3.03
   2  -3 -19   16.10    2.59
   2  -3 -19   12.09    1.83
   2  -3 -19   10.06    1.92
   2  -3 -18   12.00    2.50
   2  -3 -18   12.63    2.20
   2  -3 -18    8.22    1.92
   2  -3 -17   14.04    2.46
   2  -3 -17   13.26    2.95
   2  -3 -17    7.89    2.09
   2  -3 -16    8.84    2.27
   2  -3 -16   11.73    1.80
   2  -3 -16    8.16    2.35
   2  -3 -16    7.90    2.53
   2  -3 -16   11.15    1.81
   2  -3 -15   25.78    2.82
   2  -3 -15   31.49    4.59
   2  -3 -15   25.34    2.77
   2  -3 -15   27.81    3.69
   2  -3 -15   26.51    4.07
   2  -3 -14    2.67    1.04
   2  -3 -14    1.71    0.95
   2  -3 -14    3.54    1.51
   2  -3 -14    1.54    1.66
   2  -3 -14    0.78    0.97
   2  -3 -14    4.13    1.68
   2  -3 -13   67.84    4.84
   2  -3 -13   67.96    4.88
   2  -3 -13   67.61    4.95
   2  -3 -13   72.50    6.51
   2  -3 -13   61.44    5.90
   2  -3 -12  110.99    6.65
   2  -3 -12   96.98    6.09
   2  -3 -12  108.06    6.70
   2  -3 -12  104.02    8.15
   2  -3 -12  114.34    6.96
   2  -3 -11    6.61    1.22
   2  -3 -11    6.31    1.16
   2  -3 -11    6.62    1.32
   2  -3 -11    5.65    0.96
   2  -3 -11    8.11    1.91
   2  -3 -10   46.66    4.60
   2  -3 -10   52.30    3.71
   2  -3 -10   48.01    3.47
   2  -3  -9    1.01    0.45
   2  -3  -9   -0.10    0.51
  -2   3   8   18.65    1.53
   2  -3  -8   16.95    1.89
   2  -3  -8   18.92    1.80
  -2   3   7  295.78   15.43
   2  -3  -7  319.59   16.16
   2  -3  -7  324.84   15.75
   2  -3  -6   96.48    5.64
  -2   3   6   83.95    5.00
   2  -3  -5   80.17    4.97
  -2   3   5   74.47    4.42
   2  -3  -4   12.28    1.53
  -2   3   4   12.39    1.24
  -2   3   3   91.73    5.11
  -2   3   2  467.09   22.71
  -2   3   1    0.06    0.38
   2  -3   0   21.84    1.85
   2  -3   1    4.77    0.82
  -2   3  -2  147.54    7.77
   2  -3   3   26.97    2.03
  -2   3  -3   24.22    1.92
   2  -3   4   33.94    2.49
   2  -3   4   33.48    2.64
  -2   3  -4   36.95    2.47
   2  -3   5  444.20   22.90
   2  -3   5  471.98   22.77
  -2   3  -5  469.39   22.67
  -2   3  -6    2.08    0.58
   2  -3   6    0.51    0.57
   2  -3   6    0.49    0.45
   2  -3   7    4.62    0.91
   2  -3   7    3.78    0.88
  -2   3  -8   48.61    3.28
   2  -3   8   48.13    3.42
   2  -3   8   52.31    3.48
   2  -3   9  125.17    7.12
  -2   3 -10    3.11    0.86
   2  -3  10    3.20    0.94
   2  -3  10    2.38    0.75
  -2   3 -11    4.59    1.10
   2  -3  11    5.20    1.17
  -2   3 -12  277.19   14.44
  -2   3 -12  270.36   14.59
   2  -3  12  256.31   14.48
  -2   3 -13    7.57    1.73
  -2   3 -13    7.02    1.29
  -2   3 -13    5.04    1.25
   2  -3  13    6.76    1.32
  -2   3 -14   82.54    5.92
  -2   3 -14   89.20    5.80
  -2   3 -14   87.99    5.86
   2  -3  14   79.06    5.63
  -2   3 -14   83.04    5.65
  -2   3 -14   91.21    6.44
  -2   3 -15   12.09    1.68
  -2   3 -15   12.10    1.87
  -2   3 -15   11.86    2.00
  -2   3 -15   11.90    1.67
   2  -3  15    8.18    1.42
  -2   3 -16   24.91    2.71
  -2   3 -16   22.47    2.30
  -2   3 -16   23.95    2.80
  -2   3 -16   23.49    2.41
  -2   3 -17  107.26    6.55
  -2   3 -17  107.36    7.04
  -2   3 -17  110.74    7.04
  -2   3 -18    0.29    0.65
  -2   3 -18    0.10    0.64
  -2   3 -18    0.14    0.70
  -2   3 -19  101.54    6.28
  -2   3 -20    0.76    0.39
  -2   3 -20    0.38    0.54
  -2   3 -21   92.23    5.09
   2  -2 -22    2.26    0.62
   2  -2 -22    2.39    0.59
   2  -2 -21    9.75    1.46
   2  -2 -21    7.46    1.24
   2  -2 -20   25.05    2.97
   2  -2 -20   23.27    2.62
   2  -2 -19    5.77    1.33
   2  -2 -19    4.65    1.74
   2  -2 -19    6.60    1.65
   2  -2 -18    8.43    1.45
   2  -2 -18   12.50    2.63
   2  -2 -18    7.72    1.91
   2  -2 -18    8.10    2.06
   2  -2 -17   48.47    5.09
   2  -2 -17   40.30    3.20
   2  -2 -17   49.10    5.17
   2  -2 -17   51.70    4.03
   2  -2 -16    1.28    0.74
   2  -2 -16    4.60    1.18
   2  -2 -16    4.21    1.23
   2  -2 -16    4.43    1.30
   2  -2 -16    3.23    1.73
   2  -2 -16    3.47    1.83
   2  -2 -16    5.26    1.91
   2  -2 -15  133.81    8.29
   2  -2 -15  157.05    9.32
   2  -2 -15  170.14   11.63
   2  -2 -15  148.52    9.14
   2  -2 -15  167.73   11.30
   2  -2 -15  152.52    9.18
   2  -2 -15  163.26   11.02
   2  -2 -14  129.23    7.79
   2  -2 -14  121.74    8.94
   2  -2 -14  107.91    7.34
   2  -2 -14  102.24    6.64
   2  -2 -14  138.97    9.64
   2  -2 -14  117.89    8.94
   2  -2 -14  123.12    7.55
   2  -2 -13   76.12    5.16
   2  -2 -13   67.70    6.38
   2  -2 -13   68.34    5.23
   2  -2 -13   69.77    6.18
   2  -2 -13   64.90    4.44
   2  -2 -13   65.19    6.09
   2  -2 -13   77.18    5.14
   2  -2 -12    1.58    0.61
   2  -2 -12    3.54    1.03
   2  -2 -12    1.94    1.10
   2  -2 -12    3.72    0.94
   2  -2 -12    2.29    0.76
   2  -2 -12    0.76    1.02
   2  -2 -12    1.52    1.06
   2  -2 -12    1.88    1.14
   2  -2 -11   32.64    3.03
   2  -2 -11   28.66    3.32
   2  -2 -11   30.35    2.37
   2  -2 -11   24.99    2.58
   2  -2 -11   32.00    2.66
   2  -2 -11   21.06    2.45
   2  -2 -10   92.72    5.76
   2  -2  -9   26.17    2.28
   2  -2  -8  598.29   28.33
  -2   2   8  556.70   27.63
   2  -2  -8  594.96   28.11
  -2   2   7  114.02    6.09
   2  -2  -7  119.29    6.46
   2  -2  -7  111.82    6.43
   2  -2  -6  218.49   10.84
  -2   2   6  200.45   10.38
   2  -2  -6  207.71   10.66
   2  -2  -5   24.32    2.01
  -2   2   5   24.88    1.74
  -2   2   4   45.87    2.73
   2  -2  -4   43.93    3.00
  -2   2   3 1077.98   52.07
   2  -2  -3 1132.13   52.50
   2  -2  -2   22.98    1.81
  -2   2   2   21.07    1.57
  -2   2   1  231.68   11.51
   2  -2   0    2.99    0.65
   2  -2   1  207.01   10.60
   2  -2   2    0.24    0.40
   2  -2   2    0.75    0.45
  -2   2  -2    0.15    0.31
  -2   2  -3    2.97    0.54
   2  -2   3    3.74    0.76
   2  -2   3    4.42    0.74
   2  -2   4   90.12    4.92
   2  -2   4   78.25    4.78
  -2   2  -4   83.17    4.57
  -2   2  -5   39.89    2.57
   2  -2   5   43.51    2.92
   2  -2   5   42.58    2.84
   2  -2   6 1734.11   85.88
  -2   2  -6 1879.30   85.66
   2  -2   6 1805.71   86.05
  -2   2  -7  133.87    7.03
   2  -2   7  135.41    7.41
   2  -2   7  126.64    7.16
   2  -2   8  385.93   19.71
  -2   2  -8  396.34   19.61
   2  -2   8  424.67   20.14
   2  -2   9   29.68    2.39
  -2   2  -9   22.65    1.64
   2  -2  10    7.24    1.20
   2  -2  11  481.30   24.21
  -2   2 -11  490.70   24.56
  -2   2 -11  482.12   24.22
  -2   2 -12    6.67    1.29
  -2   2 -12    7.72    1.58
  -2   2 -12    5.40    1.07
  -2   2 -13  161.93    9.97
  -2   2 -13  182.61   10.51
  -2   2 -13  167.67    9.57
  -2   2 -14   26.47    2.60
  -2   2 -14   29.55    3.00
  -2   2 -14   23.22    2.43
  -2   2 -14   30.08    2.70
   2  -2  14   31.56    3.02
  -2   2 -14   28.16    3.10
  -2   2 -15   30.42    2.84
   2  -2  15   30.75    3.06
  -2   2 -15   30.76    2.85
  -2   2 -15   39.48    3.61
  -2   2 -15   29.51    3.07
  -2   2 -15   37.15    3.47
  -2   2 -16  133.58    7.75
  -2   2 -16  120.21    7.36
  -2   2 -16  138.13    8.44
  -2   2 -16  133.36    7.63
  -2   2 -16  120.94    8.00
   2  -2  16  116.84    7.67
  -2   2 -16  131.72    8.26
  -2   2 -17   -0.26    0.83
  -2   2 -17    0.18    0.76
  -2   2 -17    0.57    0.79
  -2   2 -17   -0.12    0.55
  -2   2 -17   -0.33    0.64
  -2   2 -18  210.06   10.88
  -2   2 -18  208.16   11.59
  -2   2 -18  202.56   11.25
  -2   2 -18  178.78   10.51
  -2   2 -19   -0.16    0.66
  -2   2 -19   -0.41    0.65
  -2   2 -19    0.13    0.50
  -2   2 -20   30.85    2.60
  -2   2 -20   33.81    2.95
  -2   2 -20   33.15    2.55
  -2   2 -21   16.50    1.50
   2  -1 -22    6.16    0.91
   2  -1 -21   27.74    2.71
   2  -1 -20   42.88    4.09
   2  -1 -19   78.45    5.43
   2  -1 -19  102.64    7.57
   2  -1 -18   73.01    4.66
   2  -1 -18   71.21    5.13
   2  -1 -18   67.47    5.90
   2  -1 -17    6.84    1.21
   2  -1 -17    7.67    1.89
   2  -1 -17    5.67    1.38
   2  -1 -17   10.16    2.49
   2  -1 -16   66.40    4.93
   2  -1 -16  114.99    8.38
   2  -1 -16   89.46    5.98
   2  -1 -16   79.59    5.88
   2  -1 -16   86.24    5.36
   2  -1 -16   77.36    5.12
   2  -1 -16   95.11    7.68
   2  -1 -16  103.05    7.42
   2  -1 -15   36.34    3.00
   2  -1 -15   41.70    4.68
   2  -1 -15   40.85    3.73
   2  -1 -15   39.48    3.15
   2  -1 -15   40.86    4.46
   2  -1 -15   39.67    3.49
   2  -1 -15   44.82    4.99
   2  -1 -15   30.47    2.77
   2  -1 -14  302.25   15.28
   2  -1 -14  268.71   14.70
   2  -1 -14  224.73   14.45
   2  -1 -14  335.89   17.56
   2  -1 -14  304.12   15.92
   2  -1 -14  300.39   16.75
   2  -1 -14  302.38   14.80
   2  -1 -14  290.66   14.45
   2  -1 -14  257.36   14.35
   2  -1 -14  336.90   17.43
   2  -1 -13   70.09    4.67
   2  -1 -13   70.88    4.85
   2  -1 -13   79.09    5.24
   2  -1 -13   74.88    4.63
   2  -1 -13   68.44    5.46
   2  -1 -13   62.91    4.35
   2  -1 -13   72.00    4.64
   2  -1 -13   76.86    6.08
   2  -1 -13   66.04    4.32
   2  -1 -13   74.24    6.16
   2  -1 -13   70.61    6.12
   2  -1 -13   56.05    4.55
   2  -1 -12    8.79    1.37
   2  -1 -12    7.59    1.63
   2  -1 -12    5.93    1.04
   2  -1 -12    7.47    1.21
   2  -1 -12    6.72    1.02
   2  -1 -12    8.25    1.82
   2  -1 -12    6.37    1.30
   2  -1 -12    6.74    1.14
   2  -1 -12    7.19    1.74
   2  -1 -12    6.06    1.65
   2  -1 -12    5.66    1.29
   2  -1 -11   35.54    3.82
   2  -1 -11   40.46    3.78
   2  -1 -11   43.34    3.34
   2  -1 -11   39.04    3.01
   2  -1 -11   48.50    3.32
   2  -1 -11   39.53    3.85
   2  -1 -10    1.35    0.61
   2  -1  -9  181.12    9.60
   2  -1  -8    3.05    0.52
   2  -1  -8    3.84    0.72
   2  -1  -7  217.00   10.98
  -2   1   7  214.02   10.70
   2  -1  -7  226.19   11.13
  -2   1   6   22.70    1.52
   2  -1  -6   23.44    1.78
   2  -1  -5   77.01    4.35
  -2   1   5   75.10    4.06
  -2   1   4   14.89    1.15
   2  -1  -4   14.32    1.31
   2  -1  -3  130.49    6.96
  -2   1   3  132.93    6.75
   2  -1  -2 1746.33   80.87
  -2   1   2 1683.76   80.65
  -2   1   1   95.66    5.07
   2  -1   0  398.16   19.40
   2  -1   1  633.89   30.44
   2  -1   2   39.63    2.54
   2  -1   3  490.58   23.37
  -2   1  -3  469.98   23.08
   2  -1   3  484.85   23.28
   2  -1   4    1.13    0.52
   2  -1   4    1.15    0.41
  -2   1  -4    0.88    0.32
   2  -1   5  687.43   34.16
   2  -1   5  678.12   33.95
  -2   1  -5  742.66   33.76
   2  -1   6  182.20    9.90
  -2   1  -6  185.83    9.37
   2  -1   6  197.43    9.69
   2  -1   7  197.89   10.21
   2  -1   7  200.99   10.61
  -2   1  -7  202.65    9.98
  -2   1  -8  831.05   38.88
   2  -1   8  842.23   39.61
   2  -1   8  785.26   38.93
  -2   1  -9    3.84    0.48
   2  -1   9    3.61    0.96
   2  -1  10  189.49   10.38
   2  -1  11    1.61    0.72
  -2   1 -11    2.30    0.77
  -2   1 -11    0.97    0.77
   2  -1  12  292.23   16.08
  -2   1 -12  306.36   16.46
  -2   1 -12  312.97   15.93
  -2   1 -12  333.56   16.82
  -2   1 -13   35.26    3.21
  -2   1 -13   30.84    2.98
  -2   1 -13   25.51    2.44
  -2   1 -13   26.66    2.87
  -2   1 -14  140.21    8.42
  -2   1 -14  141.58    8.43
  -2   1 -14  125.37    7.53
  -2   1 -14  114.31    8.12
  -2   1 -14  129.79    7.57
  -2   1 -15  364.15   19.03
  -2   1 -15  332.17   18.10
  -2   1 -15  338.54   18.01
  -2   1 -15  390.64   19.37
  -2   1 -15  353.53   19.20
  -2   1 -15  365.80   18.35
  -2   1 -16    0.19    0.93
  -2   1 -16    1.05    0.85
  -2   1 -16    1.88    0.96
   2  -1  16    2.37    1.00
  -2   1 -16    0.80    0.80
  -2   1 -16    0.36    0.74
  -2   1 -17  881.55   41.19
  -2   1 -17  906.02   42.45
  -2   1 -17  895.04   41.89
  -2   1 -17  759.96   40.80
  -2   1 -17  823.26   42.04
  -2   1 -18   13.03    1.85
  -2   1 -18   11.43    1.59
  -2   1 -18    9.56    1.73
  -2   1 -18    8.73    1.35
  -2   1 -18   15.05    2.24
  -2   1 -19   60.81    4.06
  -2   1 -19   59.83    4.33
  -2   1 -19   57.68    4.51
  -2   1 -19   55.61    4.70
  -2   1 -20   24.72    2.14
  -2   1 -20   26.99    2.38
  -2   1 -20   20.87    2.23
  -2   1 -21   15.88    1.58
  -2   1 -21   12.32    1.34
  -2   1 -22   49.96    2.95
   2   0 -22   12.41    1.30
   2   0 -21   29.05    2.67
   2   0 -21   29.57    2.67
   2   0 -20   14.07    2.21
   2   0 -20   11.57    2.01
   2   0 -19    4.83    1.09
   2   0 -19    3.80    0.90
   2   0 -18    0.43    0.66
   2   0 -18    0.29    1.23
   2   0 -18    1.42    1.01
   2   0 -18    0.73    0.58
   2   0 -17  111.90    6.48
   2   0 -17   93.10    6.63
   2   0 -17   95.77    6.03
   2   0 -17  103.89    7.58
   2   0 -16   18.60    1.96
   2   0 -16   27.02    3.71
   2   0 -16   23.15    2.35
   2   0 -16   25.15    2.20
   2   0 -16   22.37    2.52
   2   0 -16   19.44    3.00
   2   0 -16   21.57    2.26
   2   0 -15  178.43    9.77
   2   0 -15  183.70   10.12
   2   0 -15  173.85    9.45
   2   0 -15  190.45   11.41
   2   0 -15  206.33   12.25
   2   0 -15  170.02    9.80
   2   0 -15  183.45   10.79
   2   0 -15  168.95    9.46
   2   0 -15  193.00   10.90
   2   0 -14   44.70    4.06
   2   0 -14   41.11    3.46
   2   0 -14   56.72    5.13
   2   0 -14   35.14    3.28
   2   0 -14   47.67    4.45
   2   0 -14   43.35    3.52
   2   0 -14   40.94    3.15
   2   0 -14   38.86    3.15
   2   0 -14   49.27    4.58
   2   0 -14   47.37    3.50
   2   0 -13   45.77    3.38
   2   0 -13   43.44    4.16
   2   0 -13   43.47    3.16
   2   0 -13   41.18    3.21
   2   0 -13   47.23    4.38
   2   0 -13   39.52    3.72
   2   0 -13   46.09    3.48
   2   0 -13   37.66    3.27
   2   0 -13   38.86    3.25
   2   0 -13   52.31    4.88
   2   0 -13   46.09    3.61
   2   0 -12   26.69    2.97
   2   0 -12   23.86    2.22
   2   0 -12   25.94    2.71
   2   0 -12   23.62    2.20
   2   0 -12   23.26    2.25
   2   0 -12   22.22    2.87
   2   0 -12   23.53    2.18
   2   0 -12   21.00    2.20
   2   0 -12   25.37    3.04
   2   0 -12   22.28    3.02
   2   0 -12   21.63    2.03
   2   0 -12   21.98    2.35
   2   0 -11   14.52    1.61
   2   0 -11   15.74    1.69
   2   0 -11   14.83    2.10
   2   0 -11   15.76    1.67
   2   0 -11   13.95    1.46
   2   0 -11   14.59    1.88
   2   0 -11   17.00    2.45
   2   0 -11    9.28    1.86
   2   0 -11   15.98    2.23
   2   0 -10   45.77    3.24
   2   0  -9   39.30    2.78
   2   0  -8   66.72    4.01
   2   0  -7    1.16    0.33
   2   0  -7    1.21    0.48
  -2   0   7    1.30    0.26
   2   0  -7    1.18    0.45
   2   0  -6   33.24    2.06
  -2   0   6   29.76    1.85
   2   0  -6   34.31    2.38
   2   0  -5  620.35   30.00
  -2   0   5  631.03   29.83
   2   0  -4    1.12    0.37
   2   0  -3  128.32    6.68
   2   0  -2   63.31    3.48
   2   0  -2   57.80    3.36
   2   0  -1   91.77    4.63
   2   0  -1   88.17    4.68
   2   0   0   80.38    4.28
   2   0   1   11.49    1.06
   2   0   2  603.58   28.45
   2   0   2  604.30   28.94
   2   0   3   63.98    3.63
   2   0   4  924.90   44.00
   2   0   5    6.57    0.78
   2   0   6   16.01    1.31
   2   0   7 1164.77   54.56
  -2   0  -7 1141.03   54.38
  -2   0  -8    1.26    0.30
   2   0   8    1.69    0.39
  -2   0  -9    8.99    0.71
  -2   0 -10    0.64    0.57
  -2   0 -11  372.39   19.27
   2   0  12   27.82    2.69
  -2   0 -12   31.25    2.88
  -2   0 -12   28.14    2.77
  -2   0 -13   50.14    3.97
  -2   0 -13   46.26    3.41
   2   0  13   44.97    3.62
  -2   0 -13   41.57    3.19
  -2   0 -13   45.63    3.75
  -2   0 -13   41.34    3.82
  -2   0 -14  163.51   10.44
  -2   0 -14  163.22    9.37
  -2   0 -14  175.69   10.45
  -2   0 -14  190.68   10.33
  -2   0 -14  172.46    9.55
  -2   0 -15    0.12    0.73
  -2   0 -15    0.11    0.58
  -2   0 -15    0.66    0.89
  -2   0 -15    1.05    0.92
  -2   0 -15    0.69    0.63
  -2   0 -16   68.83    4.57
  -2   0 -16   68.50    5.72
  -2   0 -16   71.56    4.83
  -2   0 -16   82.96    5.52
  -2   0 -16   66.42    4.59
  -2   0 -17   29.02    2.65
  -2   0 -17   30.50    3.05
  -2   0 -17   27.19    3.29
  -2   0 -17   28.52    2.46
  -2   0 -18   70.52    4.68
  -2   0 -18   77.78    5.21
  -2   0 -18   65.76    4.40
  -2   0 -18   63.05    5.48
  -2   0 -19   65.98    4.34
  -2   0 -19   68.21    4.74
  -2   0 -19   57.16    5.04
  -2   0 -20   -0.45    0.59
  -2   0 -20   -0.25    0.49
  -2   0 -20    0.17    0.83
  -2   0 -21   67.87    4.39
  -2   0 -21   63.61    3.96
  -2   0 -21   65.23    4.54
  -2   0 -21   64.18    4.62
  -2   0 -22    0.18    0.41
  -2   0 -22   -0.42    0.44
   2   1 -21    8.46    1.23
   2   1 -21    7.51    1.29
   2   1 -20    0.77    0.45
   2   1 -20    0.38    0.48
   2   1 -20    1.05    0.81
   2   1 -20    1.61    0.94
   2   1 -19   -0.33    0.62
   2   1 -19   -0.22    0.98
   2   1 -19    0.18    0.57
   2   1 -19   -0.45    1.07
   2   1 -18  114.55    7.66
   2   1 -18   78.74    5.87
   2   1 -18   97.37    5.82
   2   1 -18   86.26    5.46
   2   1 -18  112.42    7.61
   2   1 -17   18.61    1.91
   2   1 -17   22.70    2.76
   2   1 -17   16.39    2.12
   2   1 -17   27.10    3.45
   2   1 -17   22.44    2.11
   2   1 -17   22.58    2.30
   2   1 -17   22.37    3.23
   2   1 -16  122.19    6.97
   2   1 -16  101.03    6.44
   2   1 -16  102.99    6.83
   2   1 -16  117.08    7.87
   2   1 -16  122.59    8.57
   2   1 -16  104.17    6.85
   2   1 -16  107.22    6.52
   2   1 -16  120.22    8.54
   2   1 -15   45.39    3.46
   2   1 -15   37.90    3.42
   2   1 -15   43.05    3.19
   2   1 -15   35.98    4.21
   2   1 -15   42.35    3.44
   2   1 -15   41.81    4.49
   2   1 -15   35.76    3.19
   2   1 -15   36.62    3.13
   2   1 -15   40.93    4.08
   2   1 -14   31.88    2.92
   2   1 -14   36.13    3.75
   2   1 -14   33.83    2.89
   2   1 -14   36.22    3.28
   2   1 -14   39.47    3.89
   2   1 -14   28.53    2.75
   2   1 -14   32.50    2.95
   2   1 -14   31.72    3.55
   2   1 -14   35.61    4.05
   2   1 -14   34.95    2.81
   2   1 -13  103.73    6.17
   2   1 -13   93.82    6.15
   2   1 -13  101.78    7.06
   2   1 -13  112.86    7.82
   2   1 -13   95.86    5.89
   2   1 -13   89.98    6.10
   2   1 -13   94.66    6.86
   2   1 -13   96.94    7.13
   2   1 -13  105.92    6.71
   2   1 -13   97.07    6.04
   2   1 -12    0.93    0.67
   2   1 -12    1.47    0.73
   2   1 -12   -0.12    0.57
   2   1 -12    0.57    0.55
   2   1 -12    0.66    0.64
   2   1 -12   -1.07    0.89
   2   1 -12    0.75    0.86
   2   1 -12    0.42    0.70
   2   1 -12    1.19    0.64
   2   1 -12    0.73    0.90
   2   1 -11  421.62   20.90
   2   1 -11  424.28   21.41
   2   1 -11  401.70   21.58
   2   1 -11  428.44   20.99
   2   1 -11  401.48   21.99
   2   1 -11  403.22   20.94
   2   1 -11  414.65   22.44
   2   1 -11  416.63   21.22
   2   1 -11  415.71   20.74
   2   1 -11  437.36   21.82
   2   1 -10    3.26    0.78
   2   1  -9  429.26   21.09
   2   1  -9  420.05   21.34
   2   1  -8  233.46   11.96
   2   1  -8  233.78   12.26
   2   1  -7   21.40    1.94
   2   1  -6    2.47    0.68
   2   1  -6    3.12    0.44
   2   1  -5   15.35    1.51
   2   1  -5   16.81    1.22
   2   1  -4  345.72   16.88
   2   1  -4  330.91   16.48
   2   1  -4  345.55   16.49
   2   1  -3    1.42    0.41
   2   1  -3    0.69    0.32
   2   1  -2  962.13   46.17
   2   1  -2  984.33   46.17
   2   1  -1 2213.20  103.93
   2   1  -1 2145.35  103.91
   2   1  -1 2240.62  103.68
   2   1   0  362.97   17.53
   2   1   1   17.10    1.33
   2   1   2   19.78    1.44
   2   1   2   19.40    1.44
   2   1   3  293.83   14.14
   2   1   3  284.35   14.14
   2   1   4   38.88    2.38
   2   1   4   39.39    2.40
   2   1   5   58.31    3.43
   2   1   5   65.39    3.47
   2   1   6  916.19   42.84
   2   1   6  889.52   42.85
   2   1   7    0.23    0.25
   2   1   8 1128.44   53.26
  -2  -1  -9   77.81    4.42
  -2  -1  -9   64.04    3.41
  -2  -1 -10   82.01    5.13
  -2  -1 -11  148.76    8.69
  -2  -1 -11  160.26    8.59
  -2  -1 -12    1.98    0.74
  -2  -1 -12    1.94    0.78
  -2  -1 -13  572.15   28.20
  -2  -1 -13  568.54   28.60
  -2  -1 -14    2.62    0.96
  -2  -1 -14    2.84    0.84
  -2  -1 -14    1.14    0.64
  -2  -1 -15    2.77    1.03
  -2  -1 -15    2.16    0.66
  -2  -1 -15    2.61    0.87
  -2  -1 -15    1.60    0.73
  -2  -1 -15    3.51    1.28
  -2  -1 -16    2.92    0.99
  -2  -1 -16    5.03    1.57
  -2  -1 -16    5.97    1.41
  -2  -1 -16    4.62    1.50
  -2  -1 -16    4.53    0.91
  -2  -1 -16    5.70    1.04
  -2  -1 -17    5.82    1.34
  -2  -1 -17    6.71    1.71
  -2  -1 -17    5.59    1.15
  -2  -1 -17    5.76    0.99
  -2  -1 -17    6.27    1.69
  -2  -1 -18  100.53    6.50
  -2  -1 -18   96.71    7.11
  -2  -1 -18   95.35    5.94
  -2  -1 -18   96.20    7.45
  -2  -1 -19    1.74    1.04
  -2  -1 -19    0.75    0.71
  -2  -1 -19    1.12    0.66
  -2  -1 -19    1.19    0.97
  -2  -1 -20  106.11    6.55
  -2  -1 -20  125.54    8.22
  -2  -1 -20  122.99    7.55
  -2  -1 -20  126.90    7.30
  -2  -1 -21    0.12    0.61
  -2  -1 -21    0.92    0.89
  -2  -1 -21   -0.24    0.58
  -2  -1 -22  106.20    5.83
  -2  -1 -22  100.27    5.96
  -2  -1 -22   86.87    6.17
   2   2 -21    3.66    0.82
   2   2 -20    1.94    0.68
   2   2 -20    2.51    0.99
   2   2 -20    2.17    0.85
   2   2 -19   46.66    3.18
   2   2 -19   37.92    3.13
   2   2 -19   50.88    4.12
   2   2 -19   40.48    2.91
   2   2 -19   52.31    4.23
   2   2 -18    1.73    1.08
   2   2 -18    0.11    0.69
   2   2 -18   -0.25    0.58
   2   2 -18   -0.22    0.91
   2   2 -18   -0.36    0.62
   2   2 -17   31.92    2.84
   2   2 -17   31.08    2.58
   2   2 -17   34.43    3.78
   2   2 -17   27.48    2.48
   2   2 -17   38.38    3.88
   2   2 -17   24.80    2.59
   2   2 -16  132.03    8.10
   2   2 -16  129.70    8.30
   2   2 -16  156.55    8.58
   2   2 -16  138.92    9.02
   2   2 -16  159.66   10.02
   2   2 -16  147.56    8.21
   2   2 -16  160.24    9.97
   2   2 -15    2.91    0.99
   2   2 -15    3.38    0.96
   2   2 -15    1.79    0.82
   2   2 -15    3.77    1.17
   2   2 -15    2.33    0.94
   2   2 -15    2.96    0.95
   2   2 -15    0.82    1.22
   2   2 -15    1.71    0.66
   2   2 -15   -0.26    1.11
   2   2 -14   25.76    2.60
   2   2 -14   31.23    2.84
   2   2 -14   29.28    2.72
   2   2 -14   29.09    3.47
   2   2 -14   24.32    2.56
   2   2 -14   31.66    3.35
   2   2 -14   30.15    2.63
   2   2 -14   29.47    3.58
   2   2 -14   25.77    2.90
   2   2 -13    7.86    1.74
   2   2 -13    9.39    1.50
   2   2 -13   14.17    2.01
   2   2 -13   12.53    1.86
   2   2 -13   13.94    2.14
   2   2 -13   16.00    2.52
   2   2 -13   11.23    1.53
   2   2 -13    8.83    1.50
   2   2 -13   13.06    1.66
   2   2 -13   13.74    2.32
   2   2 -13   13.16    1.74
   2   2 -12  276.75   14.34
   2   2 -12  267.34   14.72
   2   2 -12  259.42   14.22
   2   2 -12  261.09   14.84
   2   2 -12  267.67   14.24
   2   2 -12  266.52   15.20
   2   2 -12  279.37   14.72
   2   2 -12  278.74   15.75
   2   2 -12  288.13   14.32
   2   2 -12  261.93   14.05
   2   2 -12  263.62   14.54
   2   2 -12  267.75   15.34
   2   2 -11    3.59    1.06
   2   2 -11    3.25    0.92
   2   2 -11    3.94    1.34
   2   2 -11    3.51    0.89
   2   2 -11    2.12    0.78
   2   2 -11    3.06    1.07
   2   2 -11    4.46    0.95
   2   2 -11    2.25    0.78
   2   2 -11    3.49    0.98
   2   2 -11    2.40    0.94
   2   2 -11    2.97    1.05
   2   2 -10  162.31    9.44
   2   2 -10  168.41    9.71
   2   2 -10  165.84   10.28
   2   2 -10  168.49    9.28
   2   2 -10  180.12   10.22
   2   2 -10  172.48    9.33
   2   2  -9  267.11   13.76
   2   2  -9  254.37   13.42
   2   2  -8    8.15    1.22
   2   2  -8    6.26    0.97
   2   2  -7  663.25   33.27
   2   2  -7  732.63   33.79
  -2  -2   6    1.39    0.36
   2   2  -6    1.00    0.34
   2   2  -6    1.86    0.67
   2   2  -5   59.48    3.38
   2   2  -4  147.16    7.54
   2   2  -3  615.01   29.17
   2   2  -3  605.52   29.06
   2   2  -3  605.55   29.45
   2   2  -2 2969.16  139.20
   2   2  -2 3026.82  139.45
   2   2  -2 2895.19  139.13
   2   2  -2 2961.85  138.65
   2   2  -1   61.20    3.15
  -2  -2   1   52.80    2.65
  -2  -2   0 9999.00  468.27
   2   2   1    0.57    0.35
   2   2   2   46.39    2.73
   2   2   3  354.76   17.20
   2   2   4    1.01    0.43
   2   2   4    0.77    0.33
   2   2   5  628.61   30.30
   2   2   5  642.56   30.41
   2   2   6    4.48    0.58
   2   2   6    4.87    0.68
   2   2   7 1542.72   72.90
   2   2   8   32.99    2.03
  -2  -2  -8   29.93    1.87
  -2  -2  -9  300.09   14.72
  -2  -2  -9  351.73   15.57
  -2  -2  -9  310.58   15.44
   2   2   9  297.74   14.84
  -2  -2 -10  320.44   16.75
  -2  -2 -10  345.24   16.77
  -2  -2 -11    6.59    1.09
  -2  -2 -11    6.80    1.09
  -2  -2 -12  533.25   26.40
  -2  -2 -12  537.94   26.63
  -2  -2 -13    1.91    0.85
  -2  -2 -13    1.03    0.73
  -2  -2 -13    1.59    0.72
  -2  -2 -14  566.88   27.09
  -2  -2 -14  481.31   25.23
  -2  -2 -14  505.77   25.44
  -2  -2 -14  536.18   25.90
  -2  -2 -15   23.86    2.89
  -2  -2 -15   22.41    2.14
  -2  -2 -15   22.71    2.48
  -2  -2 -15   24.43    2.27
  -2  -2 -15   21.12    2.79
  -2  -2 -16  165.46    9.07
  -2  -2 -16  165.76   10.44
  -2  -2 -16  160.12   10.42
  -2  -2 -16  153.58    9.15
  -2  -2 -16  176.87    9.80
  -2  -2 -16  169.23   11.07
  -2  -2 -17    8.06    1.80
  -2  -2 -17   11.33    1.98
  -2  -2 -17   10.97    1.71
  -2  -2 -17    6.80    1.33
  -2  -2 -17    7.75    1.21
  -2  -2 -17    8.47    2.12
  -2  -2 -18    1.74    0.74
  -2  -2 -18    4.43    1.38
  -2  -2 -18    2.05    0.91
  -2  -2 -18    2.69    1.46
  -2  -2 -18    5.11    1.33
  -2  -2 -19  350.53   17.95
  -2  -2 -19  303.46   16.61
  -2  -2 -19  356.70   17.61
  -2  -2 -19  341.05   19.36
  -2  -2 -20    8.11    1.47
  -2  -2 -20    6.36    1.31
  -2  -2 -20    6.96    1.92
  -2  -2 -21   10.34    1.46
  -2  -2 -21   11.07    1.62
  -2  -2 -21   13.83    2.34
  -2  -2 -22   16.33    2.16
  -2  -2 -22   17.89    1.70
  -2  -2 -22   14.70    1.78
  -2  -2 -23   29.18    2.39
   2   3 -20   24.10    1.96
   2   3 -20   26.49    2.42
   2   3 -19    0.59    0.61
   2   3 -19   -0.28    0.67
   2   3 -19   -0.15    0.75
   2   3 -19   -0.07    0.43
   2   3 -18   12.43    1.52
   2   3 -18   13.79    2.04
   2   3 -18   11.04    1.96
   2   3 -18   11.57    1.42
   2   3 -18   11.20    1.53
   2   3 -17    1.25    1.09
   2   3 -17    0.84    0.99
   2   3 -17    0.50    0.62
   2   3 -17    0.41    0.62
   2   3 -17    1.38    0.78
   2   3 -17    1.30    0.68
   2   3 -16    0.97    0.77
   2   3 -16    0.24    0.95
   2   3 -16   -0.51    0.65
   2   3 -16    0.16    0.58
   2   3 -16    0.69    0.86
   2   3 -16    0.34    0.73
   2   3 -16    0.69    0.99
   2   3 -15  202.32   11.72
   2   3 -15  235.83   13.25
   2   3 -15  237.18   11.81
   2   3 -15  216.85   12.36
   2   3 -15  220.92   11.88
   2   3 -15  183.77   11.53
   2   3 -15  236.26   13.32
   2   3 -14   21.56    2.54
   2   3 -14   21.98    2.40
   2   3 -14   20.54    2.65
   2   3 -14   19.99    2.25
   2   3 -14   21.04    2.22
   2   3 -14   21.28    2.34
   2   3 -14   23.91    3.14
   2   3 -14   25.51    3.13
   2   3 -13  143.26    8.86
   2   3 -13  131.24    8.08
   2   3 -13  139.51    8.00
   2   3 -13  138.65    9.33
   2   3 -13  136.23    8.47
   2   3 -13  135.10    8.19
   2   3 -13  139.09    8.37
   2   3 -13  134.53    9.08
   2   3 -12   13.88    1.79
   2   3 -12   16.80    1.99
   2   3 -12   17.40    2.04
   2   3 -12   13.88    2.31
   2   3 -12   13.32    2.03
   2   3 -12   15.40    1.88
   2   3 -12   10.61    1.73
   2   3 -12   14.87    2.28
   2   3 -11  168.31   10.40
   2   3 -11  183.44    9.99
   2   3 -11  187.37   10.40
   2   3 -11  178.76   10.70
   2   3 -11  177.76   10.03
   2   3 -11  187.11    9.94
   2   3 -11  169.56    9.84
   2   3 -11  182.32    9.93
   2   3 -11  174.62   10.83
   2   3 -11  144.45    9.53
   2   3 -11  179.22    9.72
   2   3 -11  192.20   10.39
   2   3 -10  108.07    6.19
   2   3 -10  102.36    6.42
   2   3 -10   98.18    6.14
   2   3 -10   96.31    6.13
   2   3 -10   91.52    6.75
   2   3 -10   90.83    5.99
   2   3 -10   94.81    6.18
   2   3 -10  108.96    6.92
   2   3 -10  105.81    6.20
   2   3 -10   92.27    6.51
   2   3 -10  103.66    6.57
   2   3  -9   10.19    1.49
   2   3  -9   11.14    1.41
   2   3  -8  563.06   27.74
   2   3  -8  552.00   27.40
   2   3  -7   72.88    4.11
   2   3  -7   82.57    5.06
   2   3  -7   79.66    4.71
  -2  -3   6   57.16    3.48
   2   3  -6   63.07    3.53
  -2  -3   5   38.41    2.42
   2   3  -5   40.00    2.54
   2   3  -4  166.74    8.65
  -2  -3   4  155.03    8.07
   2   3  -3  672.27   31.65
   2   3  -3  638.04   31.88
   2   3  -2  321.40   15.69
   2   3  -2  311.90   15.86
   2   3  -1 1629.91   78.03
   2   3  -1 1671.66   78.17
  -2  -3   0    0.64    0.29
  -2  -3  -1   26.03    1.53
  -2  -3  -2  156.51    7.68
  -2  -3  -3   43.43    2.46
   2   3   3   44.32    2.79
   2   3   4  253.95   12.18
  -2  -3  -4  234.59   11.81
   2   3   5    5.19    0.77
  -2  -3  -5    5.74    0.70
  -2  -3  -6  274.99   13.76
   2   3   6  284.98   13.98
  -2  -3  -7   58.13    3.32
  -2  -3  -7   59.47    3.49
   2   3   8   30.11    2.20
  -2  -3  -8   33.26    2.05
   2   3   9  277.16   13.71
  -2  -3  -9  277.25   13.46
  -2  -3  -9  270.70   13.81
  -2  -3 -10    5.23    0.56
  -2  -3 -10    4.41    0.81
  -2  -3 -10    3.76    0.82
  -2  -3 -11  118.59    6.53
  -2  -3 -11  111.57    6.50
  -2  -3 -12    4.57    0.93
  -2  -3 -12    3.26    0.81
  -2  -3 -13  135.73    7.53
  -2  -3 -13  129.26    7.62
  -2  -3 -13  129.63    8.28
  -2  -3 -14   87.65    6.24
  -2  -3 -14   90.52    5.75
  -2  -3 -14   84.21    6.48
  -2  -3 -14   93.12    5.61
  -2  -3 -15  282.59   14.52
  -2  -3 -15  260.46   15.59
  -2  -3 -15  288.66   15.21
  -2  -3 -15  252.46   14.14
  -2  -3 -16    1.87    0.90
  -2  -3 -16    1.17    0.84
  -2  -3 -16    2.54    0.90
  -2  -3 -16    1.54    1.07
  -2  -3 -17    3.30    1.07
  -2  -3 -17    3.28    1.12
  -2  -3 -17    3.47    1.18
  -2  -3 -17    2.42    1.31
  -2  -3 -18  116.34    7.78
  -2  -3 -18  128.49    8.91
  -2  -3 -18  126.00    7.68
  -2  -3 -18  107.55    9.33
  -2  -3 -19    0.33    1.49
  -2  -3 -19   -0.16    0.82
  -2  -3 -19    1.01    1.17
  -2  -3 -19    0.66    0.72
  -2  -3 -20   45.66    3.79
  -2  -3 -20   50.73    4.08
  -2  -3 -20   51.69    5.24
  -2  -3 -21   64.51    4.35
  -2  -3 -21   63.51    4.58
  -2  -3 -21   59.70    5.40
  -2  -3 -22    0.50    0.52
  -2  -3 -22    0.48    0.44
  -2  -3 -22    0.34    0.73
  -2  -3 -23   60.34    4.12
   2   4 -20    1.05    0.49
   2   4 -20    1.09    0.53
   2   4 -19  105.15    5.82
   2   4 -19  108.95    6.41
   2   4 -18    2.43    0.71
   2   4 -18    3.80    1.04
   2   4 -18    3.21    0.82
   2   4 -18    4.26    1.07
   2   4 -17   75.59    4.84
   2   4 -17   67.69    4.76
   2   4 -17   86.21    5.73
   2   4 -17   85.21    4.98
   2   4 -17   82.14    5.73
   2   4 -16   94.70    5.79
   2   4 -16   80.45    5.58
   2   4 -16  100.90    6.75
   2   4 -16   93.84    5.72
   2   4 -16   93.87    6.59
   2   4 -15    3.71    1.10
   2   4 -15    3.76    1.29
   2   4 -15    2.45    0.87
   2   4 -15    3.40    0.89
   2   4 -15    3.58    1.05
   2   4 -15    4.11    1.39
   2   4 -14  169.07    9.67
   2   4 -14  169.50    9.67
   2   4 -14  182.99   10.72
   2   4 -14  158.51    9.41
   2   4 -14  154.41    9.68
   2   4 -14  161.36    9.61
   2   4 -14  169.38   10.55
   2   4 -13    7.60    1.51
   2   4 -13    9.88    1.64
   2   4 -13   11.83    1.81
   2   4 -13    9.99    1.69
   2   4 -13   11.66    2.12
   2   4 -13   11.41    1.64
   2   4 -13    9.40    1.89
   2   4 -12   81.25    5.55
   2   4 -12   91.62    5.98
   2   4 -12   83.12    6.28
   2   4 -12   80.85    6.11
   2   4 -12   74.77    5.32
   2   4 -12   78.18    5.52
   2   4 -12   78.80    5.77
   2   4 -12   80.11    5.47
   2   4 -11  222.11   11.81
   2   4 -11  220.56   11.92
   2   4 -11  221.55   11.78
   2   4 -11  221.63   12.68
   2   4 -11  208.38   12.12
   2   4 -11  208.94   11.67
   2   4 -11  203.79   11.73
   2   4 -11  230.16   12.37
   2   4 -11  189.31   11.36
   2   4 -11  206.01   11.75
   2   4 -11  229.37   12.63
   2   4 -10   14.40    1.81
   2   4 -10   14.27    1.89
   2   4 -10   11.02    1.67
   2   4 -10   14.95    1.76
   2   4 -10   14.12    1.76
   2   4 -10   16.92    1.87
   2   4 -10   12.33    1.84
   2   4 -10   16.11    2.13
   2   4 -10   13.31    2.08
   2   4 -10   14.48    1.77
   2   4 -10   15.00    1.74
   2   4 -10   14.22    2.09
   2   4  -9  745.21   36.14
   2   4  -9  756.40   36.03
   2   4  -9  752.12   36.44
   2   4  -9  717.19   36.88
   2   4  -9  765.41   36.85
   2   4  -9  736.59   36.78
   2   4  -9  691.32   36.44
   2   4  -9  726.87   36.15
   2   4  -8    1.66    0.69
   2   4  -8    0.46    0.47
   2   4  -7  277.83   14.12
   2   4  -7  255.58   13.49
   2   4  -7  303.31   14.61
   2   4  -6  180.14    9.48
  -2  -4   6  186.73    9.63
  -2  -4   5   27.25    2.13
   2   4  -5   31.15    2.27
   2   4  -4    8.77    1.06
   2   4  -4    7.51    1.16
  -2  -4   4    6.37    0.87
  -2  -4   3    0.40    0.36
   2   4  -3    0.29    0.50
   2   4  -3   -0.15    0.39
   2   4  -2  502.58   24.87
  -2  -4   2  501.91   24.42
   2   4  -2  511.78   24.68
  -2  -4   1    8.98    0.98
   2   4  -1    9.75    1.13
  -2  -4   0   13.65    1.22
  -2  -4  -1  224.99   11.18
  -2  -4  -1  221.24   10.93
  -2  -4  -2   84.05    4.73
  -2  -4  -2   87.38    4.59
  -2  -4  -3  797.29   37.61
   2   4   3  781.00   38.08
  -2  -4  -4    0.08    0.33
   2   4   4    0.08    0.40
  -2  -4  -4   -0.06    0.34
   2   4   5  566.77   27.16
  -2  -4  -5  565.95   26.82
  -2  -4  -5  542.71   26.66
  -2  -4  -6    3.30    0.61
  -2  -4  -6    3.91    0.67
   2   4   6    4.66    0.85
  -2  -4  -7    2.08    0.57
  -2  -4  -7    2.66    0.57
   2   4   7    2.30    0.66
   2   4   8   61.20    3.91
  -2  -4  -8   60.72    3.64
  -2  -4  -8   58.78    3.53
  -2  -4  -9   11.75    1.22
  -2  -4  -9   13.89    1.26
   2   4  10  240.37   12.83
  -2  -4 -10  251.97   12.46
  -2  -4 -10  264.29   12.89
  -2  -4 -11    1.52    0.62
  -2  -4 -11    1.24    0.49
  -2  -4 -12   46.34    3.25
  -2  -4 -12   41.74    3.15
  -2  -4 -13   53.51    4.21
  -2  -4 -13   58.97    4.02
   2   4  13   56.44    4.81
  -2  -4 -13   58.71    3.98
  -2  -4 -13   55.55    4.80
  -2  -4 -14   65.27    4.69
  -2  -4 -14   55.86    5.25
  -2  -4 -14   63.92    4.33
  -2  -4 -14   54.73    4.13
  -2  -4 -15  210.83   11.29
  -2  -4 -15  211.34   11.66
  -2  -4 -15  191.49   11.15
  -2  -4 -15  187.45   12.60
  -2  -4 -16   11.02    1.75
  -2  -4 -16   11.92    2.57
  -2  -4 -16   13.70    1.93
  -2  -4 -16   12.33    1.79
  -2  -4 -17   42.63    3.94
  -2  -4 -17   44.76    3.88
  -2  -4 -17   51.52    5.29
  -2  -4 -18    1.77    0.89
  -2  -4 -18    3.40    1.32
  -2  -4 -18    2.76    1.57
  -2  -4 -18    1.82    0.87
  -2  -4 -19   40.96    3.42
  -2  -4 -19   35.10    3.50
  -2  -4 -19   38.18    4.33
  -2  -4 -19   33.92    4.52
  -2  -4 -20   38.18    3.38
  -2  -4 -20   35.93    3.07
  -2  -4 -20   31.81    3.60
  -2  -4 -20   40.49    4.40
  -2  -4 -21    4.42    1.47
  -2  -4 -21    6.27    1.05
  -2  -4 -21    3.43    1.04
  -2  -4 -22   50.65    4.22
  -2  -4 -23    3.99    0.93
   2   5 -19    9.18    1.08
   2   5 -19    9.74    1.13
   2   5 -18   -0.12    0.50
   2   5 -18    0.27    0.62
   2   5 -18    0.21    0.52
   2   5 -18    0.20    0.49
   2   5 -17  143.07    8.52
   2   5 -17  175.92    8.85
   2   5 -17  164.42    8.74
   2   5 -17  159.41    9.23
   2   5 -17  169.65    9.10
   2   5 -16    0.33    0.70
   2   5 -16   -0.53    0.94
   2   5 -16    0.34    0.67
   2   5 -16    0.71    0.47
   2   5 -16   -0.32    0.73
   2   5 -15  150.67    8.54
   2   5 -15  132.44    8.21
   2   5 -15  134.63    8.22
   2   5 -15  155.29    9.16
   2   5 -15  151.60    9.14
   2   5 -15  158.55    8.81
   2   5 -14   57.87    4.37
   2   5 -14   60.50    4.84
   2   5 -14   57.07    4.44
   2   5 -14   61.26    4.87
   2   5 -14   59.39    4.34
   2   5 -14   47.16    3.94
   2   5 -13   12.75    1.88
   2   5 -13   12.20    2.05
   2   5 -13   12.27    2.12
   2   5 -13   10.75    1.60
   2   5 -13   12.91    1.89
   2   5 -13   10.61    1.80
   2   5 -12    7.23    1.51
   2   5 -12    7.97    1.60
   2   5 -12    9.74    1.82
   2   5 -12   10.61    1.68
   2   5 -12    7.04    1.33
   2   5 -12    6.19    1.48
   2   5 -11    7.94    1.67
   2   5 -11    9.60    1.53
   2   5 -11    7.60    1.35
   2   5 -11    7.65    1.60
   2   5 -11   10.13    1.65
   2   5 -11   11.19    1.68
   2   5 -11   10.67    1.89
   2   5 -11   10.64    1.84
   2   5 -11    9.73    1.57
   2   5 -10  571.52   30.33
   2   5 -10  648.06   30.97
   2   5 -10  579.55   30.28
   2   5 -10  668.91   31.17
   2   5 -10  613.75   30.29
   2   5 -10  564.10   29.68
   2   5 -10  641.25   30.21
   2   5 -10  602.55   30.93
   2   5 -10  606.31   30.32
   2   5  -9    0.14    0.76
   2   5  -9    0.38    0.42
   2   5  -9   -0.10    0.52
   2   5  -9    0.42    0.60
   2   5  -9   -0.18    0.67
   2   5  -9    0.15    0.48
   2   5  -9    0.50    0.71
   2   5  -9    0.39    0.61
   2   5  -9    0.15    0.58
   2   5  -9   -0.17    0.64
   2   5  -8  590.56   29.39
   2   5  -8  590.90   29.54
   2   5  -8  547.21   29.46
   2   5  -8  584.47   29.87
   2   5  -8  595.35   29.46
   2   5  -8  589.12   29.80
   2   5  -8  617.14   29.78
   2   5  -8  637.06   30.29
   2   5  -8  588.97   29.25
   2   5  -7  132.04    7.23
   2   5  -6    6.53    1.05
  -2  -5   6    8.25    1.12
  -2  -5   5  544.54   27.24
   2   5  -5  571.88   27.43
   2   5  -4    0.24    0.52
  -2  -5   4   -0.09    0.46
   2   5  -4    0.20    0.44
   2   5  -3  372.35   18.06
   2   5  -3  370.71   18.31
  -2  -5   3  337.52   17.74
   2   5  -2    1.51    0.66
   2   5  -2    0.96    0.55
  -2  -5   2    1.33    0.57
   2   5  -1   85.38    5.27
  -2  -5   1   90.34    5.05
   2   5   0  272.72   14.03
  -2  -5   0  272.10   13.68
  -2  -5  -1    3.87    0.76
  -2  -5  -2  316.75   15.77
   2   5   3   14.14    1.57
  -2  -5  -3   13.79    1.25
   2   5   4  428.57   21.75
  -2  -5  -4  437.97   21.18
  -2  -5  -5   47.09    3.06
   2   5   5   45.31    3.42
  -2  -5  -5   47.93    3.03
  -2  -5  -6  169.75    8.57
   2   5   6  150.11    8.92
  -2  -5  -6  160.24    8.44
   2   5   7  150.60    8.37
  -2  -5  -7  146.06    7.76
  -2  -5  -7  141.28    7.77
   2   5   8   85.11    5.33
  -2  -5  -8   81.59    4.75
  -2  -5  -8   81.82    4.75
  -2  -5  -8   73.85    4.64
  -2  -5  -9   59.76    3.68
  -2  -5  -9   58.77    3.82
  -2  -5  -9   62.65    3.87
   2   5   9   55.82    4.21
  -2  -5 -10    1.20    0.57
   2   5  10    0.14    0.50
  -2  -5 -10    0.84    0.43
  -2  -5 -11  245.04   12.12
  -2  -5 -11  219.17   11.40
  -2  -5 -12  207.06   11.77
  -2  -5 -12  218.95   11.72
   2   5  12  222.82   13.24
  -2  -5 -12  227.67   11.82
   2   5  13    1.04    1.01
  -2  -5 -13    0.63    0.60
  -2  -5 -13    0.94    0.63
  -2  -5 -13    0.79    0.79
  -2  -5 -14  321.44   16.95
   2   5  14  312.98   18.54
  -2  -5 -14  320.63   16.86
  -2  -5 -14  323.02   16.95
   2   5  15    3.34    1.51
  -2  -5 -15    0.15    0.77
  -2  -5 -15    0.62    1.20
  -2  -5 -15    1.23    0.73
  -2  -5 -15    0.92    0.86
  -2  -5 -16   50.87    4.30
  -2  -5 -16   51.62    4.22
  -2  -5 -16   54.85    5.71
  -2  -5 -16   59.46    4.41
  -2  -5 -17   22.11    2.72
  -2  -5 -17   20.48    2.38
  -2  -5 -17   26.55    3.74
  -2  -5 -17   18.36    2.37
  -2  -5 -18    7.16    1.54
  -2  -5 -18    6.43    1.29
  -2  -5 -18    6.80    2.06
  -2  -5 -19   68.94    4.70
  -2  -5 -19   63.15    4.91
  -2  -5 -19   62.55    5.75
  -2  -5 -20    1.65    1.03
  -2  -5 -20    2.54    0.94
  -2  -5 -20    3.04    0.84
  -2  -5 -20    4.14    1.44
  -2  -5 -21   59.40    5.02
  -2  -5 -22    1.08    0.79
  -2  -5 -23    4.83    1.04
   2   6 -19    0.13    0.30
   2   6 -18   90.22    4.79
   2   6 -18   71.40    4.27
   2   6 -17    1.03    0.81
   2   6 -17    1.57    0.63
   2   6 -17    0.76    0.58
   2   6 -16   22.85    2.28
   2   6 -16   21.63    2.05
   2   6 -16   17.91    1.72
   2   6 -16   19.17    2.09
   2   6 -15   70.89    4.65
   2   6 -15   54.71    4.09
   2   6 -15   70.49    4.53
   2   6 -15   68.66    4.80
   2   6 -15   67.84    4.78
   2   6 -14   51.96    4.09
   2   6 -14   51.39    3.79
   2   6 -14   43.76    3.51
   2   6 -14   47.39    4.01
   2   6 -14   49.91    3.83
   2   6 -14   47.22    3.85
   2   6 -13  244.69   12.77
   2   6 -13  241.00   13.07
   2   6 -13  214.10   12.46
   2   6 -13  226.32   13.11
   2   6 -13  242.68   13.08
   2   6 -13  222.60   12.85
   2   6 -13  232.65   13.16
   2   6 -12    0.98    1.00
   2   6 -12    3.20    1.10
   2   6 -12    2.20    0.77
   2   6 -12    2.06    0.98
   2   6 -12    2.92    1.09
   2   6 -11   50.24    4.06
   2   6 -11   47.82    4.21
   2   6 -11   46.37    4.15
   2   6 -11   47.18    3.89
   2   6 -11   58.97    4.66
   2   6 -11   52.48    4.06
   2   6 -10   18.12    2.13
   2   6 -10   13.94    1.89
   2   6 -10   12.49    1.84
   2   6 -10   15.97    2.03
   2   6 -10   14.93    2.11
   2   6 -10   16.06    2.32
   2   6 -10   14.71    2.08
   2   6  -9   76.07    5.47
   2   6  -9   77.80    5.26
   2   6  -9   79.28    5.25
   2   6  -9   76.84    5.35
   2   6  -9   78.25    5.88
   2   6  -9   77.05    5.55
   2   6  -9   75.49    5.42
   2   6  -9   71.71    5.44
   2   6  -8   91.15    6.15
   2   6  -8   94.11    6.06
   2   6  -8   99.78    6.75
   2   6  -8   98.10    6.02
   2   6  -8   84.20    6.07
   2   6  -8   89.78    6.14
   2   6  -8   84.51    6.02
   2   6  -8   90.93    5.77
   2   6  -7   20.44    2.03
   2   6  -7   20.08    2.29
   2   6  -7   20.74    2.27
   2   6  -7   18.24    2.09
   2   6  -7   20.46    2.59
   2   6  -7   20.48    2.27
  -2  -6   6  263.79   14.11
   2   6  -6  272.29   14.24
   2   6  -6  259.68   14.40
   2   6  -6  276.44   15.14
   2   6  -6  285.43   14.53
  -2  -6   5   17.10    1.76
   2   6  -5   16.73    1.87
   2   6  -5   16.83    1.99
  -2  -6   4   77.35    4.92
   2   6  -4   81.67    5.27
   2   6  -4   84.43    5.47
   2   6  -3   16.65    1.96
  -2  -6   3   15.85    1.68
   2   6  -3   16.76    1.86
  -2  -6   2   27.94    2.41
   2   6  -2   29.27    2.68
   2   6  -2   33.79    2.75
   2   6  -1  322.83   15.82
  -2  -6   1  285.23   15.32
   2   6   0   15.09    1.84
  -2  -6   0   15.66    1.62
  -2  -6  -1  714.88   34.71
  -2  -6  -2   22.31    2.01
  -2  -6  -3   45.11    3.14
   2   6   3   42.14    3.52
   2   6   4  130.65    7.88
  -2  -6  -5    1.80    0.70
   2   6   5    1.04    0.83
  -2  -6  -5    3.17    0.78
   2   6   6  704.89   36.46
  -2  -6  -6  738.63   35.87
  -2  -6  -6  755.61   35.66
  -2  -6  -7   21.67    1.92
  -2  -6  -7   18.00    1.88
   2   6   7   22.27    2.45
   2   6   8   15.37    2.03
  -2  -6  -8   13.17    1.61
  -2  -6  -8   16.69    1.62
   2   6   9    3.04    1.00
  -2  -6  -9    2.20    0.62
  -2  -6  -9    1.77    0.79
  -2  -6  -9    1.98    0.65
   2   6  10   57.68    4.67
  -2  -6 -10   64.16    4.05
  -2  -6 -10   58.19    3.80
  -2  -6 -10   64.31    4.28
   2   6  11  127.19    8.49
  -2  -6 -11  114.58    6.51
  -2  -6 -11  121.23    6.94
  -2  -6 -12   49.16    3.66
   2   6  12   52.56    5.02
  -2  -6 -12   51.40    3.77
  -2  -6 -13  118.38    7.52
  -2  -6 -13  136.40    7.82
   2   6  13  128.40    9.30
  -2  -6 -13  128.84    7.61
  -2  -6 -14    7.21    1.25
   2   6  14    5.46    1.78
  -2  -6 -14    6.14    1.29
  -2  -6 -14    6.86    1.47
   2   6  15   76.17    6.61
  -2  -6 -15   72.42    5.03
  -2  -6 -15   65.09    6.25
  -2  -6 -15   71.96    5.13
  -2  -6 -15   69.20    5.09
  -2  -6 -16    3.01    1.60
  -2  -6 -16    8.70    1.40
  -2  -6 -16    5.78    1.37
  -2  -6 -16    4.82    1.24
   2   6  16    6.43    1.83
  -2  -6 -17    4.11    1.13
  -2  -6 -17    1.70    0.80
  -2  -6 -17    1.19    1.28
  -2  -6 -18   26.69    3.60
  -2  -6 -18   29.13    2.86
  -2  -6 -18   25.82    2.58
  -2  -6 -19   13.76    1.73
  -2  -6 -19   18.56    2.68
  -2  -6 -20   31.67    3.42
  -2  -6 -20   40.86    4.01
  -2  -6 -21    1.10    0.96
  -2  -6 -22   53.08    4.17
  -2  -6 -23    3.49    0.79
   2   7 -18    0.47    0.35
   2   7 -17   20.95    1.75
   2   7 -17   20.56    1.98
   2   7 -17   26.34    1.95
   2   7 -16   55.88    3.61
   2   7 -16   47.48    3.66
   2   7 -16   53.30    3.55
   2   7 -15    8.24    1.38
   2   7 -15    4.84    1.02
   2   7 -15    5.63    1.09
   2   7 -15    7.12    1.24
   2   7 -14  105.76    6.50
   2   7 -14  113.62    6.59
   2   7 -14   89.40    5.89
   2   7 -14  112.65    6.45
   2   7 -14  101.10    6.24
   2   7 -14   96.31    6.29
   2   7 -13    1.22    0.61
   2   7 -13    1.26    0.90
   2   7 -13    1.12    0.78
   2   7 -13    1.03    0.79
   2   7 -13    1.54    1.01
   2   7 -12  133.11    7.80
   2   7 -12  113.35    7.46
   2   7 -12  130.23    7.90
   2   7 -12  136.28    7.91
   2   7 -12  121.77    8.06
   2   7 -11    3.18    1.11
   2   7 -11    1.70    0.92
   2   7 -11    1.33    0.89
   2   7 -11    1.82    0.80
   2   7 -10    7.05    1.34
   2   7 -10    7.68    1.66
   2   7 -10    8.53    1.57
   2   7 -10    6.21    1.31
   2   7 -10    9.46    1.63
   2   7 -10    8.35    1.76
   2   7  -9   79.29    5.21
   2   7  -9   81.78    5.86
   2   7  -9   80.54    5.53
   2   7  -9   68.43    5.31
   2   7  -9   81.55    6.14
   2   7  -9   78.47    5.49
   2   7  -8    1.98    0.79
   2   7  -8    0.73    0.92
   2   7  -8    0.65    0.75
   2   7  -8    0.18    0.71
   2   7  -8    1.16    0.82
   2   7  -8    0.72    0.82
   2   7  -8    1.09    0.76
   2   7  -7  553.51   27.29
   2   7  -7  543.72   28.17
   2   7  -7  533.30   27.76
   2   7  -7  581.51   28.93
   2   7  -7  556.74   27.67
   2   7  -6    0.38    0.48
   2   7  -6    0.29    0.56
   2   7  -6    1.07    0.67
   2   7  -6    2.20    0.98
   2   7  -6    0.55    0.57
  -2  -7   5  121.84    7.52
   2   7  -5  136.16    7.98
   2   7  -5  133.88    7.72
   2   7  -5  126.51    7.40
   2   7  -4   46.00    3.79
  -2  -7   4   44.01    3.39
   2   7  -4   46.80    3.48
   2   7  -4   48.74    3.90
  -2  -7   3   17.66    1.87
   2   7  -3   21.50    2.36
   2   7  -3   17.21    2.16
   2   7  -2    8.33    1.45
   2   7  -2    7.37    1.38
  -2  -7   2    7.17    1.18
   2   7  -1    8.02    1.53
  -2  -7   1    8.47    1.29
  -2  -7   0 1776.11   81.93
   2   7   0 1632.42   82.60
  -2  -7  -1    3.28    0.98
  -2  -7  -2  350.20   17.86
  -2  -7  -3   89.32    5.54
   2   7   4    5.15    1.20
  -2  -7  -5  297.72   15.30
   2   7   5  293.03   15.93
  -2  -7  -6   59.43    3.97
   2   7   6   52.81    4.33
  -2  -7  -7  279.87   14.37
   2   7   7  269.73   14.99
  -2  -7  -8    0.63    0.55
   2   7   8    2.39    0.91
   2   7   9   70.86    5.53
  -2  -7  -9   76.93    4.85
  -2  -7  -9   76.77    4.93
   2   7   9   82.51    5.70
   2   7  10  133.22    8.34
  -2  -7 -10  126.48    7.34
   2   7  10  132.33    8.58
  -2  -7 -10  132.47    7.62
  -2  -7 -11    0.63    0.83
   2   7  11    0.45    0.79
  -2  -7 -11    0.77    0.45
  -2  -7 -11    0.71    0.43
   2   7  11    0.73    0.79
   2   7  12   93.84    7.05
  -2  -7 -12   86.51    5.54
   2   7  13   32.52    3.64
  -2  -7 -13   22.45    2.31
  -2  -7 -14    6.40    1.23
   2   7  14   10.14    2.08
  -2  -7 -15    0.52    0.51
   2   7  15    0.55    1.02
  -2  -7 -16   23.85    2.44
   2   7  16   28.41    3.46
  -2  -7 -16   25.96    3.41
  -2  -7 -17   28.45    2.67
  -2  -7 -17   24.72    3.51
  -2  -7 -18   28.25    3.43
  -2  -7 -19   38.17    3.90
  -2  -7 -20    2.17    0.95
  -2  -7 -20    1.18    1.10
  -2  -7 -21    3.10    1.12
  -2  -7 -22    1.37    0.71
  -2  -7 -23    6.21    1.07
   2   8 -17    0.09    0.34
   2   8 -16    0.33    0.48
   2   8 -16    0.78    0.49
   2   8 -16    0.85    0.60
   2   8 -15   80.77    5.19
   2   8 -15   91.14    5.34
   2   8 -15   92.02    5.36
   2   8 -14    0.99    0.75
   2   8 -14    2.27    0.88
   2   8 -13   78.02    5.09
   2   8 -13   82.56    5.24
   2   8 -13   75.30    5.23
   2   8 -12    0.17    0.98
   2   8 -12   -0.24    0.67
   2   8 -12    0.37    0.49
   2   8 -12   -0.13    0.85
   2   8 -12    0.98    0.61
   2   8 -12    0.70    0.78
   2   8 -11   66.13    4.53
   2   8 -11   76.83    5.45
   2   8 -11   66.30    5.11
   2   8 -11   58.54    4.47
   2   8 -11   58.89    4.47
   2   8 -11   63.59    4.61
   2   8 -10    2.66    0.89
   2   8 -10    3.13    1.01
   2   8 -10    2.39    1.30
   2   8 -10    3.19    1.20
   2   8 -10    1.70    0.87
   2   8  -9    4.58    1.11
   2   8  -9    5.60    1.26
   2   8  -9    8.01    1.75
   2   8  -9    6.17    1.34
   2   8  -9    8.45    1.83
   2   8  -9    5.18    1.19
   2   8  -8  372.85   20.82
   2   8  -8  393.08   20.01
   2   8  -8  395.71   19.70
   2   8  -8  392.24   20.48
   2   8  -8  410.70   21.50
   2   8  -8  366.85   20.00
   2   8  -7    1.75    0.81
   2   8  -7    2.90    1.43
   2   8  -7    2.62    0.95
   2   8  -7    5.32    1.50
   2   8  -7    4.01    1.03
   2   8  -6  256.44   14.70
   2   8  -6  226.08   14.05
   2   8  -6  277.13   13.69
   2   8  -6  293.39   15.55
   2   8  -6  246.26   13.74
   2   8  -5   16.96    2.38
  -2  -8   5   19.50    2.22
   2   8  -5   20.09    1.95
   2   8  -5   19.62    2.42
   2   8  -5   17.84    2.02
   2   8  -4    1.73    0.86
   2   8  -4    3.20    1.15
   2   8  -4    1.97    0.94
  -2  -8   4    0.40    0.67
   2   8  -3   77.44    6.01
   2   8  -3   93.58    6.20
  -2  -8   3   82.77    5.40
   2   8  -3   76.08    6.03
   2   8  -2    2.36    1.02
   2   8  -2    2.26    1.06
   2   8  -2    3.83    1.19
  -2  -8   2    2.76    0.88
  -2  -8   1   74.39    4.92
   2   8  -1   72.83    5.73
   2   8  -1   62.01    5.50
   2   8  -1   83.34    5.76
  -2  -8   0   60.17    4.33
   2   8   0   64.34    5.12
   2   8   0   63.57    5.21
  -2  -8  -1   82.23    5.36
  -2  -8  -2   86.08    5.52
  -2  -8  -3   16.02    1.89
   2   8   4   50.68    4.25
   2   8   5    2.90    1.01
  -2  -8  -5    0.74    0.65
   2   8   6  139.95    8.87
   2   8   6  145.90    9.04
  -2  -8  -6  147.70    8.37
   2   8   7    2.09    0.83
  -2  -8  -7    0.74    0.60
   2   8   7    1.29    0.82
   2   8   8   13.86    1.98
   2   8   8   13.69    2.01
   2   8   8   10.32    1.79
  -2  -8  -8   12.02    1.60
   2   8   9  101.31    7.05
   2   8   9  103.32    7.21
   2   8   9  113.52    7.36
  -2  -8  -9  104.77    6.44
   2   8  10   36.19    3.58
   2   8  10   34.54    3.59
  -2  -8 -10   37.83    3.05
  -2  -8 -11  216.30   12.06
   2   8  11  231.34   13.47
   2   8  11  238.46   13.22
   2   8  12    8.38    1.87
   2   8  13    0.25    0.89
   2   8  14   17.68    2.74
   2   8  15   31.42    3.77
   2   8  16   47.83    4.68
  -2  -8 -17    5.21    1.60
   2   8  17    3.79    1.35
  -2  -8 -18   31.92    3.47
  -2  -8 -19    0.37    0.88
  -2  -8 -20   -0.14    0.64
  -2  -8 -21    2.68    0.99
  -2  -8 -22    5.86    1.07
   2   9 -15   11.51    1.16
   2   9 -14   51.68    3.54
   2   9 -14   72.32    3.87
   2   9 -13    5.61    1.01
   2   9 -13    7.16    1.37
   2   9 -13    6.80    1.06
   2   9 -12    6.28    1.46
   2   9 -12    5.58    1.00
   2   9 -12    6.77    1.27
   2   9 -12    3.80    0.94
   2   9 -11   52.85    3.88
   2   9 -11   63.86    4.86
   2   9 -11   60.44    4.76
   2   9 -11   62.31    4.11
   2   9 -10    0.40    0.66
   2   9 -10    0.22    0.80
   2   9 -10    0.45    0.65
   2   9 -10    0.20    1.03
   2   9  -9    5.40    1.02
   2   9  -9    6.47    1.34
   2   9  -9    6.57    1.71
   2   9  -9    4.33    1.55
   2   9  -8    9.50    2.11
   2   9  -8   10.92    1.84
   2   9  -7  295.93   16.89
   2   9  -7  326.08   17.72
   2   9  -7  289.78   15.49
   2   9  -6   19.72    2.81
   2   9  -6   17.25    1.89
   2   9  -6   20.12    3.02
   2   9  -5    0.62    1.10
   2   9  -5   -0.23    0.66
   2   9  -5    0.70    0.55
   2   9  -5   -0.44    0.91
   2   9  -4  105.69    7.59
  -2  -9   4   96.98    6.64
   2   9  -4  104.14    7.60
   2   9  -3    1.57    1.09
  -2  -9   3    0.15    0.58
   2   9  -3    0.22    0.66
   2   9  -3    1.00    1.08
   2   9  -2   43.06    4.35
   2   9  -2   45.21    4.27
   2   9  -2   43.23    4.33
  -2  -9   2   37.77    3.41
   2   9  -2   42.49    4.42
  -2  -9   1    6.65    1.32
   2   9  -1    5.78    1.60
   2   9  -1    6.49    1.58
   2   9  -1    7.45    1.75
   2   9  -1    6.98    1.76
  -2  -9   0    0.85    0.56
  -2  -9   0    0.14    0.61
   2   9   0    1.25    1.00
   2   9   0    1.86    1.15
   2   9   0    0.47    0.87
   2   9   0    1.98    1.10
   2   9   1  167.07   10.79
   2   9   1  164.45   10.61
   2   9   1  146.70   11.20
  -2  -9  -1  179.46    9.90
  -2  -9  -1  183.42    9.80
  -2  -9  -2   62.06    4.52
   2   9   2   56.99    5.84
  -2  -9  -2   63.32    4.49
   2   9   3   54.06    4.62
  -2  -9  -3   62.48    4.35
  -2  -9  -3   49.27    4.04
   2   9   4    5.39    1.48
   2   9   4    8.40    1.63
   2   9   5   28.10    3.15
   2   9   5   33.26    3.42
  -2  -9  -6    3.99    1.06
   2   9   6    2.92    1.14
   2   9   6    4.36    1.30
  -2  -9  -7   16.13    2.07
   2   9   7   20.59    2.59
   2   9   7   17.34    2.46
  -2  -9  -8  213.59   11.58
   2   9   8  194.79   12.10
   2   9   8  204.80   12.03
   2   9   8  210.33   12.35
   2   9   9   96.96    6.84
  -2  -9  -9   91.77    6.12
   2   9   9   95.30    6.86
   2   9   9   93.59    6.76
   2   9  10   50.28    4.52
   2   9  10   51.74    4.65
  -2  -9 -10   47.29    3.92
   2   9  10   57.66    4.78
   2   9  11   17.41    2.47
   2   9  11   19.55    2.78
  -2  -9 -11   15.06    1.94
   2   9  12    0.73    0.97
   2   9  13   10.27    2.20
   2   9  14   79.74    6.46
  -2  -9 -15   63.48    5.06
   2   9  15   71.22    5.88
   2   9  16    8.86    1.85
   2   9  17   12.36    2.04
  -2  -9 -17    8.94    1.90
   2   9  18    1.49    0.89
  -2  -9 -18    1.15    0.98
  -2  -9 -19    6.65    1.46
  -2  -9 -20    4.08    1.02
   2  10 -14   28.08    2.19
   2  10 -13    1.46    0.49
   2  10 -13    1.75    0.76
   2  10 -12   31.49    2.76
   2  10 -12   26.98    2.05
   2  10 -11    2.22    1.07
   2  10 -11    0.31    0.67
   2  10 -11    1.83    0.61
   2  10 -10    9.05    1.70
   2  10 -10    9.95    1.83
   2  10 -10    8.45    1.15
   2  10  -9    0.73    1.07
   2  10  -9    1.16    0.89
   2  10  -9    0.71    0.60
   2  10  -8  106.24    7.67
   2  10  -8  108.46    7.02
   2  10  -8   90.01    5.70
   2  10  -7   21.84    2.83
   2  10  -7   27.75    3.58
   2  10  -7   23.31    2.13
   2  10  -6   44.40    4.14
   2  10  -6   47.92    5.00
   2  10  -5  119.92    9.29
   2  10  -5  159.74    9.20
   2  10  -4   13.42    2.46
   2  10  -4   14.15    2.15
   2  10  -4    9.72    2.13
   2  10  -3   46.30    4.96
  -2 -10   3   43.03    3.95
   2  10  -3   51.53    4.98
  -2 -10   2    0.33    0.67
   2  10  -2    0.26    1.09
   2  10  -1    3.47    1.34
   2  10  -1    3.23    1.28
   2  10  -1    3.75    1.48
  -2 -10   1    1.65    0.91
   2  10  -1    4.60    1.44
  -2 -10   0   16.35    2.15
  -2 -10   0   16.63    2.05
   2  10   0   19.48    2.81
   2  10   0   16.08    2.94
   2  10   0   16.23    2.52
   2  10   0   16.43    2.86
  -2 -10  -1    0.74    0.62
   2  10   1    1.17    0.92
   2  10   1    0.96    1.01
   2  10   1    0.23    0.89
  -2 -10  -1    0.16    0.75
   2  10   1    1.74    1.00
  -2 -10  -2  211.18   11.93
   2  10   2  195.80   13.59
  -2 -10  -2  215.78   11.94
   2  10   3   19.91    2.77
  -2 -10  -3   20.81    2.43
   2  10   3   22.05    2.90
   2  10   3   21.47    3.28
   2  10   4    7.88    1.68
  -2 -10  -4    8.31    1.57
   2  10   4    8.21    1.80
   2  10   5   -0.23    0.78
   2  10   5    0.22    0.84
   2  10   6   53.01    4.61
   2  10   6   46.32    4.12
   2  10   6   48.68    4.70
  -2 -10  -6   46.28    3.97
  -2 -10  -7  195.21   11.21
   2  10   7  197.70   11.86
   2  10   7  190.04   11.98
   2  10   8    1.17    0.79
   2  10   8    1.31    0.91
  -2 -10  -8    2.28    0.95
   2  10   9    2.35    1.08
  -2 -10  -9    2.11    0.85
   2  10   9    1.50    1.05
   2  10   9    0.22    0.69
   2  10  10    9.68    1.92
   2  10  10    9.04    1.87
  -2 -10 -10    7.21    1.53
   2  10  11    1.18    1.02
   2  10  11    2.50    0.99
  -2 -10 -11    1.84    0.81
  -2 -10 -12   -0.29    0.55
   2  10  12   -0.24    0.94
   2  10  13   22.15    3.02
   2  10  14   46.41    4.60
   2  10  15   36.73    3.90
   2  10  16    7.02    1.66
  -2 -10 -17   10.24    1.83
   2  10  17   10.43    1.81
  -2 -10 -18    1.93    0.88
   2  10  18    1.70    0.87
  -2 -10 -19    2.15    0.86
  -2 -10 -20   19.29    1.93
  -2 -10 -20   27.68    2.42
  -2 -10 -21   18.91    1.92
   2  11 -12    1.03    0.54
   2  11 -11   16.06    1.66
   2  11 -11   13.46    1.70
   2  11 -10    0.21    0.75
   2  11 -10    1.11    0.89
   2  11  -9    3.47    1.02
   2  11  -9    3.46    1.37
   2  11  -8    0.96    0.88
   2  11  -8    0.49    1.13
   2  11  -7   41.27    3.59
   2  11  -7   43.63    4.64
   2  11  -6  126.77    7.91
   2  11  -6  124.08    9.62
   2  11  -5   42.26    4.62
   2  11  -5   54.55    4.20
   2  11  -4   14.69    1.92
   2  11  -4    9.31    2.14
  -2 -11   4    8.92    1.69
   2  11  -3   -0.15    0.66
   2  11  -3    2.25    0.89
   2  11  -3    0.26    0.92
  -2 -11   3    0.35    0.69
   2  11  -2    9.25    1.59
  -2 -11   2    6.04    1.60
   2  11  -2    8.20    1.91
   2  11  -2    7.22    1.94
   2  11  -1   13.88    2.49
   2  11  -1   10.64    1.70
  -2 -11   1   12.87    2.05
   2  11  -1   12.88    2.39
   2  11   0    6.45    1.66
  -2 -11   0    5.03    1.31
   2  11   0    7.50    1.91
   2  11   0    6.68    1.79
   2  11   1   38.92    4.05
   2  11   1   29.16    3.97
  -2 -11  -1   31.24    3.31
   2  11   1   36.14    4.05
  -2 -11  -2   15.99    2.23
   2  11   2   19.55    2.93
   2  11   2   16.91    2.67
   2  11   2   18.21    2.94
   2  11   3    8.61    2.12
  -2 -11  -3    6.82    1.51
   2  11   4    3.18    1.12
  -2 -11  -4    4.54    1.38
   2  11   4    5.48    1.59
   2  11   5   89.78    6.98
   2  11   5   84.67    6.20
   2  11   5   90.01    7.00
   2  11   6   17.88    2.61
  -2 -11  -6   14.48    2.16
   2  11   6   12.42    2.08
   2  11   6   13.19    2.34
   2  11   7   55.54    4.66
  -2 -11  -7   45.09    4.22
   2  11   7   53.88    4.92
   2  11   7   53.94    5.03
   2  11   8  206.94   12.09
  -2 -11  -8  189.45   11.38
   2  11   8  185.01   12.10
  -2 -11  -9    0.71    0.76
   2  11   9    0.25    0.78
   2  11   9    0.23    0.88
   2  11  10   11.09    2.12
   2  11  10   10.98    2.15
  -2 -11 -10   11.35    1.82
   2  11  10   12.37    2.14
   2  11  11    0.47    0.98
   2  11  11    1.68    0.96
  -2 -11 -11    0.32    0.62
   2  11  12    6.13    1.48
  -2 -11 -12    5.54    1.25
   2  11  13   77.46    6.22
   2  11  14   78.36    6.16
  -2 -11 -15    2.08    0.85
   2  11  15    3.53    1.35
   2  11  16    1.29    0.99
   2  11  17   11.82    1.78
  -2 -11 -17   12.29    1.84
   2  11  18    1.61    0.63
  -2 -11 -18    1.00    0.64
  -2 -11 -19    4.39    0.95
  -2 -11 -20    3.30    0.74
   2  12 -10    0.73    0.43
   2  12 -10    0.85    0.43
   2  12  -9   25.88    1.97
   2  12  -9   19.70    2.29
   2  12  -8   71.31    4.33
   2  12  -8   61.66    5.15
   2  12  -7   11.42    1.51
   2  12  -7   13.82    2.36
   2  12  -6   10.59    2.22
   2  12  -6   11.76    1.53
   2  12  -5    0.55    0.63
   2  12  -4    7.05    1.28
   2  12  -4    5.35    1.50
  -2 -12   3    0.82    0.69
   2  12  -3    1.82    0.84
   2  12  -3    1.99    1.05
   2  12  -3    0.90    1.16
   2  12  -2   23.22    3.11
  -2 -12   2   27.22    2.88
   2  12  -1   15.54    2.49
  -2 -12   1   13.14    2.07
   2  12   0   41.57    4.16
   2  12   0   29.98    3.07
  -2 -12   0   39.43    3.59
   2  12   1    5.54    1.65
   2  12   1    4.30    1.14
  -2 -12  -2    6.50    1.52
   2  12   2    6.20    1.76
   2  12   2    6.04    1.36
   2  12   3   11.77    2.23
  -2 -12  -3    7.44    1.67
   2  12   3    8.76    1.58
   2  12   4   26.55    3.38
   2  12   4   21.80    2.68
  -2 -12  -4   19.94    2.73
   2  12   4   24.90    3.39
   2  12   5    0.24    1.07
   2  12   5    0.75    0.84
   2  12   5    1.03    1.00
   2  12   5   -0.26    0.92
   2  12   6  129.56    8.68
   2  12   6  123.86    8.01
  -2 -12  -6  108.28    7.83
   2  12   6  118.90    8.65
   2  12   7   50.36    4.62
   2  12   7   42.43    4.13
   2  12   7   40.46    4.54
   2  12   8   13.07    2.30
   2  12   9   14.64    2.33
  -2 -12  -9   12.73    1.97
  -2 -12 -10    3.70    1.17
   2  12  10    4.56    1.52
   2  12  10    4.85    1.42
   2  12  11   59.61    4.76
   2  12  11   56.07    4.95
  -2 -12 -11   46.75    4.17
   2  12  12    1.49    1.16
   2  12  12    1.02    0.79
  -2 -12 -12    0.57    0.62
   2  12  13    8.60    1.84
   2  12  14    3.26    1.20
   2  12  15    2.41    1.00
  -2 -12 -15    1.81    0.80
   2  12  16   39.00    3.49
   2  12  17    2.65    0.86
  -2 -12 -17    1.70    0.77
  -2 -12 -18   23.64    2.12
   2  12  19    0.54    0.47
   2  13  -8    0.42    0.43
   2  13  -7    1.10    0.40
   2  13  -7    0.44    0.58
   2  13  -6    0.62    0.40
   2  13  -6    0.87    0.74
   2  13  -3    5.41    1.26
   2  13  -3    6.13    1.67
   2  13  -2   36.57    3.96
  -2 -13   2   30.40    3.10
   2  13  -2   32.17    3.39
   2  13  -1   35.58    3.64
   2  13  -1   40.78    4.24
  -2 -13   1   32.58    3.31
  -2 -13   0    0.98    0.80
   2  13   0    0.41    0.89
  -2 -13  -1    0.17    0.65
   2  13   1    2.99    1.24
  -2 -13  -2    5.16    1.34
   2  13   2    3.46    1.07
   2  13   2    3.06    1.37
   2  13   3    9.60    1.61
  -2 -13  -3    9.57    1.74
   2  13   4   16.24    2.20
  -2 -13  -4   14.18    2.24
  -2 -13  -5   17.88    2.43
   2  13   5   23.17    2.95
   2  13   5   16.00    2.28
   2  13   5   16.68    2.47
   2  13   6    1.43    0.87
   2  13   6    0.22    0.84
   2  13   6    0.42    0.80
   2  13   7    5.12    1.43
  -2 -13  -7    2.07    0.93
   2  13   7    2.57    1.09
   2  13   7    2.98    1.26
   2  13   8   18.96    2.72
   2  13   8   18.52    2.69
   2  13   8   22.48    2.69
  -2 -13  -8   20.03    2.49
   2  13   9    8.61    1.75
  -2 -13  -9    7.13    1.46
   2  13   9    5.66    1.60
   2  13  10   60.86    5.37
   2  13  10   69.83    5.18
  -2 -13 -10   56.60    4.67
   2  13  11    4.42    1.31
  -2 -13 -11    3.18    0.99
   2  13  11    4.49    1.16
   2  13  11    4.28    1.35
   2  13  12   13.51    1.94
  -2 -13 -12   13.24    1.74
   2  13  12   19.74    2.45
   2  13  12   13.93    2.29
   2  13  13    5.44    1.35
   2  13  14    3.12    1.01
  -2 -13 -14    2.24    0.76
   2  13  15   10.34    1.57
   2  13  15    7.82    1.47
  -2 -13 -15    7.35    1.09
   2  13  16    0.67    0.55
  -2 -13 -16    0.55    0.59
   2  13  16    1.24    0.63
   2  13  17   21.26    2.26
   2  14  -5    1.55    0.61
   2  14  -3   33.63    3.14
   2  14  -2    3.15    1.09
   2  14  -1   11.27    1.66
   2  14  -1    9.19    1.74
  -2 -14   0    0.51    0.57
   2  14   0    0.61    0.70
   2  14   0   -0.33    0.80
  -2 -14  -1    1.23    0.76
   2  14   1    0.49    0.75
   2  14   1   -0.34    0.82
   2  14   2    7.37    1.58
  -2 -14  -2    5.15    1.28
   2  14   2    8.95    1.64
   2  14   3    6.10    1.18
  -2 -14  -3    5.89    1.35
   2  14   4   17.23    2.51
   2  14   4   18.10    2.06
  -2 -14  -4   17.05    2.19
  -2 -14  -5   12.45    1.79
   2  14   5    8.25    1.76
   2  14   5    7.57    1.46
   2  14   6    0.85    0.69
   2  14   6    1.41    0.84
   2  14   7   42.36    3.79
   2  14   7   42.19    3.57
  -2 -14  -7   37.84    3.53
   2  14   8    1.18    0.75
  -2 -14  -8    0.56    0.66
   2  14   8    1.30    0.91
   2  14   9   31.21    2.96
   2  14   9   26.14    2.72
  -2 -14  -9   20.90    2.49
  -2 -14 -10    3.10    0.97
   2  14  10    3.31    1.07
   2  14  10    4.28    1.02
   2  14  11   36.25    3.16
   2  14  11   26.41    2.72
   2  14  11   31.80    2.73
   2  14  12   10.32    1.53
   2  14  12    4.44    1.18
  -2 -14 -13    3.00    0.77
   2  14  13    1.61    0.68
   2  14  13    3.63    0.97
   2  14  14   15.87    1.70
   2  14  14    7.92    1.30
   2  15  -1    2.38    0.68
   2  15   0    0.43    0.40
   2  15   0   -0.37    0.43
   2  15   1   12.39    1.53
   2  15   1   16.58    1.80
   2  15   2   -0.10    0.51
   2  15   2    0.43    0.55
   2  15   3    8.41    1.30
   2  15   4    0.57    0.50
   2  15   5    0.35    0.50
   2  15   5    0.85    0.57
   2  15   6   22.01    1.88
   2  15   6   29.70    2.48
   2  15   7    0.79    0.58
   2  15   7    0.18    0.47
   2  15   8   32.91    2.68
   2  15   8   32.08    2.81
   2  15   9    2.53    0.75
   2  15   9    1.56    0.70
   2  15  10    1.37    0.60
  -3  13   4    3.43    0.72
  -3  13   3    0.44    0.33
   3 -12 -10    2.23    0.65
  -3  12   9   12.20    1.30
   3 -12  -9   11.95    1.47
  -3  12   8   22.54    2.06
  -3  12   8   28.58    2.28
   3 -12  -8   28.41    2.43
   3 -12  -7    4.47    0.96
  -3  12   7    4.85    0.95
  -3  12   7    3.73    0.86
   3 -12  -6    4.77    0.99
  -3  12   6    5.80    1.08
  -3  12   6    7.71    1.19
  -3  12   5    9.89    1.31
  -3  12   5    8.57    1.34
   3 -12  -5    7.53    1.19
  -3  12   4    6.83    1.20
  -3  12   3   15.69    1.90
   3 -12  -3   12.81    1.98
   3 -12  -2    8.80    1.56
  -3  12   2    9.55    1.51
  -3  12   0    1.70    0.76
  -3  12  -1    7.60    1.20
   3 -12   1    5.91    0.76
  -3  12  -2   27.70    2.30
   3 -12   2   22.06    1.60
  -3  12  -3   -0.08    0.54
  -3  12  -3    4.03    0.84
   3 -11 -12    0.08    0.46
  -3  11  11   13.48    1.38
   3 -11 -11   10.66    1.53
  -3  11  10   11.01    1.39
   3 -11 -10    9.95    1.60
  -3  11   9   28.51    2.59
  -3  11   9   33.43    2.79
   3 -11  -9   35.22    3.11
  -3  11   8   15.33    1.84
  -3  11   8   15.15    1.83
   3 -11  -8   16.21    2.02
  -3  11   7    6.96    1.26
   3 -11  -7    4.96    1.29
  -3  11   6    3.08    0.99
   3 -11  -6    1.97    0.92
   3 -11  -5    3.97    1.19
  -3  11   5    3.23    1.06
  -3  11   4   34.78    3.29
  -3  11   3   20.62    2.46
   3 -11  -3   18.82    1.77
  -3  11   2   90.50    6.25
   3 -11  -2   92.40    6.64
   3 -11  -2   89.89    5.31
   3 -11  -1    1.36    0.82
   3 -11  -1    0.79    0.73
   3 -11   0    7.52    1.37
   3 -11   0    8.35    1.69
  -3  11   0    4.08    1.25
  -3  11  -1   30.73    3.02
   3 -11   1   34.80    3.44
   3 -11   1   28.23    2.72
  -3  11  -2    1.59    0.82
   3 -11   2    1.95    0.76
   3 -11   2    2.30    0.95
  -3  11  -3   25.79    2.63
   3 -11   3   27.61    2.44
   3 -11   4    0.19    0.48
  -3  11  -4    0.83    0.59
   3 -11   5   61.10    3.99
   3 -11   6    0.96    0.54
   3 -11   7    1.74    0.53
  -3  11  -8    2.56    0.75
   3 -10 -15   14.35    1.60
   3 -10 -15   10.95    1.42
   3 -10 -14    5.45    1.11
   3 -10 -14    5.40    1.13
   3 -10 -13    0.84    0.66
   3 -10 -13   -0.25    0.67
   3 -10 -12    9.38    1.57
  -3  10  11   26.96    2.50
  -3  10  10  131.81    7.86
  -3  10   9    0.14    0.81
   3 -10  -9    1.49    1.17
  -3  10   9    0.82    0.70
   3 -10  -9    1.17    0.83
  -3  10   8   20.63    2.45
   3 -10  -8   22.59    2.80
   3 -10  -7   17.58    2.54
  -3  10   7   21.40    2.45
   3 -10  -6    1.32    1.04
  -3  10   6    0.87    0.75
  -3  10   5   31.72    3.28
   3 -10  -5   29.63    2.55
   3 -10  -4    0.10    0.59
   3 -10  -4    1.18    0.86
  -3  10   4    0.73    0.79
  -3  10   3   50.04    4.42
   3 -10  -2   -0.96    1.00
  -3  10   2    0.37    0.80
   3 -10  -1   22.25    2.51
   3 -10  -1   21.43    3.00
   3 -10   0   92.81    7.00
   3 -10   0   87.77    5.97
   3 -10   1    4.47    1.14
   3 -10   1    2.84    1.33
  -3  10  -1    4.87    1.33
   3 -10   2   37.95    3.26
  -3  10  -2   33.17    3.46
   3 -10   2   36.63    3.89
   3 -10   3    0.66    0.63
   3 -10   3    0.22    0.87
  -3  10  -3    0.51    0.70
  -3  10  -4   34.76    3.26
   3 -10   4   27.13    3.39
   3 -10   4   35.93    2.99
   3 -10   5   14.37    1.72
  -3  10  -5   10.93    1.70
   3 -10   6    5.96    1.04
   3 -10   7   37.77    2.90
   3 -10   8    2.33    0.67
   3 -10   9   59.28    3.63
   3 -10  10    1.30    0.43
  -3  10 -10    2.76    0.80
   3  -9 -16   15.36    1.76
   3  -9 -16   13.24    1.69
   3  -9 -15   17.38    2.14
   3  -9 -15   19.74    2.22
   3  -9 -14    0.62    0.79
   3  -9 -14   -0.16    0.74
   3  -9 -13   78.62    5.62
   3  -9 -13   66.94    5.31
   3  -9 -12    5.31    1.39
  -3   9  11   14.29    1.87
  -3   9  10   13.84    1.92
  -3   9   9   33.62    3.29
   3  -9  -9   40.26    3.79
  -3   9   8  102.29    6.78
   3  -9  -8   96.25    7.17
   3  -9  -7    5.50    1.57
  -3   9   7    3.73    1.22
   3  -9  -6   62.43    4.31
  -3   9   6   60.28    5.06
   3  -9  -6   66.32    5.58
   3  -9  -5    4.54    1.30
  -3   9   5    7.67    1.47
   3  -9  -5    3.21    1.40
   3  -9  -5    5.26    1.07
   3  -9  -5    5.03    1.58
  -3   9   5    7.25    1.56
   3  -9  -4   23.54    3.35
  -3   9   4   29.52    3.19
   3  -9  -4   29.33    3.02
   3  -9  -4   30.40    3.59
  -3   9   4   23.55    2.94
  -3   9   3   17.96    2.52
   3  -9  -3   17.55    2.87
  -3   9   3   25.88    2.83
   3  -9  -3   23.07    2.56
  -3   9   2    5.11    1.37
   3  -9  -2    8.50    1.93
  -3   9   2    8.14    1.62
  -3   9   1  217.11   12.41
   3  -9  -1  228.22   13.35
   3  -9  -1  189.72   13.20
   3  -9   0    3.04    1.16
   3  -9   0    4.81    1.59
   3  -9   0    6.28    1.71
  -3   9   0    3.59    1.23
   3  -9   1  125.49   10.25
  -3   9  -1  132.47    9.40
   3  -9   1  188.75   10.91
  -3   9  -1  174.48    9.86
   3  -9   1  163.07    9.36
   3  -9   2    5.45    1.31
   3  -9   2    4.25    1.50
   3  -9   2    4.61    1.69
  -3   9  -2    6.33    1.44
   3  -9   3   31.02    3.16
   3  -9   3   38.49    4.11
  -3   9  -3   34.77    3.43
  -3   9  -4   74.73    5.58
   3  -9   4   80.40    6.48
  -3   9  -4   68.66    4.72
   3  -9   4   76.60    5.34
   3  -9   5    0.15    0.68
   3  -9   5   -0.53    0.89
  -3   9  -5   -0.63    0.58
  -3   9  -5    1.54    0.85
   3  -9   6   87.53    6.93
  -3   9  -6   82.20    5.83
  -3   9  -6   82.84    5.26
   3  -9   6   83.86    5.67
  -3   9  -7    1.02    0.59
   3  -9   7    0.40    0.62
   3  -9   8   31.58    2.76
  -3   9  -8   32.80    2.67
  -3   9  -9   23.50    2.10
   3  -9   9   21.43    2.11
  -3   9 -10   19.96    1.87
   3  -9  10   19.63    1.87
  -3   9 -11   58.95    3.58
   3  -9  11   52.31    3.40
  -3   9 -12   -0.28    0.36
  -3   9 -13   46.68    3.25
   3  -8 -18    1.03    0.58
   3  -8 -17   12.98    1.70
   3  -8 -17   10.26    1.49
   3  -8 -16    6.81    1.41
   3  -8 -16    5.04    1.16
   3  -8 -15   -0.17    0.88
   3  -8 -15    0.87    0.85
   3  -8 -14   64.56    5.07
   3  -8 -14   56.48    4.87
   3  -8 -13    7.71    1.79
   3  -8 -13    6.69    1.63
   3  -8 -12   93.66    6.97
   3  -8 -11    3.95    1.57
  -3   8  11    5.50    1.22
   3  -8 -10   15.83    2.23
  -3   8   9   39.39    3.57
   3  -8  -9   39.90    3.94
  -3   8   8    0.51    0.57
   3  -8  -8   -0.22    0.89
   3  -8  -8    0.48    0.57
  -3   8   8    0.84    0.70
   3  -8  -8    1.18    0.70
  -3   8   7  109.86    7.79
  -3   8   7  126.18    7.98
   3  -8  -7  134.26    8.76
   3  -8  -7  127.63    7.42
   3  -8  -7  131.14    8.93
  -3   8   6   74.04    5.35
   3  -8  -6   72.11    5.89
   3  -8  -6   59.07    5.74
   3  -8  -6   69.82    4.71
  -3   8   6   66.36    5.21
   3  -8  -6   76.81    5.38
  -3   8   5    6.84    1.39
   3  -8  -5    3.76    1.16
   3  -8  -5    3.91    1.47
  -3   8   5    4.62    1.29
   3  -8  -5    5.62    1.58
   3  -8  -4   36.19    3.92
  -3   8   4   29.58    3.23
  -3   8   4   31.45    3.24
   3  -8  -4   33.29    3.94
   3  -8  -4   35.03    3.23
   3  -8  -3    7.98    1.52
  -3   8   3    6.50    1.42
   3  -8  -3    8.30    2.01
  -3   8   3    8.20    1.60
  -3   8   2   49.58    4.27
  -3   8   2   51.08    4.24
   3  -8  -2   58.05    5.08
   3  -8  -2   45.72    4.02
  -3   8   1   -0.18    0.69
   3  -8  -1    0.28    0.81
   3  -8  -1   -0.26    1.11
   3  -8   0  316.69   19.41
   3  -8   0  369.83   19.62
  -3   8  -1   20.38    2.55
   3  -8   1   21.93    3.32
  -3   8  -1   22.89    2.61
   3  -8   1   22.61    3.17
   3  -8   1   20.66    2.52
  -3   8  -2    3.57    1.12
   3  -8   2    4.34    1.31
   3  -8   2    3.60    1.39
   3  -8   2    1.79    1.38
  -3   8  -2    3.00    0.97
  -3   8  -3   14.11    2.18
   3  -8   3   18.54    2.40
   3  -8   3   14.20    2.82
  -3   8  -3   17.20    1.93
  -3   8  -3   13.93    2.22
   3  -8   4   -0.18    0.74
  -3   8  -4   -0.70    0.62
   3  -8   4    1.49    1.10
   3  -8   4   -0.32    0.88
  -3   8  -4    0.38    0.61
  -3   8  -4    0.35    0.65
  -3   8  -5    4.20    1.19
   3  -8   5    6.67    2.01
   3  -8   5    4.80    1.29
  -3   8  -5    4.82    1.13
   3  -8   5    4.64    1.96
  -3   8  -5    5.59    1.33
   3  -8   6    0.17    0.67
  -3   8  -6    0.40    0.63
  -3   8  -6    1.04    0.54
  -3   8  -6    0.17    0.66
   3  -8   6   -0.30    1.16
  -3   8  -7   79.86    4.94
   3  -8   7   69.82    5.01
  -3   8  -8   17.33    2.01
   3  -8   8   14.19    1.99
   3  -8   9    5.72    1.23
  -3   8  -9    7.16    1.30
  -3   8 -10   56.78    3.84
   3  -8  10   58.62    4.34
  -3   8 -11    0.22    0.53
  -3   8 -11    1.33    0.74
   3  -8  11    0.11    0.49
  -3   8 -12   89.30    5.31
   3  -8  12   91.61    5.57
  -3   8 -13    0.28    0.83
  -3   8 -13    0.33    0.48
  -3   8 -13    0.05    0.36
  -3   8 -14   11.46    1.03
  -3   8 -14   16.07    1.80
  -3   8 -14   14.14    1.41
   3  -7 -19   -0.16    0.35
   3  -7 -18    8.01    1.21
   3  -7 -18    5.39    1.24
   3  -7 -17    2.64    0.94
   3  -7 -17    2.13    0.93
   3  -7 -16    1.24    0.88
   3  -7 -16    0.93    0.85
   3  -7 -15   85.93    6.46
   3  -7 -15   86.80    6.39
   3  -7 -14    5.20    1.52
   3  -7 -14    3.42    1.43
   3  -7 -13   66.34    5.77
   3  -7 -13   73.16    5.90
   3  -7 -12   88.17    6.92
   3  -7 -11    4.95    1.62
   3  -7 -10   42.36    3.84
   3  -7  -9    0.21    0.68
   3  -7  -9   -0.41    0.85
   3  -7  -9    0.51    0.61
  -3   7   9   -0.15    0.70
   3  -7  -8  670.99   32.54
   3  -7  -8  638.38   31.23
   3  -7  -8  611.11   32.49
  -3   7   8  663.09   31.74
  -3   7   8  579.84   31.52
   3  -7  -7   23.64    2.92
  -3   7   7   23.37    2.59
  -3   7   7   22.36    2.58
   3  -7  -7   18.85    2.82
   3  -7  -7   21.70    2.23
   3  -7  -7   25.00    2.65
  -3   7   6   21.20    2.42
   3  -7  -6   18.05    2.70
  -3   7   6   17.32    2.23
   3  -7  -6   18.61    2.60
   3  -7  -6   19.23    1.99
   3  -7  -6   20.15    2.30
   3  -7  -5   75.42    5.14
  -3   7   5   72.91    5.26
  -3   7   5   68.87    5.15
   3  -7  -5   74.87    5.88
   3  -7  -5   69.88    6.01
   3  -7  -4   12.28    2.17
   3  -7  -4   10.31    2.05
   3  -7  -4   12.15    1.70
  -3   7   4   12.77    1.81
  -3   7   3  105.11    7.09
   3  -7  -3  120.00    8.23
   3  -7  -3  115.05    7.04
   3  -7  -2   -0.15    0.60
  -3   7   2    0.32    0.58
   3  -7  -1   97.23    7.63
   3  -7  -1  110.93    7.61
   3  -7  -1   97.29    6.57
   3  -7   0    6.71    1.83
   3  -7   0    4.24    1.47
   3  -7   1  114.71    8.10
  -3   7  -1  103.41    6.98
   3  -7   1  114.99    8.35
   3  -7   2  143.67   10.00
  -3   7  -2  129.83    8.33
   3  -7   2  131.45    8.34
  -3   7  -3    8.28    1.52
   3  -7   3    9.52    1.61
  -3   7  -3    9.69    1.62
   3  -7   3   10.10    2.38
   3  -7   3   15.21    2.60
   3  -7   4  208.20   12.26
   3  -7   4  235.46   14.55
   3  -7   4  246.25   14.25
  -3   7  -4  205.05   12.27
  -3   7  -4  230.92   12.51
   3  -7   5   13.26    1.87
  -3   7  -5   10.93    1.77
  -3   7  -5   12.82    1.89
   3  -7   5   12.95    2.49
   3  -7   5   10.95    2.43
   3  -7   6  379.37   19.67
  -3   7  -6  329.76   19.51
  -3   7  -6  396.55   19.63
  -3   7  -6  378.13   19.71
   3  -7   6  371.75   21.34
   3  -7   6  411.05   21.28
   3  -7   7    8.93    1.49
  -3   7  -7    5.70    1.39
   3  -7   7    7.37    1.78
  -3   7  -7    8.09    1.52
  -3   7  -7    5.21    1.32
  -3   7  -8   30.59    3.23
  -3   7  -8   39.74    3.47
   3  -7   8   40.67    3.41
   3  -7   9   22.25    2.50
  -3   7  -9   26.00    2.70
  -3   7 -10    1.04    0.64
   3  -7  10    0.14    0.61
  -3   7 -10    0.16    0.85
  -3   7 -11  284.02   14.60
   3  -7  11  258.75   14.67
  -3   7 -11  299.58   15.20
   3  -7  12   10.30    1.44
  -3   7 -12   11.54    1.48
  -3   7 -12   10.46    1.65
  -3   7 -13   50.80    3.56
  -3   7 -13   58.22    4.05
  -3   7 -13   57.88    4.60
   3  -7  13   47.15    3.54
  -3   7 -14   43.84    3.00
  -3   7 -14   48.44    3.65
  -3   7 -14   45.09    3.36
   3  -7  14   36.86    2.83
  -3   7 -15    5.16    0.84
  -3   7 -15    5.72    1.20
  -3   7 -15    6.53    1.09
  -3   7 -16   19.13    1.71
  -3   7 -16   24.73    1.96
  -3   7 -16   21.32    1.64
  -3   7 -17    0.17    0.30
   3  -6 -19    3.35    0.84
   3  -6 -18   22.45    2.39
   3  -6 -17    0.56    0.81
   3  -6 -17    1.19    0.85
   3  -6 -16  189.89   11.94
   3  -6 -16  203.71   11.87
   3  -6 -15    8.60    1.99
   3  -6 -15   10.89    2.10
   3  -6 -15    5.61    1.25
   3  -6 -14   33.76    3.07
   3  -6 -14   35.22    4.06
   3  -6 -13   22.99    2.42
   3  -6 -13   21.70    3.20
   3  -6 -12    6.86    1.86
   3  -6 -12    6.46    1.23
   3  -6 -11  109.87    6.88
   3  -6 -11  119.91    8.43
   3  -6 -11  107.52    6.67
   3  -6 -10    1.76    0.70
   3  -6 -10    3.42    1.03
   3  -6 -10    1.99    1.30
   3  -6  -9   89.37    6.60
   3  -6  -9   80.25    6.47
   3  -6  -9   99.50    6.06
   3  -6  -9  100.77    5.80
   3  -6  -8   29.41    3.25
  -3   6   8   32.68    2.94
   3  -6  -8   28.67    2.64
   3  -6  -8   30.31    3.34
  -3   6   8   27.65    2.75
   3  -6  -7  336.94   17.73
  -3   6   7  337.17   18.00
   3  -6  -7  349.53   19.06
   3  -6  -7  358.33   19.00
   3  -6  -7  358.32   18.17
   3  -6  -6   66.29    4.24
   3  -6  -6   68.39    5.23
  -3   6   6   54.30    4.36
   3  -6  -6   54.37    5.07
   3  -6  -6   61.35    4.41
   3  -6  -5    5.46    1.11
   3  -6  -5    5.49    1.53
   3  -6  -5    5.13    1.45
  -3   6   5    4.63    1.09
   3  -6  -4  287.14   15.79
  -3   6   4  264.64   14.62
   3  -6  -4  308.56   15.78
   3  -6  -4  258.04   14.37
   3  -6  -3    1.27    0.63
   3  -6  -3    0.64    0.86
  -3   6   3    0.57    0.69
   3  -6  -3    1.36    0.98
  -3   6   2  245.41   13.23
   3  -6  -2  240.13   13.13
   3  -6  -1    9.56    1.92
   3  -6  -1    9.66    2.04
   3  -6  -1    8.68    1.43
   3  -6   0   87.38    6.89
   3  -6   0  104.60    7.08
   3  -6   0   84.18    5.76
   3  -6   1  278.57   16.43
   3  -6   1  284.99   16.27
   3  -6   2    0.27    0.57
   3  -6   2    0.27    1.04
  -3   6  -2    1.43    0.81
   3  -6   2    0.25    1.13
   3  -6   3  448.22   23.37
   3  -6   3  464.17   25.24
  -3   6  -3  441.26   23.40
   3  -6   3  521.72   25.16
   3  -6   4    9.52    2.03
   3  -6   4   13.68    2.38
  -3   6  -4   10.22    1.59
   3  -6   5  466.31   23.09
  -3   6  -5  398.85   21.52
   3  -6   5  421.27   23.05
  -3   6  -6  187.64   11.33
   3  -6   6  228.97   12.60
   3  -6   6  209.76   12.60
  -3   6  -6  200.60   11.35
  -3   6  -7   11.00    1.69
   3  -6   7   13.48    2.11
  -3   6  -7   10.59    1.61
   3  -6   7   12.09    2.13
  -3   6  -8   95.62    6.87
  -3   6  -8  131.39    7.53
  -3   6  -9   -0.18    0.94
  -3   6 -10    9.22    1.76
  -3   6 -11   74.09    5.54
  -3   6 -12  168.96    9.61
  -3   6 -12  164.75   10.09
  -3   6 -13  239.68   13.61
  -3   6 -13  231.31   12.47
  -3   6 -13  237.62   13.06
   3  -6  13  217.61   12.28
  -3   6 -14    1.41    0.78
   3  -6  14   -0.10    0.52
  -3   6 -14    0.15    0.99
  -3   6 -14    1.34    0.98
  -3   6 -14   -0.16    0.98
  -3   6 -15  236.85   12.60
  -3   6 -15  254.37   12.24
  -3   6 -15  225.18   12.71
  -3   6 -15  238.03   12.38
   3  -6  15  205.08   11.73
  -3   6 -16    0.70    0.57
  -3   6 -16   -0.35    0.71
  -3   6 -16    0.78    0.70
  -3   6 -16    1.87    0.75
  -3   6 -17   32.68    2.41
  -3   6 -18   12.07    1.18
   3  -5 -19   24.68    2.32
   3  -5 -18    1.21    0.76
   3  -5 -17   73.16    5.66
   3  -5 -16    3.83    1.05
   3  -5 -16    2.09    1.13
   3  -5 -16    2.51    1.29
   3  -5 -16    1.78    0.87
   3  -5 -15   60.72    4.42
   3  -5 -15   60.14    5.41
   3  -5 -15   64.07    5.74
   3  -5 -15   52.88    4.66
   3  -5 -14    2.48    0.93
   3  -5 -14    3.46    1.55
   3  -5 -14    2.79    1.32
   3  -5 -14    1.35    0.89
   3  -5 -13    2.72    1.02
   3  -5 -13    2.58    1.50
   3  -5 -13    3.53    1.05
   3  -5 -13    3.21    1.35
   3  -5 -13    3.75    1.17
   3  -5 -12    5.38    1.22
   3  -5 -12    5.13    1.67
   3  -5 -12    5.69    1.67
   3  -5 -12    7.18    1.27
   3  -5 -12    3.71    1.18
   3  -5 -11    2.20    0.87
   3  -5 -11    1.10    1.23
   3  -5 -11    1.73    0.84
   3  -5 -11    2.45    0.94
   3  -5 -10   59.51    5.39
   3  -5 -10   50.63    3.77
   3  -5  -9    7.70    1.63
   3  -5  -9    9.96    1.73
   3  -5  -9   11.76    1.45
   3  -5  -9   11.11    1.55
   3  -5  -8   89.47    5.55
   3  -5  -8   89.75    5.26
  -3   5   8   76.63    5.35
   3  -5  -8   83.49    6.28
   3  -5  -8   92.99    6.41
   3  -5  -7  179.72   10.04
   3  -5  -7  150.91    8.47
   3  -5  -7  167.18   10.05
  -3   5   7  152.36    8.88
   3  -5  -7  156.23    8.82
   3  -5  -7  155.13    8.96
   3  -5  -6   22.15    2.69
  -3   5   6   19.70    2.13
   3  -5  -6   21.35    2.62
   3  -5  -6   22.06    2.00
   3  -5  -6   16.55    1.90
   3  -5  -5  126.22    8.01
   3  -5  -5  121.93    8.06
  -3   5   5  111.38    7.05
   3  -5  -4    5.12    1.27
   3  -5  -4    6.22    1.52
  -3   5   4    5.56    1.09
   3  -5  -3   60.82    4.89
   3  -5  -3   60.57    5.06
  -3   5   3   57.56    4.22
  -3   5   2    4.62    1.02
   3  -5  -1   34.14    3.47
  -3   5   1   30.74    2.82
   3  -5  -1   37.42    3.76
   3  -5   0  341.12   18.84
   3  -5   0  353.27   19.18
   3  -5   1    3.42    1.20
   3  -5   1    5.15    1.49
   3  -5   2  313.85   17.10
   3  -5   2  323.88   17.39
  -3   5  -2  299.85   16.21
  -3   5  -3  135.08    7.82
   3  -5   3  127.25    8.63
   3  -5   3  128.93    8.44
   3  -5   4    5.18    1.34
  -3   5  -4    4.92    1.06
   3  -5   4    4.79    0.98
   3  -5   4    4.94    1.43
  -3   5  -5  103.54    6.25
   3  -5   5   96.68    6.72
   3  -5   5  101.75    7.01
   3  -5   5   92.32    5.99
   3  -5   6    4.08    1.21
   3  -5   6    5.39    1.43
  -3   5  -6    5.70    1.14
   3  -5   6    4.39    1.00
   3  -5   7  518.88   26.71
   3  -5   7  553.03   27.08
  -3   5  -7  537.27   26.09
   3  -5   7  484.28   26.02
  -3   5  -8    1.44    0.67
   3  -5   8    1.10    0.55
  -3   5  -9    3.07    1.24
   3  -5   9    2.96    0.90
  -3   5 -10   31.15    3.39
   3  -5  10   28.83    2.83
  -3   5 -11   14.63    1.75
   3  -5  11   16.14    1.99
  -3   5 -11   17.33    2.49
  -3   5 -12   58.86    4.24
   3  -5  12   57.06    4.33
  -3   5 -12   69.80    5.19
  -3   5 -13   -0.47    1.16
  -3   5 -13   -0.37    0.96
   3  -5  13    0.25    0.55
  -3   5 -13    0.49    0.51
  -3   5 -14  207.04   10.63
  -3   5 -14  194.07   11.16
  -3   5 -15    1.00    0.76
  -3   5 -15   -0.54    0.80
  -3   5 -15    0.55    0.84
  -3   5 -16   22.22    2.32
  -3   5 -16   22.31    2.12
  -3   5 -16   18.69    2.30
  -3   5 -17    4.18    1.05
  -3   5 -17    5.20    1.14
  -3   5 -17    5.37    1.05
  -3   5 -18   11.89    1.44
  -3   5 -18   10.05    1.26
  -3   5 -19   49.95    3.01
  -3   5 -19   38.74    2.68
   3  -4 -20    7.97    1.29
   3  -4 -19    0.59    0.65
   3  -4 -19    0.70    0.57
   3  -4 -18   56.13    4.53
   3  -4 -18   54.22    4.18
   3  -4 -17    4.86    1.45
   3  -4 -17    3.05    1.11
   3  -4 -16   49.51    3.98
   3  -4 -16   48.65    4.79
   3  -4 -16   50.41    4.40
   3  -4 -15    7.28    1.73
   3  -4 -15    7.97    2.07
   3  -4 -15   10.12    2.40
   3  -4 -15    9.16    1.61
   3  -4 -14   46.26    3.83
   3  -4 -14   53.95    5.53
   3  -4 -14   51.98    5.26
   3  -4 -14   44.88    3.82
   3  -4 -14   45.34    4.40
   3  -4 -13  293.86   14.89
   3  -4 -13  252.53   16.82
   3  -4 -13  279.16   16.94
   3  -4 -13  273.93   14.96
   3  -4 -13  263.14   15.78
   3  -4 -12    6.69    2.16
   3  -4 -12    6.72    1.42
   3  -4 -12    7.35    1.38
   3  -4 -12    6.79    2.07
   3  -4 -12    7.56    1.71
   3  -4 -11  184.21   10.00
   3  -4 -11  182.87   10.34
   3  -4 -11  177.64   12.01
   3  -4 -11  162.63   10.89
   3  -4 -10    0.58    1.02
   3  -4 -10    0.56    0.59
   3  -4 -10    0.43    0.73
   3  -4  -9   26.51    2.34
   3  -4  -9   23.41    2.79
   3  -4  -9   27.92    3.62
   3  -4  -9   32.77    2.74
   3  -4  -8  116.72    7.80
   3  -4  -8  123.64    7.83
  -3   4   8  114.03    6.71
   3  -4  -8  116.31    6.93
   3  -4  -8  113.25    6.59
  -3   4   7    3.56    0.87
   3  -4  -7    5.85    1.43
   3  -4  -7    3.12    1.06
   3  -4  -6  904.59   43.11
  -3   4   6  825.61   41.89
   3  -4  -6  890.58   43.30
   3  -4  -5   21.35    2.74
  -3   4   5   20.28    2.05
   3  -4  -5   23.14    2.67
  -3   4   4  128.77    7.49
   3  -4  -4  140.27    8.63
   3  -4  -4  130.24    8.32
   3  -4  -3   50.43    4.49
  -3   4   3   53.36    3.76
   3  -4  -3   61.43    4.54
  -3   4   2   87.09    5.37
  -3   4   1  165.13    9.07
   3  -4   0    0.17    0.62
   3  -4   0    0.16    0.59
   3  -4   1   59.23    4.52
   3  -4   1   50.67    4.13
   3  -4   2   68.10    4.86
   3  -4   2   68.56    4.99
  -3   4  -2   63.23    4.30
   3  -4   3  323.74   17.66
   3  -4   3  348.93   17.99
  -3   4  -3  337.02   17.17
   3  -4   4  290.02   15.61
   3  -4   4  280.80   15.34
  -3   4  -4  289.70   14.93
  -3   4  -5    4.19    0.93
   3  -4   5    5.97    1.26
   3  -4   5    5.89    1.19
   3  -4   6  358.78   19.09
   3  -4   6  336.78   18.69
   3  -4   6  391.73   19.48
  -3   4  -6  387.07   18.77
  -3   4  -7    0.11    0.47
   3  -4   7    0.30    0.56
   3  -4   7   -0.16    0.65
   3  -4   7    0.27    0.51
  -3   4  -8  278.87   14.05
   3  -4   8  260.82   14.29
   3  -4   8  258.54   14.49
  -3   4  -9   34.45    2.96
   3  -4   9   38.78    3.25
  -3   4 -10   12.70    1.59
  -3   4 -10   11.62    1.91
   3  -4  10   10.93    1.66
  -3   4 -11  132.77    8.06
   3  -4  11  140.04    8.34
   3  -4  12    9.80    1.61
  -3   4 -12   11.12    1.63
  -3   4 -13   89.43    6.07
  -3   4 -13  105.06    7.16
   3  -4  13   89.93    6.09
  -3   4 -14    0.88    0.70
  -3   4 -14    0.44    0.89
   3  -4  14    0.55    0.69
  -3   4 -15    0.60    0.87
  -3   4 -15    0.28    0.63
  -3   4 -15    0.33    0.90
  -3   4 -15    0.15    0.81
  -3   4 -15    1.69    0.74
   3  -4  15    0.97    0.63
  -3   4 -16   19.95    2.30
  -3   4 -16   17.36    1.90
  -3   4 -16   16.79    2.22
   3  -4  16   12.84    1.59
  -3   4 -16   20.72    2.16
  -3   4 -16   16.70    1.92
  -3   4 -17    4.46    1.09
  -3   4 -17    3.41    0.86
  -3   4 -17    1.88    0.91
  -3   4 -17    2.34    0.77
  -3   4 -18   87.56    5.38
  -3   4 -18   84.03    5.37
  -3   4 -18   84.29    5.10
  -3   4 -19   11.58    1.37
  -3   4 -19   11.25    1.31
   3  -3 -21   97.90    5.66
   3  -3 -20    1.90    0.61
   3  -3 -20    2.93    0.94
   3  -3 -19   14.48    1.89
   3  -3 -19   16.81    2.29
   3  -3 -19   14.58    1.86
   3  -3 -18   -0.19    0.73
   3  -3 -18   -0.16    0.58
   3  -3 -17   43.37    4.36
   3  -3 -17   41.15    3.97
   3  -3 -16   30.97    2.99
   3  -3 -16   34.63    4.11
   3  -3 -16   28.78    2.73
   3  -3 -16   22.76    3.13
   3  -3 -15    2.75    0.97
   3  -3 -15    0.63    0.88
   3  -3 -15    3.47    1.41
   3  -3 -15    2.02    1.51
   3  -3 -14  361.55   21.76
   3  -3 -14  384.53   19.52
   3  -3 -14  373.94   19.55
   3  -3 -14  354.51   22.09
   3  -3 -14  358.24   20.69
   3  -3 -13    7.00    1.60
   3  -3 -13    8.48    1.55
   3  -3 -13    6.20    2.28
   3  -3 -13    6.75    2.28
   3  -3 -13    9.86    2.02
   3  -3 -12  219.65   11.62
   3  -3 -12  196.11   14.05
   3  -3 -12  194.48   11.04
   3  -3 -12  203.93   13.90
   3  -3 -12  226.25   12.09
   3  -3 -12  207.28   13.00
   3  -3 -11   72.07    4.76
   3  -3 -11   69.81    5.79
   3  -3 -11   69.71    6.51
   3  -3 -11   61.69    4.31
   3  -3 -11   78.13    5.29
   3  -3 -11   65.21    6.37
   3  -3 -10   51.38    3.96
   3  -3 -10   41.66    3.37
   3  -3 -10   48.95    3.30
   3  -3 -10   46.72    4.96
   3  -3 -10   44.91    4.41
   3  -3  -9   89.83    5.27
   3  -3  -9   85.54    5.07
   3  -3  -9   74.50    5.71
   3  -3  -9   92.68    6.97
   3  -3  -8    0.09    0.47
  -3   3   8    0.62    0.41
   3  -3  -8    0.33    0.64
  -3   3   7  381.93   19.58
   3  -3  -7  415.76   20.61
   3  -3  -7  386.83   20.42
   3  -3  -6    3.68    1.04
   3  -3  -6    4.93    1.18
  -3   3   6    3.91    0.79
   3  -3  -5  588.59   29.61
   3  -3  -5  612.91   29.80
  -3   3   5  580.07   28.81
   3  -3  -4  471.31   23.59
   3  -3  -4  463.83   23.68
  -3   3   4  457.64   22.81
  -3   3   3   66.60    4.20
   3  -3  -3   75.87    5.04
   3  -3  -3   67.47    4.74
  -3   3   2 1038.11   50.05
   3  -3  -2 1033.00   50.68
   3  -3  -2 1073.34   50.92
  -3   3   1   29.14    2.25
   3  -3   0  396.20   20.74
   3  -3   0  426.42   21.05
   3  -3   1    4.07    1.02
   3  -3   1    3.01    0.84
   3  -3   2    7.45    1.31
   3  -3   2    6.34    1.17
  -3   3  -3  569.01   26.76
   3  -3   3  551.22   27.34
   3  -3   3  513.84   27.09
   3  -3   4    5.34    1.04
   3  -3   4    5.04    0.98
  -3   3  -4    5.82    0.91
   3  -3   4    6.94    1.22
   3  -3   5  395.04   21.34
   3  -3   5  411.12   21.15
   3  -3   5  435.64   21.61
  -3   3  -5  448.41   21.06
   3  -3   6   18.07    1.94
   3  -3   6   16.46    1.79
   3  -3   6   17.76    2.01
  -3   3  -6   15.93    1.67
   3  -3   7  171.06    9.88
   3  -3   7  173.11    9.78
   3  -3   7  174.20    9.62
  -3   3  -7  179.17    9.51
   3  -3   8   12.98    1.73
   3  -3   8   15.89    1.78
  -3   3  -8   16.34    1.70
   3  -3   8   16.00    1.91
  -3   3  -9   15.92    1.69
  -3   3  -9   16.64    1.83
   3  -3   9   15.80    1.87
   3  -3   9   18.46    2.12
  -3   3 -10  364.86   18.57
   3  -3  10  360.07   18.91
   3  -3  10  352.44   18.47
  -3   3 -11   12.86    1.69
   3  -3  11    8.91    1.43
   3  -3  11   12.71    1.83
  -3   3 -12  349.80   18.84
   3  -3  12  377.69   19.24
  -3   3 -12  357.61   18.96
  -3   3 -13   -0.16    0.65
  -3   3 -13    0.91    1.10
   3  -3  13    1.38    0.72
  -3   3 -13   -0.16    0.69
  -3   3 -14   93.65    6.38
  -3   3 -14   98.44    6.32
   3  -3  14   88.29    6.27
  -3   3 -14  101.45    6.99
  -3   3 -15   81.28    5.52
  -3   3 -15   84.11    5.85
  -3   3 -15   85.06    6.21
  -3   3 -15   90.18    5.77
   3  -3  15   80.98    5.64
  -3   3 -16   10.99    1.51
  -3   3 -16   13.27    1.85
  -3   3 -16   14.08    2.07
   3  -3  16   12.45    1.65
  -3   3 -16   12.27    1.68
  -3   3 -17  102.86    6.44
   3  -3  17   89.17    5.84
  -3   3 -17  107.13    6.64
  -3   3 -17  102.35    6.13
  -3   3 -18    6.47    1.20
  -3   3 -18    4.48    1.07
  -3   3 -18    4.34    1.01
  -3   3 -19  158.69    8.47
  -3   3 -19  154.50    8.43
  -3   3 -19  142.07    8.00
  -3   3 -20    6.64    0.82
  -3   3 -21    8.25    0.90
   3  -2 -21    0.64    0.48
   3  -2 -21    0.37    0.31
   3  -2 -20   65.00    4.57
   3  -2 -20   58.11    4.04
   3  -2 -19    7.73    1.63
   3  -2 -19    5.73    1.26
   3  -2 -19    5.18    1.21
   3  -2 -18   11.03    1.94
   3  -2 -18    9.50    2.11
   3  -2 -18   11.46    1.92
   3  -2 -17   49.95    5.06
   3  -2 -17   54.73    4.88
   3  -2 -16    3.62    0.76
   3  -2 -16    4.36    1.95
   3  -2 -16    4.45    1.17
   3  -2 -16    2.75    1.12
   3  -2 -16    3.68    1.47
   3  -2 -15  302.33   17.40
   3  -2 -15  304.31   15.10
   3  -2 -15  292.88   16.59
   3  -2 -15  286.53   15.07
   3  -2 -14   14.52    1.77
   3  -2 -14   11.34    2.29
   3  -2 -14   20.85    2.44
   3  -2 -14   21.38    2.58
   3  -2 -14   24.68    3.69
   3  -2 -14   21.48    3.22
   3  -2 -13   69.16    5.59
   3  -2 -13   97.65    6.19
   3  -2 -13  100.10    6.64
   3  -2 -13   92.52    6.03
   3  -2 -13   94.46    5.75
   3  -2 -13   85.41    5.53
   3  -2 -13  120.64    8.62
   3  -2 -13  103.73    7.85
   3  -2 -13  108.58    8.20
   3  -2 -12    5.86    1.56
   3  -2 -12    9.62    1.36
   3  -2 -12   12.66    1.72
   3  -2 -12   10.56    1.89
   3  -2 -12    7.65    2.10
   3  -2 -12    9.55    1.40
   3  -2 -12   11.89    1.63
   3  -2 -12   13.15    2.63
   3  -2 -12    9.75    2.23
   3  -2 -11    4.58    1.03
   3  -2 -11    3.47    0.86
   3  -2 -11    4.01    1.22
   3  -2 -11    4.14    1.52
   3  -2 -11    4.53    1.02
   3  -2 -11    5.44    1.33
   3  -2 -11    3.96    0.96
   3  -2 -11    7.79    1.90
   3  -2 -11    3.52    1.44
   3  -2 -11    6.50    1.65
   3  -2 -10  118.27    7.53
   3  -2 -10  121.82    6.55
   3  -2 -10  121.23    6.84
   3  -2 -10  108.33    6.54
   3  -2 -10  127.35    6.93
   3  -2 -10  121.55    6.66
   3  -2 -10  128.36    8.45
   3  -2 -10   98.31    6.82
   3  -2 -10  106.60    6.72
   3  -2 -10  123.59    8.40
   3  -2 -10  129.32    8.10
   3  -2 -10   94.83    6.48
   3  -2  -9    3.03    0.75
   3  -2  -9    3.06    0.77
   3  -2  -9    2.81    1.14
   3  -2  -9    2.30    1.15
   3  -2  -9    3.31    1.13
   3  -2  -9    1.91    1.06
   3  -2  -8  443.63   23.22
  -3   2   8  451.30   22.67
   3  -2  -8  498.37   23.09
   3  -2  -7   42.13    3.31
  -3   2   7   42.64    2.86
  -3   2   6  228.61   11.45
   3  -2  -6  230.40   12.10
   3  -2  -6  211.56   11.96
  -3   2   5   94.86    5.24
   3  -2  -5   87.58    5.63
   3  -2  -5   92.18    5.75
  -3   2   4   19.40    1.69
   3  -2  -4   24.13    2.19
   3  -2  -4   20.17    2.03
   3  -2  -3  349.97   17.56
  -3   2   3  354.43   17.03
   3  -2  -3  321.56   17.38
  -3   2   2   54.40    3.46
   3  -2  -2   58.51    3.91
  -3   2   1  684.86   33.02
   3  -2   0    1.86    0.69
   3  -2   1    0.10    0.51
  -3   2  -1    0.07    0.36
   3  -2   2  227.76   12.02
  -3   2  -3   11.87    1.25
   3  -2   3   13.37    1.46
   3  -2   3   10.87    1.43
   3  -2   4  448.06   24.08
   3  -2   4  490.65   24.30
   3  -2   4  506.72   24.19
  -3   2  -4  505.47   23.84
   3  -2   5    1.56    0.69
   3  -2   5    2.29    0.73
   3  -2   5    2.08    0.65
  -3   2  -5    2.23    0.58
   3  -2   6    9.51    1.39
  -3   2  -6    8.96    1.08
   3  -2   6    9.51    1.33
   3  -2   6    9.30    1.28
  -3   2  -7    4.06    0.72
   3  -2   7    2.96    0.84
   3  -2   8   80.59    5.21
   3  -2   8   80.56    5.05
  -3   2  -8   76.46    4.70
   3  -2   9  169.98    9.67
  -3   2  -9  170.12    9.17
  -3   2 -10    1.16    0.61
   3  -2  10    2.63    0.92
   3  -2  11   41.01    3.35
  -3   2 -11   38.73    3.26
  -3   2 -11   37.46    3.18
   3  -2  12    2.24    0.85
  -3   2 -12    2.20    0.83
   3  -2  12    3.36    1.07
  -3   2 -12    2.59    0.87
   3  -2  13   20.88    2.59
  -3   2 -13   25.89    2.70
  -3   2 -13   24.74    2.92
  -3   2 -13   23.15    2.42
  -3   2 -14   28.26    2.91
  -3   2 -14   30.81    3.23
   3  -2  14   25.03    2.85
  -3   2 -14   26.69    2.67
  -3   2 -15   26.53    2.58
  -3   2 -15   25.67    2.44
  -3   2 -15   27.90    2.89
  -3   2 -15   26.19    2.99
  -3   2 -15   24.69    2.51
   3  -2  15   24.56    2.76
  -3   2 -16   18.56    2.36
  -3   2 -16   16.24    2.27
  -3   2 -16   16.76    1.96
   3  -2  16   14.88    2.06
  -3   2 -17   16.69    2.18
  -3   2 -17   11.52    1.63
  -3   2 -17   14.48    1.90
  -3   2 -17   14.75    2.06
   3  -2  17   12.60    1.77
  -3   2 -18   45.22    3.45
  -3   2 -18   39.29    3.17
  -3   2 -18   47.35    3.83
   3  -2  18   41.33    3.26
  -3   2 -19   10.31    1.40
  -3   2 -19    9.98    1.21
  -3   2 -19    9.15    1.40
  -3   2 -19    9.61    1.57
  -3   2 -20    0.56    0.59
  -3   2 -20    0.86    0.51
  -3   2 -20    1.59    0.72
  -3   2 -21   31.28    2.23
   3  -1 -21   56.81    3.67
   3  -1 -21   52.66    3.40
   3  -1 -20   11.92    1.59
   3  -1 -20   14.97    1.93
   3  -1 -19   18.30    2.21
   3  -1 -19   27.02    3.20
   3  -1 -19   23.67    2.61
   3  -1 -18    7.79    2.13
   3  -1 -18    3.39    1.38
   3  -1 -18    5.51    1.60
   3  -1 -17    2.45    0.72
   3  -1 -17    2.05    1.43
   3  -1 -17    2.77    1.64
   3  -1 -17    1.04    1.13
   3  -1 -16  142.88    7.99
   3  -1 -16  142.72    9.61
   3  -1 -16  128.20    7.52
   3  -1 -16  124.46    7.12
   3  -1 -16  148.95    9.78
   3  -1 -15   40.71    3.62
   3  -1 -15   48.95    4.05
   3  -1 -15   56.93    4.59
   3  -1 -15   71.60    6.13
   3  -1 -15   51.11    3.76
   3  -1 -15   61.15    5.77
   3  -1 -14  356.23   18.64
   3  -1 -14  357.29   18.72
   3  -1 -14  341.12   17.18
   3  -1 -14  322.90   16.32
   3  -1 -14  315.69   15.83
   3  -1 -14  261.02   15.85
   3  -1 -14  268.80   15.58
   3  -1 -13   13.50    1.66
   3  -1 -13    9.58    1.44
   3  -1 -13   10.37    2.33
   3  -1 -13   12.11    1.81
   3  -1 -13   12.49    2.17
   3  -1 -13   12.03    1.79
   3  -1 -13   11.37    1.58
   3  -1 -13    9.63    1.93
   3  -1 -13   16.40    2.65
   3  -1 -12    6.83    1.18
   3  -1 -12   10.62    2.16
   3  -1 -12    9.41    1.49
   3  -1 -12    8.55    1.36
   3  -1 -12   10.02    1.58
   3  -1 -12    8.68    1.30
   3  -1 -12    5.21    1.07
   3  -1 -12   12.40    2.40
   3  -1 -12    5.55    1.59
   3  -1 -12   10.14    1.91
   3  -1 -12    6.63    1.83
   3  -1 -11  307.82   14.90
   3  -1 -11  257.02   14.66
   3  -1 -11  267.82   14.82
   3  -1 -11  313.56   15.26
   3  -1 -11  321.15   16.93
   3  -1 -11  292.63   15.20
   3  -1 -11  295.80   16.30
   3  -1 -11  293.72   14.91
   3  -1 -11  272.44   14.61
   3  -1 -11  290.40   16.80
   3  -1 -11  267.66   15.06
   3  -1 -11  329.70   16.80
   3  -1 -10    3.40    1.23
   3  -1 -10    2.79    0.78
   3  -1 -10    1.77    1.00
   3  -1 -10    3.04    0.86
   3  -1 -10    3.85    0.86
   3  -1 -10    3.21    0.84
   3  -1 -10    3.37    0.91
   3  -1 -10    6.23    1.52
   3  -1 -10    4.21    0.93
   3  -1 -10    2.41    0.71
   3  -1 -10    3.13    0.76
   3  -1 -10    2.79    1.01
   3  -1 -10    2.36    1.04
   3  -1  -9    3.35    0.85
   3  -1  -9    3.26    0.79
   3  -1  -9    3.14    1.04
   3  -1  -8   24.41    2.09
   3  -1  -8   24.86    2.15
  -3   1   7  229.55   11.45
   3  -1  -7  225.01   11.90
   3  -1  -7  227.92   11.82
  -3   1   6  173.50    8.65
   3  -1  -6  171.55    9.12
   3  -1  -6  157.58    8.78
  -3   1   5    6.49    0.84
   3  -1  -5    9.15    1.21
   3  -1  -4  178.58    9.68
  -3   1   4  180.93    9.28
   3  -1  -3    4.51    0.85
  -3   1   3    4.34    0.71
   3  -1  -2   25.75    2.14
  -3   1   2   24.53    1.90
  -3   1   1   91.29    5.14
   3  -1   0   37.52    2.50
   3  -1   1  195.01   10.31
   3  -1   2   25.62    2.14
   3  -1   3  315.76   16.20
  -3   1  -3  324.73   15.93
   3  -1   4   15.14    1.59
  -3   1  -4   14.88    1.39
   3  -1   4   16.50    1.67
   3  -1   5  380.08   18.76
  -3   1  -5  370.96   18.39
   3  -1   5  371.59   18.82
  -3   1  -6  376.25   18.26
   3  -1   6  367.62   18.80
   3  -1   6  367.17   18.64
  -3   1  -7   49.55    3.01
   3  -1   7   43.40    3.24
   3  -1   7   48.85    3.55
   3  -1   8  839.22   41.64
  -3   1  -8  872.45   41.28
   3  -1   8  877.22   42.11
  -3   1  -9    1.32    0.45
   3  -1   9    1.24    0.54
   3  -1   9    1.46    0.77
   3  -1  10   57.07    4.23
  -3   1 -11    1.12    0.65
   3  -1  11    0.45    0.77
  -3   1 -11    0.68    0.67
   3  -1  12    9.56    1.60
  -3   1 -12   10.71    1.81
  -3   1 -12   14.26    1.87
  -3   1 -12   11.15    1.51
  -3   1 -13   74.28    5.68
  -3   1 -13   84.03    5.73
  -3   1 -13   80.73    5.22
   3  -1  13   76.14    5.44
  -3   1 -14    7.84    1.67
  -3   1 -14    7.84    1.60
  -3   1 -14    7.61    1.32
  -3   1 -15  169.48    9.81
  -3   1 -15  176.42   10.48
  -3   1 -15  167.70    9.64
  -3   1 -15  173.24   10.40
  -3   1 -16   17.06    2.06
  -3   1 -16   18.07    2.43
  -3   1 -16   16.52    1.91
  -3   1 -16   15.13    2.20
   3  -1  16   15.78    2.30
  -3   1 -16   15.38    1.88
  -3   1 -17   18.38    2.09
   3  -1  17   23.43    2.58
  -3   1 -17   20.36    2.61
  -3   1 -17   17.42    1.98
  -3   1 -17   20.05    2.43
  -3   1 -18    4.68    1.09
  -3   1 -18    4.72    1.25
  -3   1 -18    2.50    1.10
   3  -1  18    3.78    1.05
  -3   1 -18    2.34    0.78
  -3   1 -19    0.10    0.67
  -3   1 -19   -0.17    0.85
  -3   1 -19    0.25    0.45
  -3   1 -19   -0.13    0.75
  -3   1 -20   21.16    1.93
  -3   1 -20   22.37    2.41
  -3   1 -20   19.85    1.99
  -3   1 -21   24.05    1.97
  -3   1 -21   26.05    2.48
  -3   1 -21   30.29    2.26
   3   0 -21    1.71    0.56
   3   0 -21    2.18    0.58
   3   0 -20   15.45    2.02
   3   0 -20   16.84    1.93
   3   0 -19  192.81   10.68
   3   0 -19  175.63    9.85
   3   0 -18    3.66    1.44
   3   0 -18    0.51    0.55
   3   0 -18    0.41    0.95
   3   0 -18    2.57    1.19
   3   0 -17    1.24    0.64
   3   0 -17    0.26    1.08
   3   0 -17    0.25    0.66
   3   0 -17    0.93    1.29
   3   0 -17    0.58    1.17
   3   0 -16    5.41    1.22
   3   0 -16    3.15    1.13
   3   0 -16    7.09    1.62
   3   0 -16    2.82    1.02
   3   0 -16    5.06    1.43
   3   0 -16    4.81    1.68
   3   0 -16    6.15    1.88
   3   0 -16    6.02    1.94
   3   0 -15  109.42    6.67
   3   0 -15   99.40    6.37
   3   0 -15  126.50    7.55
   3   0 -15   94.95    6.72
   3   0 -15  119.00    7.76
   3   0 -15  138.14    8.86
   3   0 -15  109.03    6.47
   3   0 -15   86.56    6.53
   3   0 -15  124.06    8.70
   3   0 -14   34.67    2.80
   3   0 -14   22.61    2.35
   3   0 -14   25.54    2.85
   3   0 -14   24.16    2.34
   3   0 -14   28.87    3.60
   3   0 -14   26.11    3.26
   3   0 -14   23.57    2.50
   3   0 -14   24.71    2.66
   3   0 -14   20.48    2.61
   3   0 -14   23.75    3.41
   3   0 -13    8.40    1.47
   3   0 -13   11.38    1.56
   3   0 -13    7.33    1.33
   3   0 -13    8.47    2.04
   3   0 -13    6.41    1.85
   3   0 -13    9.44    1.36
   3   0 -13    8.70    1.67
   3   0 -13    7.27    1.45
   3   0 -13   12.72    2.30
   3   0 -12  184.78    9.81
   3   0 -12  176.43    9.65
   3   0 -12  159.15    9.74
   3   0 -12  173.57   11.19
   3   0 -12  171.49    9.70
   3   0 -12  173.82    9.49
   3   0 -12  163.82    9.84
   3   0 -12  190.62   11.26
   3   0 -12  191.60   11.32
   3   0 -11   38.33    3.86
   3   0 -11   33.27    2.75
   3   0 -11   37.92    2.89
   3   0 -11   38.41    3.95
   3   0 -11   32.81    2.63
   3   0 -11   28.86    2.57
   3   0 -11   35.18    2.86
   3   0 -11   34.85    2.97
   3   0 -11   32.15    2.83
   3   0 -11   32.82    3.54
   3   0 -11   31.01    3.39
   3   0 -10   45.54    3.25
   3   0 -10   43.94    3.21
   3   0 -10   44.21    3.27
   3   0 -10   42.10    3.46
   3   0 -10   45.95    3.98
   3   0 -10   39.17    3.98
   3   0 -10   44.67    3.10
   3   0 -10   45.22    4.20
   3   0 -10   49.11    3.37
   3   0 -10   40.23    3.17
   3   0 -10   39.83    3.86
   3   0  -9  120.07    6.86
   3   0  -8   13.29    1.42
   3   0  -7  187.54   10.10
  -3   0   7  200.35    9.78
   3   0  -7  192.51   10.09
  -3   0   6    5.55    0.72
   3   0  -6    4.76    0.91
   3   0  -6    4.87    0.81
   3   0  -5  713.69   35.78
   3   0  -5  755.63   35.84
  -3   0   5  752.93   35.56
   3   0  -4    8.26    1.09
   3   0  -4    8.30    1.02
   3   0  -3  175.57    8.96
   3   0  -3  162.19    8.67
   3   0  -2   69.05    4.05
   3   0  -2   75.54    4.39
   3   0  -1  161.70    8.76
   3   0  -1  168.90    8.39
   3   0  -1  164.18    8.37
   3   0   0  894.37   40.38
   3   0   0  814.33   40.05
   3   0   1    8.72    0.74
   3   0   1    9.71    1.10
   3   0   1    7.79    1.05
   3   0   2  441.38   21.72
   3   0   3   84.02    4.92
   3   0   4  220.84   11.41
   3   0   5  126.87    6.98
   3   0   6  364.25   18.16
   3   0   7 1135.82   55.50
  -3   0  -7 1183.22   55.28
   3   0   8   96.81    5.61
  -3   0  -8   99.99    5.38
  -3   0  -9  540.64   25.55
   3   0   9  515.53   25.74
  -3   0 -11   97.20    6.13
   3   0  11   91.41    6.10
  -3   0 -11   87.80    5.88
  -3   0 -12  268.12   14.68
   3   0  12  276.70   14.85
  -3   0 -12  282.74   14.80
  -3   0 -12  261.39   14.00
  -3   0 -13   76.61    5.46
   3   0  13   74.00    5.44
  -3   0 -13   78.92    4.92
  -3   0 -13   72.63    5.44
  -3   0 -14  327.31   16.88
  -3   0 -14  323.17   17.10
   3   0  14  306.59   16.73
  -3   0 -14  289.33   15.94
  -3   0 -14  316.40   16.44
  -3   0 -15   44.35    3.65
  -3   0 -15   42.04    3.89
  -3   0 -15   48.40    3.56
  -3   0 -16   40.04    3.97
  -3   0 -16   37.66    3.10
  -3   0 -16   39.22    3.24
  -3   0 -16   42.59    3.76
  -3   0 -16   40.15    3.77
  -3   0 -17   58.12    4.12
  -3   0 -17   61.99    5.16
  -3   0 -17   50.54    3.86
  -3   0 -17   68.65    4.79
  -3   0 -17   48.84    3.76
  -3   0 -17   58.24    4.70
  -3   0 -18   88.43    5.63
  -3   0 -18   91.43    6.73
  -3   0 -18   94.24    6.12
  -3   0 -18   82.55    5.30
   3   0  18   95.23    6.45
  -3   0 -19   18.54    2.54
  -3   0 -19   15.74    1.80
  -3   0 -19   20.18    2.16
   3   0  19   19.75    2.31
  -3   0 -20   17.70    1.76
  -3   0 -20   18.69    1.98
  -3   0 -20   20.32    2.53
  -3   0 -21   11.95    1.35
  -3   0 -21   14.68    1.94
  -3   0 -21   17.77    1.72
   3   1 -21    0.36    0.35
   3   1 -20   41.65    3.46
   3   1 -19    3.62    0.81
   3   1 -19    3.67    1.28
   3   1 -18  132.25    8.79
   3   1 -18  123.40    7.72
   3   1 -18  146.59    7.84
   3   1 -17   25.18    2.29
   3   1 -17   18.15    1.94
   3   1 -17   24.93    3.06
   3   1 -17   14.47    2.02
   3   1 -17   27.87    3.45
   3   1 -16    1.35    1.37
   3   1 -16    2.03    0.93
   3   1 -16    1.07    0.68
   3   1 -16    0.87    0.71
   3   1 -16    0.86    0.66
   3   1 -16    4.73    1.44
   3   1 -16    0.83    1.19
   3   1 -16    1.17    1.13
   3   1 -15  197.13   10.37
   3   1 -15  168.02    9.95
   3   1 -15  184.95   11.19
   3   1 -15  198.38   11.94
   3   1 -15  159.36   10.21
   3   1 -15  219.41   12.60
   3   1 -15  167.28   10.14
   3   1 -15  179.68   10.00
   3   1 -15  187.59   11.45
   3   1 -15  201.17   12.09
   3   1 -14   29.99    2.74
   3   1 -14   24.53    2.41
   3   1 -14   29.98    3.25
   3   1 -14   22.91    2.44
   3   1 -14   28.29    3.42
   3   1 -14   22.86    2.53
   3   1 -14   23.84    2.57
   3   1 -14   26.65    2.55
   3   1 -14   32.34    3.71
   3   1 -14   27.52    3.48
   3   1 -13  152.89    8.31
   3   1 -13  133.91    7.99
   3   1 -13  137.27    8.81
   3   1 -13  134.66    8.21
   3   1 -13  137.90    9.44
   3   1 -13  141.90    8.15
   3   1 -13  131.90    9.17
   3   1 -13  135.92    7.89
   3   1 -13  124.68    8.00
   3   1 -13  150.47    9.59
   3   1 -12    0.35    0.83
   3   1 -12   -0.13    0.63
   3   1 -12    1.17    0.69
   3   1 -12    0.98    0.64
   3   1 -12    0.60    0.65
   3   1 -12   -0.24    0.98
   3   1 -12    1.29    0.71
   3   1 -12    0.23    0.86
   3   1 -12    1.55    1.33
   3   1 -11  183.65   11.30
   3   1 -11  196.46   10.83
   3   1 -11  202.45   11.28
   3   1 -11  205.07   12.26
   3   1 -11  205.43   10.99
   3   1 -11  199.06   10.94
   3   1 -11  228.10   12.22
   3   1 -11  203.87   12.39
   3   1 -11  197.21   10.71
   3   1 -11  199.27   11.07
   3   1 -11  202.75   12.05
   3   1 -11  205.19   10.95
   3   1 -10   46.14    3.35
   3   1 -10   49.05    3.42
   3   1 -10   42.75    3.56
   3   1 -10   44.00    3.22
   3   1 -10   43.56    4.09
   3   1 -10   45.20    4.23
   3   1 -10   46.30    3.94
   3   1 -10   43.27    3.17
   3   1 -10   41.71    3.35
   3   1 -10   48.83    3.45
   3   1 -10   48.42    3.70
   3   1 -10   45.81    4.05
   3   1  -9   55.26    3.64
   3   1  -8   25.28    2.33
   3   1  -8   23.83    1.94
   3   1  -7    1.43    0.69
   3   1  -7    0.92    0.43
   3   1  -7    1.07    0.40
   3   1  -6  661.40   31.87
   3   1  -5   23.06    1.84
   3   1  -4   66.80    4.03
   3   1  -3  184.44    9.55
   3   1  -3  174.92    9.41
   3   1  -3  193.35    9.67
   3   1  -2   22.14    1.41
   3   1  -2   23.09    1.78
   3   1  -2   21.41    1.80
   3   1  -1  196.22    9.56
   3   1  -1  193.00    9.92
   3   1  -1  183.07    9.80
   3   1   0  118.21    6.23
   3   1   1 1815.66   82.91
   3   1   1 1708.33   82.54
   3   1   2   76.01    4.37
   3   1   2   71.96    3.99
   3   1   2   74.85    4.28
   3   1   3  432.30   20.89
   3   1   3  418.62   20.76
   3   1   4  120.38    6.48
   3   1   4  115.46    6.34
   3   1   5    0.78    0.44
   3   1   5    0.59    0.45
   3   1   6   72.59    4.16
   3   1   6   70.42    4.24
   3   1   7  123.78    6.73
   3   1   8   26.63    2.02
   3   1   9    5.49    0.77
  -3  -1  -9    8.09    1.17
  -3  -1 -10    0.12    0.51
  -3  -1 -10    0.34    0.24
  -3  -1 -11  195.43   10.79
  -3  -1 -12  109.97    6.88
  -3  -1 -12  114.33    7.19
  -3  -1 -13   15.95    2.16
  -3  -1 -13   14.33    1.91
  -3  -1 -13   16.17    1.95
  -3  -1 -13   15.45    1.60
  -3  -1 -14    3.78    1.07
  -3  -1 -14    5.09    1.42
  -3  -1 -14    5.85    1.29
   3   1  14    5.62    1.40
  -3  -1 -14    5.00    0.93
  -3  -1 -14    6.74    1.43
  -3  -1 -15  135.89    7.68
  -3  -1 -15  137.69    8.02
  -3  -1 -15  110.19    7.05
  -3  -1 -15  140.65    8.72
  -3  -1 -15  118.19    8.22
  -3  -1 -16   15.81    1.84
  -3  -1 -16   14.45    1.83
  -3  -1 -16   17.48    2.22
  -3  -1 -16   16.17    2.55
  -3  -1 -16   14.63    1.66
  -3  -1 -16   15.25    2.38
  -3  -1 -17   55.98    3.90
  -3  -1 -17   56.27    5.04
  -3  -1 -17   49.65    3.81
  -3  -1 -17   48.31    3.53
  -3  -1 -17   54.84    4.29
  -3  -1 -17   53.26    4.77
  -3  -1 -18   26.51    2.40
  -3  -1 -18   23.90    2.60
  -3  -1 -18   25.95    3.12
  -3  -1 -19   31.25    2.60
  -3  -1 -19   31.15    3.31
  -3  -1 -19   30.79    2.86
  -3  -1 -20    4.19    0.86
  -3  -1 -20    4.66    1.02
   3   1  20    6.11    1.29
  -3  -1 -20    4.92    1.25
  -3  -1 -21    0.33    0.63
  -3  -1 -22    6.37    1.05
  -3  -1 -23    4.71    0.75
   3   2 -20    0.42    0.38
   3   2 -20    0.11    0.57
   3   2 -19   35.32    2.68
   3   2 -19   45.28    3.68
   3   2 -18    1.97    0.69
   3   2 -18    2.90    0.84
   3   2 -18    3.90    1.32
   3   2 -17    9.19    1.44
   3   2 -17    6.38    1.22
   3   2 -17    8.44    1.69
   3   2 -17    6.81    1.11
   3   2 -17   10.45    2.16
   3   2 -17    7.81    1.24
   3   2 -16   36.01    3.53
   3   2 -16   53.79    3.81
   3   2 -16   50.03    3.54
   3   2 -16   56.19    4.63
   3   2 -16   56.92    5.01
   3   2 -16   48.20    3.54
   3   2 -16   36.28    3.44
   3   2 -15   11.21    1.75
   3   2 -15   10.05    1.51
   3   2 -15   12.48    2.19
   3   2 -15   10.68    1.61
   3   2 -15   15.15    2.54
   3   2 -15   10.64    1.67
   3   2 -15    9.08    1.49
   3   2 -14  191.29   10.36
   3   2 -14  196.32   10.68
   3   2 -14  184.39   10.47
   3   2 -14  190.39   11.42
   3   2 -14  193.99   12.15
   3   2 -14  197.04   11.89
   3   2 -14  167.35   10.30
   3   2 -14  177.11   10.54
   3   2 -14  204.39   11.83
   3   2 -13    6.74    1.63
   3   2 -13    6.59    1.41
   3   2 -13    8.92    1.44
   3   2 -13    7.98    1.44
   3   2 -13    4.89    1.65
   3   2 -13    9.98    1.91
   3   2 -13    5.94    1.20
   3   2 -13    6.53    1.28
   3   2 -12  175.12    9.82
   3   2 -12  158.80    9.48
   3   2 -12  180.73    9.86
   3   2 -12  181.17   10.48
   3   2 -12  180.84   11.10
   3   2 -12  178.68   10.72
   3   2 -12  167.29    9.52
   3   2 -12  170.76   10.11
   3   2 -12  172.47   10.87
   3   2 -11   65.87    4.69
   3   2 -11   63.71    5.03
   3   2 -11   66.85    4.51
   3   2 -11   78.14    4.88
   3   2 -11   68.38    5.29
   3   2 -11   72.87    5.69
   3   2 -11   72.63    4.61
   3   2 -11   67.49    4.99
   3   2 -11   70.78    5.50
   3   2 -10   21.38    2.15
   3   2 -10   26.29    2.37
   3   2 -10   21.47    2.16
   3   2 -10   18.60    1.90
   3   2 -10   20.10    2.28
   3   2 -10   23.97    2.70
   3   2 -10   22.29    2.05
   3   2 -10   21.82    2.43
   3   2 -10   26.64    2.67
   3   2 -10   19.85    2.68
   3   2 -10   21.07    2.24
   3   2 -10   20.74    2.63
   3   2  -9  182.22    9.99
   3   2  -9  157.72    9.05
   3   2  -9  173.12   10.29
   3   2  -9  166.08    9.69
   3   2  -9  173.19    9.43
   3   2  -9  172.93   10.37
   3   2  -9  183.29    9.24
   3   2  -9  178.95    9.94
   3   2  -9  165.32   10.03
   3   2  -9  158.44    9.57
   3   2  -8    0.40    0.51
   3   2  -8    0.77    0.41
   3   2  -7    6.22    1.10
   3   2  -7    3.12    0.66
   3   2  -6   18.13    1.94
   3   2  -5   54.01    3.27
   3   2  -5   49.82    3.17
   3   2  -5   52.30    3.68
   3   2  -4  182.17    9.54
   3   2  -4  189.01    9.62
   3   2  -3   64.07    3.89
   3   2  -3   66.62    3.96
   3   2  -2  284.11   14.34
   3   2  -2  285.84   14.39
   3   2  -2  287.90   13.74
   3   2  -1    1.84    0.53
   3   2  -1    1.63    0.57
   3   2  -1    1.95    0.43
   3   2  -1    1.69    0.56
   3   2   0 6531.47  306.70
   3   2   1   59.08    3.79
   3   2   1   65.55    3.77
   3   2   1   67.28    3.89
   3   2   2  125.68    6.63
   3   2   2  118.69    6.59
   3   2   3  187.86    9.64
   3   2   3  184.99    9.64
   3   2   4  108.40    6.04
   3   2   4  111.06    6.04
   3   2   5   88.54    4.96
   3   2   5   85.68    4.97
   3   2   6    9.37    1.07
   3   2   6    8.79    1.08
   3   2   7   75.24    4.27
   3   2   7   68.13    4.15
   3   2   8   16.33    1.44
   3   2   8   17.74    1.52
  -3  -2  -9  189.39   10.00
  -3  -2 -10   38.69    2.87
  -3  -2 -11  116.07    6.42
  -3  -2 -11   95.04    6.10
  -3  -2 -12   15.12    1.76
  -3  -2 -12   14.13    2.02
  -3  -2 -12   15.86    1.84
   3   2  13   15.53    2.16
  -3  -2 -13   15.83    1.92
  -3  -2 -13   18.37    2.02
  -3  -2 -14    2.90    0.91
  -3  -2 -14    2.69    0.90
  -3  -2 -15    8.78    1.41
  -3  -2 -15    7.83    1.43
  -3  -2 -16    1.69    0.80
  -3  -2 -16    1.39    0.77
  -3  -2 -16    1.33    0.73
  -3  -2 -16    0.49    1.06
  -3  -2 -17    8.07    1.25
  -3  -2 -17    8.71    1.39
  -3  -2 -17    6.25    1.39
  -3  -2 -17    6.63    1.77
  -3  -2 -18   76.93    5.03
  -3  -2 -18   82.36    5.57
  -3  -2 -18   84.17    6.62
  -3  -2 -19    2.35    0.70
  -3  -2 -19    1.29    0.85
  -3  -2 -19    0.21    0.98
  -3  -2 -19    0.98    1.09
  -3  -2 -20    4.38    1.48
  -3  -2 -20    4.37    1.11
  -3  -2 -20    6.62    1.43
  -3  -2 -21   14.09    1.82
  -3  -2 -21   12.03    1.60
  -3  -2 -21    9.74    1.87
  -3  -2 -22   14.21    1.56
  -3  -2 -22   12.70    1.57
  -3  -2 -22    9.17    1.52
  -3  -2 -23    8.57    1.03
   3   3 -20    9.18    0.98
   3   3 -20   11.31    1.34
   3   3 -19    2.84    0.72
   3   3 -19    4.09    1.01
   3   3 -19    2.26    0.92
   3   3 -18    0.55    0.56
   3   3 -18    1.17    0.77
   3   3 -18    0.33    0.64
   3   3 -17   65.42    4.24
   3   3 -17   60.15    3.90
   3   3 -17   71.97    5.26
   3   3 -17   59.76    3.97
   3   3 -17   66.21    5.04
   3   3 -16   22.41    2.34
   3   3 -16   18.34    2.00
   3   3 -16   20.81    2.74
   3   3 -16   16.93    2.34
   3   3 -16   13.86    1.86
   3   3 -16   14.38    1.92
   3   3 -16   21.41    2.78
   3   3 -16   20.52    2.07
   3   3 -15    0.57    0.83
   3   3 -15    0.64    0.81
   3   3 -15    1.48    0.67
   3   3 -15    1.85    1.00
   3   3 -15    2.75    1.15
   3   3 -15    1.31    0.76
   3   3 -15    0.96    0.77
   3   3 -15    0.23    1.07
   3   3 -14   16.45    2.00
   3   3 -14   14.12    2.43
   3   3 -14   11.92    1.64
   3   3 -14   14.40    2.33
   3   3 -14   14.56    2.51
   3   3 -14   14.41    1.81
   3   3 -14   14.65    1.90
   3   3 -13  192.61   10.35
   3   3 -13  174.07   10.58
   3   3 -13  158.28    9.84
   3   3 -13  195.53   11.35
   3   3 -13  186.55   10.31
   3   3 -13  198.26   11.73
   3   3 -13  174.30   10.00
   3   3 -13  182.78   10.50
   3   3 -12   15.34    2.07
   3   3 -12   16.77    2.08
   3   3 -12   16.46    2.02
   3   3 -12   19.32    2.45
   3   3 -12   19.83    2.02
   3   3 -12   14.45    1.75
   3   3 -12   12.17    2.16
   3   3 -12   17.45    2.23
   3   3 -11    3.62    1.01
   3   3 -11    3.64    1.31
   3   3 -11    1.78    0.87
   3   3 -11    1.89    0.69
   3   3 -11    1.73    1.06
   3   3 -11    4.79    1.14
   3   3 -11    3.48    1.08
   3   3 -11    1.53    0.75
   3   3 -10  229.75   11.96
   3   3 -10  225.97   12.79
   3   3 -10  216.60   12.15
   3   3 -10  227.37   11.89
   3   3 -10  203.31   11.47
   3   3 -10  197.03   11.86
   3   3 -10  221.93   12.35
   3   3 -10  231.59   12.45
   3   3 -10  219.23   11.90
   3   3  -9  154.85    8.57
   3   3  -9  149.69    8.49
   3   3  -9  145.22    8.18
   3   3  -9  145.34    8.69
   3   3  -9  146.27    9.26
   3   3  -9  155.63    9.42
   3   3  -9  153.07    8.90
   3   3  -9  139.71    8.77
   3   3  -9  149.18    8.52
   3   3  -9  160.29    9.13
   3   3  -8  311.36   16.00
   3   3  -8  331.45   16.88
   3   3  -7    5.17    0.79
   3   3  -7    6.54    1.25
   3   3  -7    6.28    0.79
  -3  -3   6   13.86    1.27
   3   3  -6   14.98    1.82
   3   3  -6   13.71    1.33
   3   3  -5   14.13    1.41
   3   3  -4  212.60   11.00
   3   3  -3  292.15   14.69
   3   3  -3  297.28   15.19
   3   3  -3  299.11   14.90
   3   3  -2  847.16   38.90
   3   3  -2  824.35   39.05
   3   3  -2  799.25   38.22
   3   3  -1  171.80    8.90
   3   3  -1  171.48    9.03
  -3  -3   0  289.37   13.80
  -3  -3  -1   13.39    0.96
   3   3   2   74.12    4.26
  -3  -3  -2   71.34    3.83
   3   3   3  127.52    7.12
   3   3   3  136.09    7.08
   3   3   4    5.66    0.83
   3   3   4    7.23    0.96
   3   3   5   55.73    3.44
   3   3   5   56.09    3.56
   3   3   6  292.04   14.86
   3   3   6  307.91   15.09
   3   3   7   28.73    2.25
   3   3   8  114.95    6.45
  -3  -3  -8  116.01    6.46
   3   3   9  322.65   15.89
  -3  -3  -9  340.31   16.08
  -3  -3  -9  295.33   15.70
  -3  -3 -10  151.11    7.83
  -3  -3 -10  156.83    8.23
   3   3  10  151.57    8.10
  -3  -3 -11    1.31    0.58
  -3  -3 -12   30.84    2.64
  -3  -3 -12   38.39    2.91
   3   3  13    6.84    1.50
  -3  -3 -13    6.45    1.16
  -3  -3 -13    6.92    1.26
  -3  -3 -13    5.49    1.36
   3   3  14   50.82    4.57
  -3  -3 -14   52.36    3.88
  -3  -3 -14   56.54    3.97
  -3  -3 -14   50.81    4.55
  -3  -3 -15    0.97    0.57
   3   3  15    1.34    0.79
  -3  -3 -15    0.96    0.72
  -3  -3 -15    0.66    0.73
  -3  -3 -15    0.52    0.73
  -3  -3 -16   62.26    4.27
  -3  -3 -16   75.45    5.69
  -3  -3 -16   69.17    4.83
  -3  -3 -16   65.78    4.66
  -3  -3 -17   31.88    3.50
  -3  -3 -17   26.20    2.36
  -3  -3 -17   34.28    2.93
  -3  -3 -17   31.18    2.91
  -3  -3 -18   11.27    1.45
  -3  -3 -18   17.09    2.43
  -3  -3 -18   14.79    1.87
  -3  -3 -18   16.52    2.08
  -3  -3 -18   18.75    3.11
  -3  -3 -19    3.52    1.12
  -3  -3 -19    7.35    1.55
  -3  -3 -19    6.08    1.84
  -3  -3 -20  228.98   12.37
  -3  -3 -20  218.59   12.08
  -3  -3 -20  199.19   13.28
  -3  -3 -21    6.22    1.24
  -3  -3 -21    6.23    1.22
  -3  -3 -21    7.22    1.68
  -3  -3 -22   24.23    2.35
  -3  -3 -22   27.68    2.83
  -3  -3 -23   34.03    2.26
  -3  -3 -23   26.16    2.25
   3   4 -19   14.16    1.45
   3   4 -19   18.14    1.79
   3   4 -18   66.51    4.66
   3   4 -18   68.85    4.75
   3   4 -17   23.73    2.08
   3   4 -17   23.36    2.60
   3   4 -17   24.57    2.14
   3   4 -17   23.92    2.65
   3   4 -16   35.28    2.95
   3   4 -16   42.95    3.22
   3   4 -16   46.49    4.07
   3   4 -16   41.91    3.23
   3   4 -16   47.87    4.05
   3   4 -15    1.02    0.80
   3   4 -15    0.22    0.51
   3   4 -15    0.13    0.50
   3   4 -15    0.12    0.69
   3   4 -15    0.77    0.81
   3   4 -15    0.88    0.92
   3   4 -15   -0.21    0.70
   3   4 -14   11.34    1.69
   3   4 -14   12.53    2.00
   3   4 -14   11.09    2.11
   3   4 -14    8.00    1.34
   3   4 -14   10.02    1.58
   3   4 -14   11.09    2.03
   3   4 -13   53.10    4.08
   3   4 -13   45.72    3.84
   3   4 -13   43.14    3.47
   3   4 -13   43.68    4.16
   3   4 -13   47.97    4.45
   3   4 -13   48.91    4.54
   3   4 -13   53.12    4.15
   3   4 -12   -0.46    0.81
   3   4 -12    0.48    0.55
   3   4 -12    0.76    0.83
   3   4 -12   -0.22    0.78
   3   4 -12    0.42    0.85
   3   4 -12    0.87    0.79
   3   4 -12    0.96    1.00
   3   4 -12    0.55    0.80
   3   4 -11  153.11    8.55
   3   4 -11  139.13    8.41
   3   4 -11  129.97    8.10
   3   4 -11  122.78    8.35
   3   4 -11  135.42    8.26
   3   4 -11  152.17    9.16
   3   4 -11  154.74    8.88
   3   4 -11  141.27    8.41
   3   4 -11  131.77    7.92
   3   4 -11  147.75    8.90
   3   4 -11  144.63    9.09
   3   4 -10   25.65    2.59
   3   4 -10   28.64    2.76
   3   4 -10   25.94    2.72
   3   4 -10   25.55    2.42
   3   4 -10   28.45    2.87
   3   4 -10   24.23    2.29
   3   4 -10   28.89    3.08
   3   4 -10   30.41    2.81
   3   4 -10   29.57    3.01
   3   4 -10   25.96    2.46
   3   4 -10   24.62    2.87
   3   4  -9   66.34    4.64
   3   4  -9   69.32    5.10
   3   4  -9   79.05    5.64
   3   4  -9   73.81    4.72
   3   4  -9   77.66    5.43
   3   4  -9   82.34    4.94
   3   4  -9   72.01    5.04
   3   4  -9   79.04    5.18
   3   4  -9   88.46    5.77
   3   4  -8    7.21    1.30
   3   4  -8    7.74    1.28
   3   4  -8    7.77    1.50
   3   4  -8    8.13    1.40
   3   4  -8    7.39    1.07
   3   4  -8    7.21    1.36
   3   4  -8    7.38    1.46
   3   4  -8    6.62    1.36
   3   4  -8    9.24    1.25
   3   4  -7   56.83    3.61
   3   4  -7   51.93    3.43
   3   4  -7   63.47    4.45
  -3  -4   6    2.31    0.59
   3   4  -6    2.53    0.57
   3   4  -6    2.66    0.66
   3   4  -5   85.05    5.13
  -3  -4   5   87.28    4.95
   3   4  -4  497.85   24.56
  -3  -4   4  505.01   24.33
   3   4  -4  489.68   24.97
   3   4  -3    0.35    0.59
   3   4  -3    0.45    0.50
   3   4  -2  622.57   30.61
   3   4  -1   76.07    4.75
   3   4  -1   73.15    4.63
   3   4   0  462.87   22.96
  -3  -4  -1   47.41    2.64
  -3  -4  -2    3.50    0.50
   3   4   3  150.20    7.83
  -3  -4  -3  136.09    7.05
  -3  -4  -4   15.10    1.25
   3   4   4   17.63    1.72
   3   4   5  155.06    8.51
  -3  -4  -5  154.54    7.94
  -3  -4  -6    0.77    0.49
  -3  -4  -7  314.39   15.24
   3   4   7  294.42   15.53
   3   4   8  159.38    8.92
  -3  -4  -8  164.11    8.69
  -3  -4  -8  169.66    8.64
   3   4   9  352.74   17.77
  -3  -4  -9  374.30   17.39
  -3  -4  -9  318.30   17.22
  -3  -4  -9  372.59   17.60
  -3  -4 -10   57.29    3.60
  -3  -4 -10   51.53    3.35
  -3  -4 -10   51.94    3.24
   3   4  10   51.57    3.59
  -3  -4 -11    2.12    0.61
  -3  -4 -11    2.75    0.57
  -3  -4 -12   18.38    1.79
  -3  -4 -12   18.87    2.18
   3   4  13   46.72    4.38
  -3  -4 -13   53.18    4.14
  -3  -4 -13   48.93    3.51
  -3  -4 -13   46.48    3.52
   3   4  14  418.89   22.67
  -3  -4 -14  427.09   21.19
  -3  -4 -14  428.66   21.95
  -3  -4 -14  397.21   21.02
   3   4  15  198.36   12.43
  -3  -4 -15  195.29   11.66
  -3  -4 -15  190.43   10.92
  -3  -4 -15  209.61   11.11
  -3  -4 -16    2.02    0.89
   3   4  16    1.33    0.99
  -3  -4 -16    2.82    0.95
  -3  -4 -16    1.76    1.05
  -3  -4 -17   95.55    6.53
  -3  -4 -17   88.44    5.98
  -3  -4 -17   85.32    5.94
  -3  -4 -18    0.48    0.69
  -3  -4 -18   -0.15    0.71
  -3  -4 -18    0.75    0.86
  -3  -4 -19   10.09    1.71
  -3  -4 -19   13.22    1.91
  -3  -4 -19   11.21    2.48
  -3  -4 -20   12.10    1.77
  -3  -4 -20   12.48    1.84
  -3  -4 -20   16.85    2.79
  -3  -4 -21  149.82    8.21
  -3  -4 -21  132.91    8.12
  -3  -4 -21  136.24    9.25
  -3  -4 -22   -0.09    0.45
  -3  -4 -22    0.98    0.55
  -3  -4 -22    0.47    0.77
  -3  -4 -23   16.26    1.39
  -3  -4 -23   14.98    1.67
   3   5 -19   76.07    4.40
   3   5 -18    0.05    0.35
   3   5 -18    0.85    0.56
   3   5 -17   64.56    4.36
   3   5 -17   65.74    4.14
   3   5 -17   68.14    4.22
   3   5 -17   68.12    4.65
   3   5 -16    0.37    0.77
   3   5 -16    0.10    0.65
   3   5 -16    0.31    0.67
   3   5 -16    0.94    0.76
   3   5 -15    0.43    0.91
   3   5 -15    2.23    0.84
   3   5 -15    2.40    1.09
   3   5 -15    0.24    0.50
   3   5 -15    2.16    0.98
   3   5 -14   38.26    3.29
   3   5 -14   34.89    2.87
   3   5 -14   43.60    3.96
   3   5 -14   34.23    3.33
   3   5 -14   39.39    3.34
   3   5 -14   42.21    3.84
   3   5 -13   57.08    4.68
   3   5 -13   55.57    4.19
   3   5 -13   71.00    5.38
   3   5 -13   70.08    5.41
   3   5 -13   70.25    4.87
   3   5 -13   70.23    5.04
   3   5 -12  132.33    8.26
   3   5 -12  134.14    8.23
   3   5 -12  126.04    7.71
   3   5 -12  138.24    8.63
   3   5 -12  139.47    8.59
   3   5 -12  145.73    9.07
   3   5 -12  134.23    7.99
   3   5 -12  133.51    8.77
   3   5 -11    1.77    1.08
   3   5 -11    0.66    0.88
   3   5 -11    1.60    0.94
   3   5 -11    1.62    0.90
   3   5 -11    1.54    0.66
   3   5 -11    1.12    0.56
   3   5 -11    2.19    0.89
   3   5 -11    1.53    0.88
   3   5 -11    0.85    0.68
   3   5 -11    0.21    0.86
   3   5 -10   33.21    3.22
   3   5 -10   34.51    3.47
   3   5 -10   33.65    3.07
   3   5 -10   36.62    3.06
   3   5 -10   35.37    2.88
   3   5 -10   34.92    3.33
   3   5 -10   40.01    3.20
   3   5 -10   36.89    3.59
   3   5 -10   36.67    3.56
   3   5  -9   32.54    3.04
   3   5  -9   34.06    3.06
   3   5  -9   34.11    3.35
   3   5  -9   31.38    3.17
   3   5  -9   36.14    3.53
   3   5  -9   32.06    2.93
   3   5  -9   31.60    2.69
   3   5  -9   37.43    2.98
   3   5  -9   33.48    3.29
   3   5  -8   19.26    2.15
   3   5  -8   14.51    1.90
   3   5  -8   13.89    1.92
   3   5  -8   18.96    2.16
   3   5  -8   16.73    2.19
   3   5  -8   19.86    2.48
   3   5  -8   19.35    2.08
   3   5  -8   18.28    2.13
   3   5  -8   16.49    1.74
   3   5  -8   17.46    2.23
   3   5  -8   18.36    2.25
   3   5  -7   10.46    1.72
   3   5  -7   10.63    1.56
   3   5  -7    8.51    1.40
   3   5  -7    8.43    1.54
   3   5  -7   10.01    1.75
   3   5  -7    8.60    1.49
   3   5  -7    9.40    1.42
   3   5  -7   11.53    1.35
   3   5  -7   11.41    1.65
  -3  -5   6   63.12    4.30
   3   5  -6   66.29    4.31
   3   5  -6   69.07    4.18
  -3  -5   5   11.59    1.37
   3   5  -5   13.26    1.52
   3   5  -4   10.71    1.57
  -3  -5   4   10.24    1.21
  -3  -5   3  205.85   10.92
   3   5  -3  220.54   11.43
   3   5  -3  209.71   11.58
   3   5  -2  111.05    6.96
   3   5  -2  123.53    6.92
  -3  -5   2  115.17    6.46
   3   5  -1   87.08    5.49
   3   5  -1   85.21    5.54
  -3  -5   1   92.38    5.16
  -3  -5   0   11.68    1.29
   3   5   0   12.12    1.53
  -3  -5  -1  227.78   11.69
  -3  -5  -2  391.14   19.47
  -3  -5  -2  420.82   19.91
  -3  -5  -3  155.95    8.19
  -3  -5  -3  147.50    7.80
   3   5   3  157.92    8.61
  -3  -5  -4    9.41    0.99
   3   5   4    8.69    1.33
  -3  -5  -5   61.57    3.52
  -3  -5  -5   58.42    3.77
   3   5   5   57.71    4.10
  -3  -5  -6   88.79    5.05
  -3  -5  -6   93.15    5.30
   3   5   6   95.12    5.81
  -3  -5  -7   67.40    4.24
   3   5   7   72.88    4.80
  -3  -5  -7   70.04    4.13
  -3  -5  -8    8.12    1.06
  -3  -5  -8    9.96    1.15
  -3  -5  -9  205.30   11.45
   3   5   9  226.27   12.17
  -3  -5  -9  243.01   11.73
  -3  -5  -9  234.64   11.65
  -3  -5 -10    6.73    1.09
  -3  -5 -10    8.21    1.05
  -3  -5 -10    7.72    1.03
   3   5  10    7.78    1.29
  -3  -5 -11   63.00    3.94
  -3  -5 -11   53.52    3.54
  -3  -5 -11   54.73    3.67
   3   5  12    0.46    0.68
  -3  -5 -12    1.59    0.66
  -3  -5 -12    0.66    0.51
  -3  -5 -13  236.32   12.47
   3   5  13  214.40   13.48
  -3  -5 -13  216.77   11.85
   3   5  14   71.38    6.20
  -3  -5 -14   72.89    4.86
  -3  -5 -14   70.44    5.08
  -3  -5 -14   62.19    4.58
   3   5  15   50.46    5.17
  -3  -5 -15   54.36    4.10
  -3  -5 -15   48.67    3.90
  -3  -5 -15   50.44    4.20
  -3  -5 -16   14.85    2.08
  -3  -5 -16   15.94    2.18
  -3  -5 -16   15.43    2.04
  -3  -5 -17    6.38    1.38
   3   5  17    8.00    2.10
  -3  -5 -17    5.69    1.45
  -3  -5 -17    7.51    1.52
  -3  -5 -18  118.08    7.43
  -3  -5 -18  108.06    7.26
  -3  -5 -19    1.72    0.80
  -3  -5 -19    1.04    0.78
  -3  -5 -20   76.35    5.29
  -3  -5 -20   80.40    5.30
  -3  -5 -20   82.20    6.61
  -3  -5 -21    1.19    0.66
  -3  -5 -21    1.17    0.64
  -3  -5 -21    0.82    0.89
  -3  -5 -22   11.85    1.33
  -3  -5 -22   13.17    1.87
  -3  -5 -23   35.75    2.84
   3   6 -18   41.09    2.52
   3   6 -18   28.40    2.04
   3   6 -17   18.59    1.59
   3   6 -17   13.86    1.61
   3   6 -17   19.83    1.84
   3   6 -16    6.16    1.25
   3   6 -16    6.64    1.07
   3   6 -16    5.09    1.05
   3   6 -15   17.29    1.97
   3   6 -15   18.50    2.18
   3   6 -15   20.97    2.31
   3   6 -15   20.41    2.06
   3   6 -15   16.77    1.82
   3   6 -14   27.58    2.84
   3   6 -14   26.28    2.62
   3   6 -14   25.42    2.57
   3   6 -14   27.42    2.53
   3   6 -14   28.33    2.90
   3   6 -14   22.88    2.70
   3   6 -13    2.05    1.13
   3   6 -13    4.46    1.42
   3   6 -13    3.07    1.05
   3   6 -13    3.88    1.09
   3   6 -13    2.03    1.02
   3   6 -12   29.18    3.03
   3   6 -12   25.16    2.40
   3   6 -12   31.18    3.20
   3   6 -12   28.66    2.76
   3   6 -12   31.57    3.20
   3   6 -12   29.50    3.14
   3   6 -11   44.46    3.79
   3   6 -11   46.88    4.10
   3   6 -11   38.94    3.59
   3   6 -11   36.21    3.22
   3   6 -11   37.12    3.11
   3   6 -11   46.71    4.04
   3   6 -11   42.33    3.51
   3   6 -11   42.56    3.90
   3   6 -10   12.79    1.91
   3   6 -10   10.60    1.87
   3   6 -10   15.10    2.06
   3   6 -10   12.83    2.06
   3   6 -10   12.93    1.76
   3   6 -10   12.68    1.62
   3   6 -10   11.71    1.58
   3   6 -10   14.47    1.92
   3   6 -10   14.86    2.26
   3   6 -10   13.74    2.05
   3   6  -9   16.43    2.08
   3   6  -9   17.27    2.22
   3   6  -9   14.64    1.72
   3   6  -9   13.89    1.65
   3   6  -9   15.44    2.13
   3   6  -9   16.84    2.23
   3   6  -9   14.19    1.91
   3   6  -9   15.14    2.31
   3   6  -9   15.18    1.99
   3   6  -8   15.65    1.94
   3   6  -8   15.63    2.07
   3   6  -8   16.31    2.10
   3   6  -8   14.37    1.90
   3   6  -8   13.70    1.67
   3   6  -8   14.86    2.09
   3   6  -8   16.61    2.33
   3   6  -8   13.40    1.61
   3   6  -8   13.56    1.95
   3   6  -8   13.27    1.98
   3   6  -7  195.64   10.78
   3   6  -7  197.35   11.09
   3   6  -7  183.04   11.03
   3   6  -7  190.80   10.59
   3   6  -7  200.91   11.32
   3   6  -7  198.20   11.35
   3   6  -7  188.96   10.39
   3   6  -7  210.27   11.33
   3   6  -7  217.48   11.94
   3   6  -6   30.74    2.52
   3   6  -6   27.77    2.73
   3   6  -6   28.79    2.89
   3   6  -6   28.43    2.71
   3   6  -6   29.27    2.63
   3   6  -6   26.35    2.74
   3   6  -6   29.12    2.53
   3   6  -6   30.33    2.82
   3   6  -5   44.33    3.70
   3   6  -5   49.70    3.85
  -3  -6   5   52.57    3.71
   3   6  -4   34.76    2.92
  -3  -6   4   29.11    2.51
   3   6  -4   27.88    2.85
  -3  -6   3   37.34    3.02
   3   6  -3   48.30    3.60
   3   6  -3   48.92    3.78
  -3  -6   2    1.14    0.57
   3   6  -2    1.46    0.80
   3   6  -2    0.27    0.54
   3   6  -1    0.97    0.73
  -3  -6   1   -0.09    0.48
   3   6  -1    0.40    0.50
   3   6   0  281.97   14.96
  -3  -6   0  282.47   14.41
  -3  -6  -1    6.68    1.05
  -3  -6  -2   38.32    2.80
  -3  -6  -3   28.17    2.09
  -3  -6  -3   31.90    2.43
   3   6   4   12.13    1.78
  -3  -6  -4   10.29    1.20
  -3  -6  -5  117.21    6.56
   3   6   5  115.30    7.20
  -3  -6  -5  111.70    6.36
  -3  -6  -6    5.17    1.01
   3   6   6    5.00    1.19
  -3  -6  -6    7.92    1.10
   3   6   7    5.57    1.30
  -3  -6  -7    6.39    1.06
  -3  -6  -7    7.57    1.13
  -3  -6  -8  215.54   11.08
   3   6   8  203.35   11.90
  -3  -6  -8  204.44   10.93
   3   6   9    0.91    0.78
  -3  -6  -9    0.80    0.58
  -3  -6  -9    0.39    0.57
  -3  -6  -9    0.59    0.39
  -3  -6 -10  347.66   17.16
  -3  -6 -10  352.98   17.27
  -3  -6 -10  316.97   16.88
  -3  -6 -11    7.29    1.09
  -3  -6 -11    6.88    1.13
   3   6  11    8.50    1.92
  -3  -6 -11    8.03    1.33
   3   6  11    5.93    1.37
  -3  -6 -12  246.38   14.05
   3   6  12  302.65   16.36
  -3  -6 -12  260.47   13.94
  -3  -6 -12  281.78   14.29
   3   6  13    0.62    1.09
  -3  -6 -13    0.74    0.63
  -3  -6 -13    0.42    0.64
   3   6  14  118.34    9.02
  -3  -6 -14  114.17    7.09
  -3  -6 -14  109.51    6.90
  -3  -6 -14  106.44    7.16
   3   6  15   21.87    3.54
  -3  -6 -15   17.69    2.35
  -3  -6 -15   17.71    2.22
  -3  -6 -15   20.71    2.40
  -3  -6 -16    2.48    0.97
   3   6  16    4.24    1.77
  -3  -6 -16    3.71    1.17
  -3  -6 -16    4.10    1.12
   3   6  17  196.63   12.67
  -3  -6 -17  197.49   10.86
  -3  -6 -17  181.78   10.55
  -3  -6 -17  170.99   10.66
  -3  -6 -18    7.44    1.43
   3   6  18   10.39    2.11
  -3  -6 -18    9.08    1.54
  -3  -6 -19  180.45   10.42
  -3  -6 -19  194.44   10.66
  -3  -6 -20    0.59    0.53
  -3  -6 -20    0.67    0.90
  -3  -6 -21   10.10    1.31
  -3  -6 -21   11.23    1.96
  -3  -6 -22  101.26    6.57
  -3  -6 -23    0.56    0.51
   3   7 -17    1.88    0.63
   3   7 -17    1.38    0.49
   3   7 -16    2.11    0.64
   3   7 -16    2.88    0.89
   3   7 -16    3.92    0.88
   3   7 -15   37.05    3.09
   3   7 -15   36.44    2.85
   3   7 -15   41.07    2.96
   3   7 -15   31.34    2.81
   3   7 -14   18.34    2.19
   3   7 -14   20.06    2.08
   3   7 -14   20.34    2.08
   3   7 -14   18.08    2.12
   3   7 -13    6.70    1.45
   3   7 -13    5.59    1.25
   3   7 -13    4.40    1.15
   3   7 -13    5.37    1.26
   3   7 -12   -0.15    0.91
   3   7 -12   -0.17    0.80
   3   7 -12   -0.37    0.72
   3   7 -12    1.14    0.82
   3   7 -11    2.87    1.06
   3   7 -11    2.44    1.00
   3   7 -11    3.27    1.20
   3   7 -11    1.90    0.98
   3   7 -11    2.23    0.96
   3   7 -10   47.59    3.90
   3   7 -10   42.36    3.94
   3   7 -10   51.60    4.23
   3   7 -10   52.27    4.58
   3   7 -10   45.85    3.71
   3   7 -10   55.73    4.13
   3   7 -10   46.25    4.03
   3   7  -9   24.39    2.50
   3   7  -9   23.29    2.75
   3   7  -9   23.82    2.64
   3   7  -9   21.50    2.48
   3   7  -9   21.73    2.65
   3   7  -9   27.40    2.68
   3   7  -9   31.28    3.32
   3   7  -9   26.14    2.81
   3   7  -8  243.91   13.28
   3   7  -8  247.13   13.89
   3   7  -8  251.91   13.75
   3   7  -8  239.60   13.77
   3   7  -8  262.26   14.65
   3   7  -8  251.73   14.14
   3   7  -8  243.66   13.79
   3   7  -7   17.75    2.03
   3   7  -7   19.15    2.43
   3   7  -7   21.48    2.44
   3   7  -7   24.74    2.68
   3   7  -7   22.42    2.79
   3   7  -7   17.69    2.27
   3   7  -6    5.58    1.03
   3   7  -6    3.77    1.12
   3   7  -6    5.04    1.07
   3   7  -6    7.36    1.38
   3   7  -6    5.69    1.22
   3   7  -5   33.30    2.59
   3   7  -5   33.76    3.24
   3   7  -5   32.66    3.09
  -3  -7   5   34.31    2.83
   3   7  -5   27.02    2.78
   3   7  -4   11.00    1.69
   3   7  -4   13.60    2.09
   3   7  -4   13.37    1.87
   3   7  -4   12.63    1.90
  -3  -7   4   12.01    1.56
   3   7  -4   11.56    1.60
  -3  -7   3   41.86    3.38
   3   7  -3   48.78    4.00
   3   7  -3   46.94    3.85
   3   7  -3   42.91    3.38
  -3  -7   2   61.20    4.25
   3   7  -2   57.05    4.54
   3   7  -2   61.06    4.69
  -3  -7   1   94.95    6.01
   3   7  -1  100.70    6.62
   3   7  -1   99.52    6.57
   3   7   0   48.17    4.05
  -3  -7   0   46.05    3.47
  -3  -7  -1    0.11    0.53
  -3  -7  -2   22.00    2.14
  -3  -7  -3   27.24    2.44
   3   7   4  283.44   15.72
  -3  -7  -5    2.70    0.84
   3   7   5    2.13    1.04
  -3  -7  -6  361.90   18.20
   3   7   6  348.95   19.52
  -3  -7  -6  371.10   18.54
  -3  -7  -7    6.89    1.22
   3   7   7    8.70    1.74
  -3  -7  -7    8.17    1.22
  -3  -7  -8   12.36    1.63
   3   7   8   10.09    1.95
  -3  -7  -8   11.14    1.50
   3   7   9   89.78    6.82
  -3  -7  -9   94.53    5.76
  -3  -7  -9   86.30    5.61
   3   7   9   94.28    6.80
  -3  -7 -10   68.42    4.68
   3   7  10   71.78    6.06
  -3  -7 -10   74.66    4.92
   3   7  10   76.52    5.94
   3   7  11  259.76   15.33
  -3  -7 -11  250.62   13.19
  -3  -7 -11  252.40   13.61
   3   7  12    0.29    0.93
  -3  -7 -12    0.09    0.43
  -3  -7 -12    0.14    0.86
  -3  -7 -12    0.98    0.55
  -3  -7 -13   44.16    3.64
   3   7  13   53.63    5.33
   3   7  14  101.26    7.89
  -3  -7 -14   84.73    5.88
  -3  -7 -15    2.74    1.13
   3   7  15    2.61    1.50
  -3  -7 -15    2.40    0.81
  -3  -7 -16  198.18   11.07
  -3  -7 -16  184.04   11.06
  -3  -7 -16  176.54   12.11
   3   7  17   16.60    2.74
  -3  -7 -17   13.15    1.79
  -3  -7 -17   10.45    2.09
   3   7  18   25.26    3.15
  -3  -7 -18   21.96    2.37
  -3  -7 -19   33.60    2.90
  -3  -7 -21   44.52    3.95
  -3  -7 -22    2.59    0.90
  -3  -7 -23   37.53    2.86
   3   8 -16   35.46    2.64
   3   8 -16   43.67    2.72
   3   8 -16   44.18    2.83
   3   8 -15   -0.53    0.50
   3   8 -15    0.60    0.60
   3   8 -14    6.64    1.17
   3   8 -14    5.92    1.20
   3   8 -13    0.90    0.64
   3   8 -13    0.41    0.58
   3   8 -13    1.18    0.83
   3   8 -12    2.35    1.01
   3   8 -12    3.53    1.12
   3   8 -12    4.44    1.18
   3   8 -12    2.09    0.85
   3   8 -12    3.22    1.02
   3   8 -11   25.26    2.51
   3   8 -11   28.10    2.90
   3   8 -11   27.64    2.63
   3   8 -11   23.50    2.87
   3   8 -11   22.38    2.51
   3   8 -10   62.07    4.53
   3   8 -10   65.31    4.64
   3   8 -10   75.57    5.32
   3   8 -10   72.17    5.52
   3   8 -10   55.30    4.58
   3   8  -9   37.29    3.20
   3   8  -9   40.54    3.81
   3   8  -9   44.66    4.23
   3   8  -9   41.87    3.39
   3   8  -9   37.53    3.45
   3   8  -8    9.63    1.52
   3   8  -8   10.93    2.00
   3   8  -8    8.82    1.61
   3   8  -8   10.21    2.08
   3   8  -8   12.64    1.88
   3   8  -8   10.98    1.85
   3   8  -8   11.50    1.66
   3   8  -8   11.27    1.77
   3   8  -7    2.93    0.90
   3   8  -7    3.80    1.03
   3   8  -7    2.92    1.46
   3   8  -7    1.58    0.79
   3   8  -7    0.99    0.80
   3   8  -7    2.77    1.20
   3   8  -7    1.71    0.99
   3   8  -7    3.05    1.11
   3   8  -6    1.56    0.76
   3   8  -6    0.57    1.04
   3   8  -6    1.75    0.75
   3   8  -6    0.94    0.70
   3   8  -5    0.72    0.72
   3   8  -5    1.84    1.00
   3   8  -5    0.40    0.59
   3   8  -5    0.69    0.72
   3   8  -4   51.78    4.52
   3   8  -4   56.86    4.78
   3   8  -4   52.41    4.50
   3   8  -4   53.86    4.56
   3   8  -4   61.18    4.86
   3   8  -4   56.99    5.03
  -3  -8   4   55.79    4.12
   3   8  -4   57.23    4.15
   3   8  -3   25.42    2.91
  -3  -8   3   26.51    2.58
   3   8  -3   24.74    2.85
   3   8  -3   27.01    3.00
   3   8  -3   30.78    3.27
   3   8  -3   30.25    3.17
   3   8  -2   56.43    4.82
   3   8  -2   56.78    4.69
   3   8  -2   51.37    4.23
   3   8  -2   55.69    4.66
   3   8  -2   60.15    4.83
  -3  -8   2   50.27    4.01
   3   8  -1    1.01    0.74
   3   8  -1    0.85    0.88
   3   8  -1    0.20    0.60
   3   8  -1    0.87    0.77
  -3  -8   1    0.68    0.73
   3   8   0   35.60    3.73
  -3  -8   0   42.52    3.41
   3   8   0   38.53    3.91
   3   8   0   44.42    3.97
   3   8   1  129.39    8.64
  -3  -8  -1  131.11    7.87
   3   8   1  130.51    8.69
  -3  -8  -2   -0.28    0.79
  -3  -8  -3  235.25   12.83
   3   8   4   26.30    3.14
   3   8   5  106.56    7.57
   3   8   6   53.35    4.73
   3   8   6   46.72    4.28
  -3  -8  -6   59.30    4.16
   3   8   6   51.07    4.67
   3   8   7    2.23    1.06
   3   8   7    3.26    1.16
  -3  -8  -7    4.95    1.14
   3   8   7    1.06    0.98
   3   8   8  269.62   15.84
   3   8   8  298.14   16.15
  -3  -8  -8  277.71   14.91
  -3  -8  -9    2.76    0.85
   3   8   9    3.11    1.22
   3   8   9    2.16    1.11
   3   8   9    2.04    1.05
   3   8  10  145.09    9.93
   3   8  10  167.31   10.46
  -3  -8 -10  158.00    9.06
   3   8  10  168.65   10.34
   3   8  11   20.31    2.86
  -3  -8 -11   13.94    1.85
   3   8  11   17.08    2.55
  -3  -8 -11   14.39    1.76
   3   8  12   30.33    3.72
  -3  -8 -12   26.52    2.52
  -3  -8 -12   26.37    2.46
   3   8  13  165.50   10.36
  -3  -8 -13  127.86    8.08
  -3  -8 -14    4.39    1.12
   3   8  14    4.13    1.69
   3   8  15  210.83   12.78
  -3  -8 -15  184.08   10.79
   3   8  16    6.24    1.94
  -3  -8 -16    4.79    1.12
  -3  -8 -16    6.01    1.61
   3   8  17   17.65    2.69
  -3  -8 -17   15.93    1.92
  -3  -8 -17   13.50    2.28
   3   8  18    1.55    1.05
  -3  -8 -18    1.78    1.04
   3   8  19   10.28    1.83
  -3  -8 -21    2.99    1.04
  -3  -8 -22   31.11    2.75
  -3  -8 -23    1.60    0.56
   3   9 -14    3.00    0.62
   3   9 -14    4.38    0.80
   3   9 -13    0.36    0.48
   3   9 -13    0.46    0.73
   3   9 -13    0.08    0.59
   3   9 -13    0.10    0.51
   3   9 -12   19.48    1.86
   3   9 -12   21.34    2.28
   3   9 -12   21.79    2.29
   3   9 -12   17.26    1.85
   3   9 -11    2.97    0.87
   3   9 -11    4.67    1.19
   3   9 -11    3.26    1.13
   3   9 -11    2.30    0.85
   3   9 -10   18.14    1.97
   3   9 -10   18.59    2.48
   3   9 -10   18.27    1.99
   3   9 -10   24.09    2.80
   3   9  -9   34.66    3.42
   3   9  -9   32.00    2.71
   3   9  -9   25.61    2.54
   3   9  -9   35.67    3.67
   3   9  -8   22.22    2.24
   3   9  -8   23.99    2.94
   3   9  -8   24.05    2.32
   3   9  -8   24.73    3.16
   3   9  -7    2.54    1.36
   3   9  -7    3.95    1.29
   3   9  -7    3.21    1.47
   3   9  -7    2.63    0.86
   3   9  -6    0.85    1.09
   3   9  -6    0.38    0.83
   3   9  -6    1.45    0.73
   3   9  -5   67.64    5.70
   3   9  -5   82.67    6.05
   3   9  -5   83.19    6.05
   3   9  -5   74.65    4.79
   3   9  -4    2.99    1.16
   3   9  -4    0.67    0.86
  -3  -9   4    2.34    0.84
   3   9  -4    2.68    1.09
   3   9  -4    1.15    1.00
   3   9  -4    1.94    1.24
   3   9  -3  116.85    7.94
   3   9  -3  105.54    7.26
   3   9  -3  103.93    7.70
   3   9  -3  121.79    7.96
   3   9  -3   97.78    7.63
  -3  -9   3  102.60    6.78
   3   9  -2   52.02    4.97
   3   9  -2   52.31    4.30
  -3  -9   2   54.67    4.17
   3   9  -2   56.18    5.12
   3   9  -2   57.81    5.02
   3   9  -2   54.79    5.14
  -3  -9   1    2.34    0.87
   3   9  -1    1.48    1.11
   3   9  -1    4.00    1.52
   3   9  -1    3.06    1.24
   3   9  -1    1.81    1.08
   3   9   0  176.75   11.79
  -3  -9   0  195.14   10.74
   3   9   0  197.96   11.98
   3   9   0  178.06   11.98
   3   9   0  184.93   12.06
   3   9   1    0.28    1.09
  -3  -9  -1    0.59    0.70
   3   9   1   -0.15    0.59
   3   9   1   -0.27    1.05
   3   9   1    0.51    0.95
   3   9   2  329.62   19.56
   3   9   2  303.76   17.63
   3   9   3    0.94    0.87
   3   9   3   -0.75    0.97
   3   9   3    1.24    1.10
  -3  -9  -3    2.09    0.94
   3   9   3    0.64    0.74
   3   9   4   60.06    5.21
   3   9   4   54.32    4.53
   3   9   4   68.89    5.54
  -3  -9  -4   61.18    4.55
   3   9   5   18.25    2.36
   3   9   5   19.95    2.80
   3   9   5   15.39    2.40
   3   9   6    0.74    0.88
  -3  -9  -6   -0.60    0.83
   3   9   6    0.24    1.03
   3   9   6   -0.45    0.93
   3   9   7  330.52   17.92
   3   9   7  287.16   17.28
  -3  -9  -7  329.42   16.93
   3   9   7  330.61   18.10
  -3  -9  -8    0.44    0.66
   3   9   8    1.57    1.06
   3   9   8    2.38    1.06
  -3  -9  -9  169.23    9.68
   3   9   9  174.07   10.79
   3   9   9  155.56   10.46
   3   9  10    0.47    1.03
  -3  -9 -10    1.68    0.83
   3   9  10    2.91    1.12
   3   9  10    2.61    1.16
   3   9  11   73.29    5.94
   3   9  11   87.86    6.52
  -3  -9 -11   68.93    5.12
   3   9  11   81.05    6.22
  -3  -9 -12  193.78   11.45
  -3  -9 -12  207.03   11.42
   3   9  13    3.55    1.50
  -3  -9 -13    3.48    0.95
  -3  -9 -14  183.22   10.76
   3   9  14  228.73   13.03
   3   9  15    4.66    1.65
  -3  -9 -15    2.83    0.89
   3   9  16   90.26    7.05
   3   9  17   18.96    2.69
  -3  -9 -17   19.84    2.64
   3   9  18   27.71    3.06
  -3  -9 -18   20.15    2.55
   3   9  19   20.00    2.36
  -3  -9 -21   86.20    5.71
  -3  -9 -22    3.37    0.83
   3  10 -14    0.11    0.42
   3  10 -13   18.99    1.72
   3  10 -13   11.65    1.14
   3  10 -12    4.26    1.09
   3  10 -12    4.58    0.94
   3  10 -12    4.93    0.79
   3  10 -11   55.88    4.04
   3  10 -11   46.64    3.24
   3  10 -11   53.34    4.08
   3  10 -10    5.05    1.39
   3  10 -10    5.24    1.34
   3  10 -10    3.70    0.83
   3  10  -9    1.55    1.04
   3  10  -9    1.32    0.92
   3  10  -9    0.95    0.61
   3  10  -8   96.79    6.51
   3  10  -8   87.86    5.39
   3  10  -8   89.66    7.00
   3  10  -7   10.22    1.88
   3  10  -7    7.31    1.57
   3  10  -7    7.93    1.97
   3  10  -7    8.32    1.23
   3  10  -6   16.43    2.28
   3  10  -6   11.65    2.09
   3  10  -5    6.81    1.59
   3  10  -5    8.03    1.72
   3  10  -4   77.58    6.44
   3  10  -4   86.18    5.87
   3  10  -4   76.30    6.28
   3  10  -4   64.54    6.28
   3  10  -4   82.95    7.12
   3  10  -3   68.62    6.19
   3  10  -3   66.27    5.14
  -3 -10   3   60.77    4.96
   3  10  -3   75.18    6.12
   3  10  -3   83.84    6.41
   3  10  -3   62.94    6.03
   3  10  -3   78.97    6.85
  -3 -10   2    2.40    0.98
   3  10  -2    0.31    1.04
   3  10  -2    5.01    1.23
   3  10  -2    1.68    1.13
   3  10  -2    2.37    1.40
   3  10  -2    3.11    1.34
   3  10  -1  125.09    8.80
  -3 -10   1  101.09    7.05
   3  10  -1  112.37    8.72
   3  10  -1  116.81    8.83
   3  10  -1  119.45    8.71
  -3 -10   0    5.60    1.23
   3  10   0    3.55    1.50
   3  10   0    4.50    1.66
   3  10   0    4.20    1.52
   3  10   1   78.46    6.48
   3  10   1   65.37    5.39
   3  10   1   85.76    7.28
  -3 -10  -1   84.50    5.67
   3  10   1   79.98    6.79
   3  10   1   81.33    7.36
   3  10   2   16.09    2.20
  -3 -10  -2   20.55    2.33
   3  10   2   17.67    3.29
   3  10   2   18.00    2.98
  -3 -10  -3   49.82    3.96
   3  10   3   47.76    5.38
   3  10   3   38.90    3.78
   3  10   4  110.37    7.92
   3  10   4   95.50    7.04
  -3 -10  -4  110.41    7.02
   3  10   4  116.99    8.85
   3  10   5    0.56    0.75
   3  10   5    0.48    0.85
   3  10   5    1.55    1.12
   3  10   6  285.02   15.80
   3  10   6  251.26   14.99
  -3 -10  -6  274.82   14.70
   3  10   6  261.26   15.76
   3  10   7    6.42    1.55
  -3 -10  -7    6.82    1.43
   3  10   7    7.13    1.80
   3  10   7    7.39    1.73
   3  10   8   55.24    4.93
  -3 -10  -8   55.49    4.44
   3  10   8   61.05    5.23
   3  10   8   57.35    5.26
  -3 -10  -9   11.65    1.84
   3  10   9   14.16    2.38
   3  10   9   11.61    2.22
  -3 -10 -10    9.48    1.66
   3  10  10   15.89    2.48
   3  10  10    9.32    1.99
   3  10  10   11.99    2.22
   3  10  11   77.06    5.98
   3  10  11   74.71    6.18
  -3 -10 -11   65.68    5.09
   3  10  11   67.21    5.86
   3  10  12   21.24    3.04
  -3 -10 -12   12.57    1.80
   3  10  13   94.38    7.39
   3  10  14    2.36    1.28
   3  10  15   78.43    6.41
   3  10  16   37.10    3.98
   3  10  17    1.70    1.00
  -3 -10 -17   -0.87    0.87
   3  10  18  162.85    9.01
  -3 -10 -18  119.81    8.18
   3  10  19    1.27    0.72
   3  10  21    2.70    0.84
   3  11 -12   12.09    1.24
   3  11 -11    0.41    0.48
   3  11 -11    0.33    0.58
   3  11 -10    1.01    0.73
   3  11 -10    0.46    0.88
   3  11  -9  157.66    8.70
   3  11  -9  141.74    9.39
   3  11  -8    7.16    1.36
   3  11  -8    4.19    1.60
   3  11  -7  120.79    7.32
   3  11  -7  112.38    8.50
   3  11  -6    3.46    1.09
   3  11  -5   64.58    4.66
   3  11  -5   54.76    5.19
   3  11  -4   31.46    4.07
   3  11  -4   40.54    3.50
   3  11  -4   45.23    5.19
   3  11  -3    1.48    1.15
   3  11  -3    1.38    0.79
   3  11  -3    1.29    0.88
   3  11  -3   -0.37    1.52
   3  11  -2   96.70    7.61
   3  11  -2   90.09    5.96
  -3 -11   2   83.56    6.30
   3  11  -2   77.76    7.48
   3  11  -2  109.54    8.73
   3  11  -2   99.87    7.72
  -3 -11   1    1.55    0.86
   3  11  -1    1.15    1.07
   3  11  -1    1.24    1.15
   3  11  -1    0.95    0.93
   3  11  -1    1.55    0.98
   3  11   0   38.98    4.41
   3  11   0   35.98    4.70
  -3 -11   0   34.79    3.52
   3  11   0   47.01    4.87
   3  11   0   35.06    4.44
   3  11   1   -0.34    1.25
   3  11   1    0.50    0.62
  -3 -11  -1    0.17    0.64
   3  11   1    0.29    0.80
   3  11   1    0.27    0.96
   3  11   1   -0.64    0.94
   3  11   2    5.07    1.30
  -3 -11  -2    6.79    1.49
   3  11   2    7.17    1.89
   3  11   2    8.90    2.09
   3  11   2    5.78    1.99
   3  11   2    5.61    1.81
   3  11   3  162.85   10.42
  -3 -11  -3  180.25   10.52
   3  11   3  192.93   12.57
   3  11   4    0.57    0.73
  -3 -11  -4   -0.17    0.78
   3  11   4    1.28    1.13
   3  11   4    0.26    1.04
   3  11   5  174.91   10.98
   3  11   5  173.89   11.14
   3  11   5  185.45   11.77
   3  11   6   16.48    2.38
   3  11   6   15.21    2.68
   3  11   6   17.69    2.73
  -3 -11  -6   12.46    2.07
   3  11   7  163.79   10.26
   3  11   7  144.43    9.53
  -3 -11  -7  146.15    9.19
   3  11   7  141.90   10.16
   3  11   8    5.38    1.55
  -3 -11  -8    6.62    1.45
   3  11   8    7.67    1.87
   3  11   8    6.66    1.83
  -3 -11  -9   11.52    1.80
   3  11   9    7.61    1.91
   3  11   9   11.44    2.24
   3  11  10   75.20    5.85
  -3 -11 -10   60.79    5.00
   3  11  10   60.03    5.68
   3  11  11    0.25    0.87
  -3 -11 -11    1.44    0.67
   3  11  11    0.23    0.84
   3  11  12   31.60    3.56
   3  11  12   36.37    4.01
   3  11  13   15.15    2.50
  -3 -11 -13    7.63    1.41
   3  11  14  101.71    7.58
   3  11  15   31.36    3.59
   3  11  16    0.83    1.04
   3  11  17   62.35    4.70
  -3 -11 -17   44.96    3.99
   3  11  18    4.28    1.11
  -3 -11 -18    2.03    0.81
   3  11  19   16.04    1.76
   3  11  20    0.10    0.49
   3  12 -10   28.95    1.93
   3  12 -10   24.01    2.23
   3  12  -9   13.39    1.33
   3  12  -9   12.29    1.81
   3  12  -8  156.78    8.44
   3  12  -8  157.94    9.79
   3  12  -7   25.00    2.19
   3  12  -7   27.95    3.37
   3  12  -6   73.08    4.67
   3  12  -5   44.40    3.35
   3  12  -4    0.42    0.66
   3  12  -4    0.45    0.83
   3  12  -4    1.82    1.51
   3  12  -3   74.11    6.46
   3  12  -3   85.96    5.29
  -3 -12   3   75.99    5.65
   3  12  -2    1.02    1.07
   3  12  -2    0.62    1.15
   3  12  -1   85.10    6.83
   3  12  -1   76.43    6.24
   3  12  -1   88.02    7.46
   3  12   0    0.49    0.66
   3  12   0    0.26    0.97
   3  12   1   16.95    2.19
  -3 -12  -1   17.09    2.35
   3  12   1   17.58    2.85
   3  12   1   16.48    2.79
   3  12   2   39.88    4.22
   3  12   2   29.31    3.16
  -3 -12  -2   32.17    3.44
   3  12   2   30.44    3.93
   3  12   2   38.40    4.36
   3  12   2   41.95    4.52
   3  12   3   -0.36    0.80
  -3 -12  -3    0.18    0.50
   3  12   3    1.44    1.11
   3  12   3    0.54    0.80
   3  12   4  119.44    8.32
   3  12   4   93.40    7.07
  -3 -12  -4   96.03    7.17
   3  12   4  119.84    8.46
   3  12   4  134.97    9.05
   3  12   5    4.52    1.33
   3  12   5    7.58    2.00
   3  12   5    5.88    1.73
   3  12   5    8.02    1.97
   3  12   6  116.43    8.17
   3  12   6  106.15    7.42
  -3 -12  -6   93.24    7.06
   3  12   6  109.91    8.24
   3  12   6  109.78    8.39
   3  12   7    6.37    1.59
   3  12   7    7.48    1.87
   3  12   7    6.75    1.88
  -3 -12  -7    5.04    1.33
   3  12   7    5.68    1.81
   3  12   8   83.80    7.00
   3  12   8   93.68    6.85
   3  12   8   95.50    7.51
   3  12   9   25.11    3.22
   3  12   9   26.26    3.19
   3  12  10    2.72    1.27
   3  12  11   71.05    5.86
   3  12  11   83.76    6.35
   3  12  12    2.04    1.19
  -3 -12 -12    1.69    0.79
   3  12  12    3.02    1.12
   3  12  13   51.80    4.28
  -3 -12 -13   25.79    2.75
   3  12  14  122.02    8.28
   3  12  15    3.87    1.25
   3  12  16   51.04    4.32
   3  12  17    2.95    0.96
  -3 -12 -17    2.97    0.81
   3  12  18   15.73    1.78
   3  12  19    3.92    0.97
   3  13  -8    0.57    0.47
   3  13  -7    0.85    0.65
   3  13  -4   48.37    4.47
   3  13  -3    0.44    1.01
  -3 -13   2   41.15    3.90
   3  13  -2   50.81    4.56
   3  13  -1   43.94    4.24
   3  13  -1   42.80    4.34
  -3 -13   1   34.71    3.40
   3  13   0    7.10    1.66
  -3 -13   0    4.19    1.32
   3  13   0    4.29    1.66
   3  13   1   14.45    2.47
   3  13   1   15.44    2.63
   3  13   2    0.29    0.53
   3  13   2   -0.23    0.94
   3  13   3   63.98    5.00
   3  13   3   72.62    5.80
   3  13   4    6.41    1.43
   3  13   4    8.54    1.95
   3  13   4    6.43    1.69
   3  13   5    1.20    1.00
   3  13   5    1.42    0.95
   3  13   5    0.95    1.18
   3  13   6   40.43    4.15
   3  13   6   34.69    3.59
   3  13   6   40.63    4.35
   3  13   7    3.08    1.24
   3  13   7    3.21    1.33
   3  13   7    2.21    1.32
   3  13   8   74.93    6.07
   3  13   8   75.72    5.85
   3  13   8   76.52    6.49
  -3 -13  -9    0.47    0.66
   3  13   9   -0.20    0.89
   3  13   9   -0.42    0.85
   3  13   9   -0.24    0.75
   3  13  10   73.81    6.15
  -3 -13 -10   62.60    5.13
  -3 -13 -11   13.41    2.03
   3  13  11   18.39    2.70
   3  13  11   19.55    2.47
  -3 -13 -12    2.11    0.72
   3  13  12    1.07    0.77
   3  13  12    2.09    1.24
   3  13  12    1.92    1.01
   3  13  13   11.47    1.93
   3  13  13    6.23    1.60
   3  13  14    8.07    1.59
   3  13  15   85.44    5.87
   3  13  16    0.75    0.66
  -3 -13 -16   -0.27    0.53
   3  13  17   20.91    2.11
   3  13  17   20.64    2.27
   3  13  18    9.41    1.35
   3  14  -6    0.06    0.32
   3  14  -4    0.34    0.56
   3  14  -3   26.04    2.67
   3  14  -2   20.70    2.44
  -3 -14   1    1.47    0.63
   3  14  -1    1.01    0.77
   3  14  -1    1.28    0.88
  -3 -14   0   17.88    2.21
   3  14   0   18.53    2.58
   3  14   0   23.80    2.70
  -3 -14  -1   -0.13    0.56
   3  14   1    0.53    0.62
   3  14   1    0.17    0.72
   3  14   2   19.86    2.50
  -3 -14  -2   15.45    2.00
   3  14   2   14.96    2.25
  -3 -14  -3    5.20    1.23
   3  14   3    3.43    1.27
  -3 -14  -4    4.99    1.19
   3  14   4    2.16    1.03
   3  14   4    3.71    1.00
   3  14   5   61.58    4.82
   3  14   5   58.93    4.21
  -3 -14  -5   58.92    4.32
   3  14   6    0.65    0.71
   3  14   6   -0.19    0.80
   3  14   6    0.44    0.68
   3  14   6    0.88    0.63
   3  14   7   43.21    3.82
   3  14   7   39.83    3.33
   3  14   7   39.93    3.59
  -3 -14  -7   38.60    3.29
   3  14   8    1.56    0.84
   3  14   8    0.90    0.90
   3  14   8    0.35    0.58
  -3 -14  -8    0.28    0.63
   3  14   9   39.39    3.53
   3  14   9   38.17    3.35
   3  14   9   32.70    3.35
   3  14  10    4.12    1.21
  -3 -14 -10    3.75    0.99
   3  14  10    3.87    1.19
   3  14  10    6.72    1.39
   3  14  11   11.24    1.59
   3  14  11    7.86    1.64
  -3 -14 -11    7.55    1.33
   3  14  12   40.59    3.70
   3  14  13    1.19    0.78
   3  14  13    1.08    0.72
   3  14  14   36.53    2.90
   3  14  14   24.13    2.60
   3  14  15    0.85    0.53
   3  14  15    0.49    0.45
   3  15  -2    0.21    0.39
   3  15  -1   16.76    1.78
   3  15   0    3.30    0.82
   3  15   0    3.98    0.91
   3  15   1   10.81    1.47
   3  15   1   13.11    1.71
   3  15   2    1.45    0.69
   3  15   2   -0.20    0.47
   3  15   3    9.64    1.54
   3  15   3    6.01    1.15
  -3 -15  -4   13.61    1.76
   3  15   4    8.73    1.38
  -3 -15  -5    0.56    0.49
   3  15   5    1.65    0.81
   3  15   5    0.45    0.53
   3  15   6    6.04    1.21
   3  15   6   27.02    2.57
  -3 -15  -7   -0.11    0.52
   3  15   7    1.46    0.62
   3  15   7    0.92    0.79
   3  15   8   28.86    2.62
   3  15   8   35.41    3.02
   3  15   9   21.37    2.22
   3  15   9   21.54    2.13
   3  15  10   -0.20    0.47
   3  15  11   16.31    1.82
  -4  12   5   18.18    1.56
  -4  12   4    0.58    0.36
  -4  12   4    0.91    0.40
  -4  12   3   22.44    1.91
  -4  12   3   20.48    1.74
  -4  12   2   -0.12    0.35
  -4  12   2   -0.21    0.42
  -4  12   0    2.37    0.54
  -4  12   0    2.98    0.67
   4 -11 -10    0.47    0.36
   4 -11  -9   34.31    2.67
  -4  11   8    4.20    0.78
  -4  11   8    3.90    0.70
   4 -11  -8    4.41    0.88
  -4  11   7    4.22    0.84
   4 -11  -7    4.16    0.85
  -4  11   7    3.83    0.82
  -4  11   6   38.27    2.97
  -4  11   6   36.33    2.83
  -4  11   5    1.75    0.67
  -4  11   4   89.29    5.70
  -4  11   3    0.36    0.58
  -4  11   2   15.32    1.85
   4 -11  -2   11.49    1.22
   4 -11  -1    9.82    1.13
   4 -11   0    2.63    0.65
  -4  11  -1  103.65    6.51
   4 -11   1  105.44    5.88
   4 -11   1  117.58    6.45
   4 -11   2   -0.09    0.53
  -4  11  -2   -0.31    0.52
  -4  11  -3   42.41    3.36
   4 -11   3   55.36    3.43
   4 -11   4    0.73    0.46
  -4  11  -4    1.08    0.46
   4 -11   5    7.39    0.96
   4 -11   6   12.14    1.19
   4 -10 -12   42.94    3.25
   4 -10 -11    4.19    1.00
   4 -10 -10   20.60    2.29
  -4  10   9    9.40    1.26
   4 -10  -9    9.45    1.53
  -4  10   8   11.63    1.45
   4 -10  -8   11.04    1.67
  -4  10   8    8.82    1.37
  -4  10   7   39.55    3.31
   4 -10  -7   40.46    3.49
   4 -10  -6   -0.30    0.62
  -4  10   6    0.97    0.79
   4 -10  -5   66.03    4.36
  -4  10   5   77.81    5.18
   4 -10  -5   69.51    5.02
   4 -10  -4   -1.01    1.01
   4 -10  -4    0.14    0.60
   4 -10  -4   -0.81    0.64
  -4  10   4    0.91    0.81
   4 -10  -3  124.14    7.22
  -4  10   3  111.03    7.19
   4 -10  -3  104.35    6.41
   4 -10  -2   94.12    5.89
  -4  10   2  100.29    6.64
   4 -10  -2  101.53    7.17
   4 -10  -2  104.98    6.52
   4 -10  -1    9.30    1.91
  -4  10   1    8.30    1.57
   4 -10   0  101.47    7.26
   4 -10   1    3.47    1.21
  -4  10  -1    2.57    0.92
  -4  10  -2   34.28    3.26
   4 -10   2   38.91    3.09
   4 -10   3    8.47    1.33
  -4  10  -3    7.30    1.43
   4 -10   4    2.09    0.71
  -4  10  -4    0.25    0.56
  -4  10  -5   64.11    4.58
   4 -10   5   72.16    4.50
   4 -10   6   12.60    1.45
   4 -10   7   31.61    2.38
   4 -10   8    0.18    0.33
   4 -10   9    0.58    0.30
  -4  10  -9   -0.39    0.50
   4  -9 -15   29.49    2.39
   4  -9 -14    0.32    0.47
   4  -9 -13   32.35    2.76
   4  -9 -12    0.12    0.55
   4  -9 -11   82.47    5.44
   4  -9 -11   58.70    4.74
  -4   9  10   42.58    3.34
   4  -9 -10   45.26    3.81
  -4   9   9    1.64    0.76
   4  -9  -9    0.37    0.85
  -4   9   9    0.84    0.64
  -4   9   8  138.19    8.18
   4  -9  -8  131.68    8.64
   4  -9  -7   -0.19    0.82
   4  -9  -7    0.73    0.53
  -4   9   7    0.15    0.61
  -4   9   6   43.73    3.75
   4  -9  -6   41.48    3.24
   4  -9  -6   36.66    3.88
   4  -9  -5    3.50    1.36
   4  -9  -5    2.73    0.88
  -4   9   5    3.71    1.14
   4  -9  -4    2.36    0.89
   4  -9  -4    3.64    1.27
   4  -9  -4    2.54    0.88
  -4   9   4    2.25    1.06
  -4   9   3   71.24    5.54
   4  -9  -3   79.91    5.11
   4  -9  -3   78.44    5.48
   4  -9  -2   -0.46    0.70
  -4   9   2    0.71    0.71
  -4   9   1  129.15    8.20
   4  -9  -1  122.99    7.80
   4  -9  -1  129.60    8.99
   4  -9   0    0.51    0.95
  -4   9  -1  104.58    7.00
   4  -9   1  104.79    7.84
   4  -9   2    0.25    1.06
   4  -9   2    0.87    0.76
  -4   9  -2    1.20    0.85
   4  -9   3    1.13    0.77
   4  -9   3    1.99    1.21
  -4   9  -3    1.99    0.95
   4  -9   4   73.77    4.99
  -4   9  -4   63.96    5.03
   4  -9   5    7.06    1.34
  -4   9  -5    7.25    1.16
  -4   9  -5    7.26    1.38
  -4   9  -6   62.17    4.55
  -4   9  -6   63.64    4.04
   4  -9   6   62.45    4.43
   4  -9   7    1.56    0.69
  -4   9  -7    1.44    0.59
  -4   9  -8   28.71    2.25
   4  -9   8   30.38    2.54
  -4   9  -9   19.07    1.66
   4  -9   9   18.79    1.81
   4  -9  10    1.21    0.45
  -4   9 -10    1.73    0.86
  -4   9 -10    1.48    0.48
  -4   9 -11   41.10    2.45
   4  -9  11   36.71    2.45
  -4   9 -12    0.40    0.43
   4  -8 -16   35.06    2.81
   4  -8 -15    1.42    0.65
   4  -8 -15    2.33    0.81
   4  -8 -14  105.78    6.18
   4  -8 -14   72.76    5.51
   4  -8 -13    1.51    0.75
   4  -8 -12   16.76    2.28
   4  -8 -11    9.68    1.77
   4  -8 -10    1.07    1.01
  -4   8  10    0.59    0.57
  -4   8   9   92.03    6.04
   4  -8  -9   91.29    6.79
   4  -8  -8   -0.22    1.15
   4  -8  -8    1.09    0.70
  -4   8   8    0.31    0.60
   4  -8  -7  114.21    8.24
  -4   8   7  119.09    7.68
   4  -8  -7  121.73    7.22
   4  -8  -6    1.02    0.71
   4  -8  -6    0.49    0.86
  -4   8   6    0.69    0.72
   4  -8  -5    2.09    0.94
   4  -8  -5    2.04    0.80
   4  -8  -5    2.04    1.07
   4  -8  -5    2.18    1.22
  -4   8   5    1.94    0.93
   4  -8  -4   40.04    4.20
   4  -8  -4   35.38    3.36
  -4   8   4   38.24    3.63
  -4   8   4   39.82    3.68
   4  -8  -4   41.41    3.25
   4  -8  -4   32.05    4.04
  -4   8   3    0.18    0.75
   4  -8  -3   -0.31    0.65
  -4   8   3    0.54    0.53
   4  -8  -3    0.29    0.85
  -4   8   2   54.26    4.46
  -4   8   2   43.97    4.19
   4  -8  -2   52.06    4.14
  -4   8   1    1.28    1.00
   4  -8  -1    0.63    0.81
   4  -8  -1   -0.30    0.88
   4  -8  -1   -0.28    1.03
   4  -8   0   26.45    3.78
   4  -8   0   32.88    4.04
   4  -8   0   37.24    3.32
   4  -8   1   12.10    2.49
   4  -8   1   12.68    2.50
  -4   8  -1   12.08    1.91
  -4   8  -2    0.36    0.75
   4  -8   2    0.29    1.17
   4  -8   2    0.31    0.86
  -4   8  -2    0.54    0.63
   4  -8   3   20.44    3.27
   4  -8   3   24.63    3.39
  -4   8  -3   20.56    2.47
  -4   8  -3   14.69    1.92
   4  -8   3   21.37    2.50
   4  -8   4    5.30    1.40
   4  -8   4    4.18    1.58
  -4   8  -4    3.90    1.07
  -4   8  -4    6.06    1.34
   4  -8   5    7.15    1.90
   4  -8   5    6.62    1.43
  -4   8  -5    4.82    1.15
  -4   8  -5    8.03    1.52
   4  -8   6   -0.17    0.72
  -4   8  -6    0.49    0.62
  -4   8  -6    0.48    0.61
   4  -8   7    1.41    0.88
  -4   8  -7    1.61    0.77
  -4   8  -7    2.18    0.85
  -4   8  -8   30.56    2.60
   4  -8   8   25.10    2.66
   4  -8   9    1.36    0.73
  -4   8  -9    1.42    0.82
  -4   8 -10  152.86    8.30
   4  -8  10  141.68    8.38
   4  -8  11   26.84    2.31
  -4   8 -11   29.73    3.36
  -4   8 -11   27.62    2.35
  -4   8 -12    7.91    1.59
  -4   8 -12    8.31    1.10
   4  -8  12    7.40    1.00
   4  -8  13    3.30    0.55
  -4   8 -13    3.49    0.98
  -4   8 -13    3.51    0.74
  -4   8 -14    0.84    0.35
   4  -7 -17   47.62    3.13
   4  -7 -17   30.65    2.77
   4  -7 -16    0.47    0.57
   4  -7 -16    0.64    0.71
   4  -7 -15   23.15    2.57
   4  -7 -15   19.35    2.29
   4  -7 -14    1.03    0.86
   4  -7 -14    1.49    0.96
   4  -7 -13   19.64    2.69
   4  -7 -13   17.61    2.47
   4  -7 -12   43.28    4.16
   4  -7 -11    0.96    0.74
   4  -7 -11   -0.43    0.82
   4  -7 -10  160.74   10.50
   4  -7 -10  161.06    9.23
   4  -7  -9    1.21    1.21
   4  -7  -9    1.20    0.78
  -4   7   9    2.88    0.94
  -4   7   8   37.64    3.34
   4  -7  -8   43.95    4.19
   4  -7  -8   35.08    3.04
  -4   7   7    4.26    1.19
   4  -7  -7    5.01    1.47
   4  -7  -7    3.52    1.44
   4  -7  -7    3.78    1.11
  -4   7   7    5.06    1.22
   4  -7  -6   58.50    5.26
   4  -7  -6   46.10    4.99
   4  -7  -6   60.58    4.26
  -4   7   6   54.39    4.50
  -4   7   6   61.14    4.67
   4  -7  -6   57.79    4.47
   4  -7  -5    2.41    0.95
  -4   7   5    2.07    0.88
   4  -7  -5    1.82    1.09
  -4   7   5    2.72    0.95
   4  -7  -5    3.12    0.94
   4  -7  -5   -0.27    0.81
   4  -7  -4    1.04    0.76
   4  -7  -4    1.87    1.07
  -4   7   4    1.21    0.77
   4  -7  -4    1.41    1.09
  -4   7   3  130.75    8.52
   4  -7  -3  136.85    9.83
   4  -7  -3  156.27    9.97
   4  -7  -3  134.13    8.24
   4  -7  -2    0.76    0.68
  -4   7   2    0.17    0.70
   4  -7  -1   32.20    3.94
  -4   7   1   32.03    3.17
   4  -7  -1   33.64    4.14
   4  -7  -1   32.23    3.13
   4  -7   0   82.52    6.55
   4  -7   0   71.18    6.46
   4  -7   0   61.84    5.00
   4  -7   1   62.42    5.67
   4  -7   1   49.04    4.45
   4  -7   1   61.79    5.87
   4  -7   2   41.63    4.48
   4  -7   2   34.81    4.29
  -4   7  -2   26.41    2.98
   4  -7   3    1.93    1.39
  -4   7  -3    1.21    0.70
   4  -7   3    1.03    1.09
  -4   7  -4   77.40    5.70
   4  -7   4   84.21    7.53
  -4   7  -4   72.00    5.63
   4  -7   4   78.91    5.67
  -4   7  -5    0.51    0.76
   4  -7   5   -0.17    0.70
   4  -7   5   -0.32    1.02
  -4   7  -5   -0.17    0.59
   4  -7   5   -0.70    1.23
  -4   7  -6    3.47    1.08
   4  -7   6    2.30    0.98
   4  -7   6    2.38    1.33
   4  -7   6    3.90    1.36
  -4   7  -6    1.48    0.83
  -4   7  -6    3.71    1.07
   4  -7   7   14.75    2.00
  -4   7  -7   17.43    2.07
  -4   7  -7   12.05    1.89
   4  -7   8   30.48    2.86
  -4   7  -8   30.26    2.85
   4  -7   9   45.33    3.71
  -4   7  -9   44.48    3.74
  -4   7 -10   16.22    2.04
   4  -7  10   14.17    1.85
  -4   7 -11    0.28    0.55
   4  -7  11    0.88    0.64
  -4   7 -11    0.13    0.73
  -4   7 -12    3.07    0.84
   4  -7  12    4.69    0.99
  -4   7 -12    4.76    1.45
  -4   7 -12    5.43    1.09
  -4   7 -13    3.54    0.78
   4  -7  13    4.27    0.87
  -4   7 -13    5.69    1.42
  -4   7 -14   20.57    1.79
  -4   7 -14   24.66    2.40
  -4   7 -14   27.87    2.22
  -4   7 -14   28.22    2.62
   4  -7  14   23.44    1.88
  -4   7 -15   15.10    1.26
  -4   7 -15   15.17    1.52
  -4   7 -15   18.93    1.60
  -4   7 -16   28.72    1.98
   4  -6 -18   54.14    3.48
   4  -6 -18   42.91    3.40
   4  -6 -17    0.24    0.71
   4  -6 -17    0.36    0.66
   4  -6 -16   79.36    5.60
   4  -6 -16   75.72    5.52
   4  -6 -15   31.13    3.17
   4  -6 -15   20.61    2.72
   4  -6 -14    2.06    0.76
   4  -6 -14    3.54    1.23
   4  -6 -14    2.19    1.20
   4  -6 -13    2.16    1.23
   4  -6 -13    3.86    0.97
   4  -6 -13    2.26    1.16
   4  -6 -12   33.26    2.88
   4  -6 -12   39.49    4.13
   4  -6 -12   33.44    2.97
   4  -6 -12   36.15    3.85
   4  -6 -11  120.92    7.22
   4  -6 -11  128.60    7.60
   4  -6 -11  113.10    8.40
   4  -6 -10    1.68    0.80
   4  -6 -10    4.06    1.07
   4  -6  -9   23.70    2.26
   4  -6  -9   23.42    2.47
   4  -6  -9   26.16    3.36
  -4   6   8  100.59    6.46
   4  -6  -8  101.74    7.43
   4  -6  -8   99.32    5.92
   4  -6  -8   79.86    6.93
   4  -6  -8  102.13    6.37
   4  -6  -7   21.20    2.08
  -4   6   7   20.38    2.46
   4  -6  -7   22.86    3.06
   4  -6  -7   23.21    2.39
   4  -6  -7   28.09    3.23
   4  -6  -6    7.94    1.37
   4  -6  -6    9.91    2.02
   4  -6  -6    5.47    1.68
  -4   6   6    7.10    1.43
   4  -6  -6    8.13    1.38
   4  -6  -5   18.10    2.76
  -4   6   5   14.53    2.01
   4  -6  -5   15.29    1.87
   4  -6  -5   14.19    1.87
   4  -6  -5   17.18    2.74
  -4   6   4   43.58    3.84
   4  -6  -4   45.14    4.74
   4  -6  -4   53.93    4.88
   4  -6  -4   47.32    3.67
   4  -6  -3    0.14    0.50
  -4   6   3    0.33    0.64
   4  -6  -3    0.28    0.89
   4  -6  -3   -0.27    1.11
   4  -6  -2    5.54    1.19
  -4   6   2    5.37    1.22
  -4   6   1   43.56    3.86
   4  -6  -1   51.53    4.93
   4  -6  -1   44.98    3.82
   4  -6   0    2.09    0.88
   4  -6   0    2.01    1.28
   4  -6   0   -0.31    1.08
   4  -6   1  168.87   11.54
   4  -6   1  179.62   11.43
   4  -6   1  156.56    9.59
   4  -6   2   32.54    3.94
   4  -6   2   22.97    3.66
  -4   6  -2   23.80    2.67
   4  -6   2   21.19    2.48
   4  -6   3  186.24   11.61
   4  -6   3  178.51   11.74
  -4   6  -3  149.63    9.65
   4  -6   4   16.37    2.04
   4  -6   4   12.99    2.54
   4  -6   4   10.80    2.53
  -4   6  -4   11.97    1.88
   4  -6   5   57.50    4.48
   4  -6   5   60.46    5.53
  -4   6  -5   55.50    4.47
   4  -6   5   63.17    5.88
   4  -6   6  113.76    8.03
  -4   6  -6   93.97    6.69
   4  -6   6  113.26    8.32
  -4   6  -7   30.37    3.10
  -4   6  -7   35.25    3.21
   4  -6   7   33.65    3.89
  -4   6  -8   56.10    4.68
  -4   6  -8   79.32    5.36
  -4   6  -9   10.50    1.80
  -4   6 -10   89.00    6.24
  -4   6 -11   29.17    3.07
   4  -6  12   22.95    2.37
  -4   6 -12   25.29    2.72
   4  -6  13   18.70    2.04
  -4   6 -13   21.55    2.14
  -4   6 -13   18.35    2.54
  -4   6 -13   24.92    2.53
  -4   6 -14   22.86    2.63
  -4   6 -14   24.03    2.16
  -4   6 -14   20.78    2.33
  -4   6 -14   23.52    2.48
   4  -6  14   23.12    2.11
  -4   6 -15   30.20    2.35
  -4   6 -15   27.15    2.46
  -4   6 -15   28.11    2.70
  -4   6 -15   30.51    2.66
   4  -6  15   27.93    2.22
  -4   6 -16   10.74    1.19
  -4   6 -16    9.34    1.34
  -4   6 -17    3.48    0.62
   4  -5 -19   12.20    1.44
   4  -5 -18    2.14    0.78
   4  -5 -18    2.21    0.79
   4  -5 -17   25.75    2.77
   4  -5 -17   31.70    2.94
   4  -5 -16    3.95    1.36
   4  -5 -16    5.64    1.47
   4  -5 -15   -0.44    0.93
   4  -5 -15    0.23    0.60
   4  -5 -15   -0.66    1.03
   4  -5 -14    9.79    1.50
   4  -5 -14    8.64    1.46
   4  -5 -14   11.24    2.31
   4  -5 -14    4.85    1.65
   4  -5 -13   11.03    1.62
   4  -5 -13    8.19    1.52
   4  -5 -13   13.47    2.42
   4  -5 -13    7.55    1.93
   4  -5 -12    3.66    1.65
   4  -5 -12    5.37    1.22
   4  -5 -12    8.28    1.95
   4  -5 -12    7.72    1.35
   4  -5 -11   -0.13    0.67
   4  -5 -11   -0.46    0.87
   4  -5 -11    0.53    0.99
   4  -5 -10    4.57    1.10
   4  -5 -10    5.08    1.17
   4  -5 -10    4.93    1.60
   4  -5  -9   70.27    4.50
   4  -5  -9   58.12    5.63
   4  -5  -9   62.67    4.72
   4  -5  -8   -0.26    1.01
   4  -5  -8    1.27    0.74
   4  -5  -8   -0.69    0.89
   4  -5  -8   -0.21    0.71
   4  -5  -7  133.49    7.52
   4  -5  -7  133.28    8.97
   4  -5  -7  121.17    8.89
  -4   5   7  126.50    7.96
   4  -5  -7  141.98    8.01
   4  -5  -6   22.66    3.01
   4  -5  -6   18.59    1.86
   4  -5  -6   18.25    2.05
   4  -5  -6   24.61    3.16
  -4   5   6   20.46    2.29
   4  -5  -6   19.81    2.12
   4  -5  -5   69.17    4.59
   4  -5  -5   83.43    6.45
  -4   5   5   79.16    5.44
   4  -5  -5   86.48    6.43
   4  -5  -5   78.28    5.02
   4  -5  -5   70.13    4.87
   4  -5  -4   -0.25    0.94
   4  -5  -4    0.57    0.54
   4  -5  -4    0.98    0.55
   4  -5  -4    2.12    1.22
  -4   5   4    0.95    0.81
   4  -5  -3   45.17    4.57
   4  -5  -3   47.61    4.50
  -4   5   3   38.11    3.48
   4  -5  -3   34.53    3.07
  -4   5   2   69.40    5.05
   4  -5  -2   64.17    4.67
   4  -5  -1    7.75    1.37
  -4   5   1    9.64    1.58
   4  -5   0  142.22    9.41
   4  -5   0  135.92    9.59
   4  -5   0  128.03    7.85
   4  -5   1   60.91    4.49
   4  -5   1   69.62    5.77
   4  -5   1   70.49    6.05
  -4   5  -2    6.93    1.39
   4  -5   2    7.48    1.32
   4  -5   2    7.13    1.78
   4  -5   2    7.37    1.83
  -4   5  -3    0.16    0.62
   4  -5   3    0.75    1.11
   4  -5   3    0.53    1.07
   4  -5   4   95.49    6.92
   4  -5   4   82.59    6.82
  -4   5  -4   89.26    6.05
  -4   5  -5  111.53    7.21
   4  -5   5  113.13    8.18
   4  -5   5  116.99    8.08
   4  -5   6   94.16    6.60
   4  -5   6   87.63    6.65
   4  -5   6   74.52    5.36
  -4   5  -6   82.03    5.63
  -4   5  -7  258.22   13.96
   4  -5   7  275.45   15.15
   4  -5   7  244.74   13.86
  -4   5  -8   22.18    2.42
   4  -5   8   24.58    2.52
   4  -5   9    0.15    0.67
   4  -5  10    0.44    0.61
  -4   5 -10   -1.62    1.15
  -4   5 -11   49.52    4.25
   4  -5  11   34.89    3.24
  -4   5 -12  204.83   10.98
   4  -5  12  155.05    9.67
  -4   5 -13  195.74   11.48
  -4   5 -13  190.70   11.76
  -4   5 -14   19.84    2.19
  -4   5 -14   13.25    2.12
   4  -5  15   13.78    1.59
  -4   5 -15   13.24    1.73
  -4   5 -15   11.77    1.64
  -4   5 -15   11.56    1.82
  -4   5 -16    2.72    0.89
   4  -5  16    3.66    0.73
  -4   5 -16    1.59    0.79
  -4   5 -17    3.29    0.80
  -4   5 -17    2.02    0.66
  -4   5 -17    1.85    0.71
  -4   5 -18   18.64    1.64
  -4   5 -18   18.03    1.61
   4  -4 -19    0.47    0.49
   4  -4 -19    0.15    0.30
   4  -4 -18   13.77    1.84
   4  -4 -18   17.59    2.09
   4  -4 -17    6.90    1.45
   4  -4 -17    6.35    1.48
   4  -4 -16   -0.36    0.76
   4  -4 -16   -0.43    1.02
   4  -4 -16   -0.22    1.02
   4  -4 -15   51.59    3.83
   4  -4 -15   42.61    3.58
   4  -4 -15   52.62    4.90
   4  -4 -15   48.70    4.79
   4  -4 -14    4.85    1.78
   4  -4 -14    4.31    1.10
   4  -4 -14    4.78    1.64
   4  -4 -14    3.85    1.07
   4  -4 -13    7.66    2.19
   4  -4 -13    6.91    1.45
   4  -4 -13    7.16    1.97
   4  -4 -13    8.34    1.49
   4  -4 -12    1.59    1.42
   4  -4 -12    1.64    0.91
   4  -4 -12    1.23    0.86
   4  -4 -12    1.22    1.13
   4  -4 -11  115.32    7.05
   4  -4 -11  117.19    7.43
   4  -4 -11  118.48    9.02
   4  -4 -11  108.84    8.72
   4  -4 -10   43.54    3.45
   4  -4 -10   45.70    3.89
   4  -4 -10   44.52    4.78
   4  -4  -9   25.48    2.37
   4  -4  -9   24.34    2.63
  -4   4   8   75.24    4.98
   4  -4  -8   65.94    5.80
   4  -4  -8   75.64    4.84
   4  -4  -8   71.45    6.33
   4  -4  -8   75.99    5.18
   4  -4  -7   60.17    3.91
   4  -4  -7   50.83    5.11
   4  -4  -7   52.06    5.04
  -4   4   7   55.59    4.18
   4  -4  -7   60.75    4.24
   4  -4  -6   99.89    6.00
   4  -4  -6  110.39    6.42
   4  -4  -6  109.74    7.77
   4  -4  -6  109.45    7.69
  -4   4   6   93.14    6.42
  -4   4   5    3.04    0.88
   4  -4  -5    4.21    1.44
   4  -4  -5    2.37    0.70
   4  -4  -5    1.81    1.19
   4  -4  -5    3.70    0.90
   4  -4  -4    7.87    1.12
   4  -4  -4    8.39    1.85
  -4   4   4    7.93    1.35
   4  -4  -4    5.81    1.75
   4  -4  -3   42.47    4.11
   4  -4  -3   39.70    4.11
  -4   4   3   38.19    3.20
   4  -4  -2   14.60    2.34
   4  -4  -2   16.41    2.52
  -4   4   2   13.65    1.74
  -4   4   1   59.51    4.23
   4  -4   0   52.34    4.64
   4  -4   0   55.72    4.95
   4  -4   1   68.38    5.35
   4  -4   1   54.41    4.84
   4  -4   2    3.25    1.12
   4  -4   2    4.11    1.31
   4  -4   3  571.69   27.75
   4  -4   3  601.27   28.15
  -4   4  -3  543.09   26.77
   4  -4   4   22.72    2.79
  -4   4  -4   23.32    2.41
   4  -4   4   22.51    2.71
   4  -4   5   40.35    3.99
   4  -4   5   45.71    3.99
  -4   4  -5   43.16    3.53
   4  -4   6   24.38    2.43
   4  -4   6   25.06    2.90
   4  -4   6   24.51    2.79
  -4   4  -6   21.72    2.41
   4  -4   7   81.56    6.11
  -4   4  -7   79.57    5.51
   4  -4   7   86.23    5.61
   4  -4   8   48.23    3.83
  -4   4  -8   46.50    3.69
   4  -4   8   43.81    4.05
  -4   4  -9    1.57    0.70
   4  -4   9    0.63    0.73
   4  -4  10  136.82    8.39
  -4   4 -11   34.69    3.67
   4  -4  11   34.11    3.18
  -4   4 -12   45.64    3.61
   4  -4  12   55.42    4.13
  -4   4 -13    8.76    1.90
  -4   4 -13    6.52    1.21
   4  -4  13    6.76    1.37
  -4   4 -14    7.18    1.70
  -4   4 -14    6.88    1.22
   4  -4  14    7.66    1.32
  -4   4 -15   77.16    5.22
  -4   4 -15   55.80    4.18
  -4   4 -15   62.02    4.46
  -4   4 -15   73.04    5.19
  -4   4 -15   69.46    4.87
   4  -4  15   61.90    4.37
  -4   4 -16   12.90    1.80
  -4   4 -16   11.69    1.82
  -4   4 -16    9.45    1.29
  -4   4 -16   10.67    1.57
  -4   4 -17   63.28    4.47
  -4   4 -17   65.46    4.48
  -4   4 -17   64.35    4.31
  -4   4 -18    2.47    0.86
  -4   4 -18    3.85    0.79
  -4   4 -18    2.28    0.64
  -4   4 -19   10.46    1.22
   4  -3 -20    4.18    0.82
   4  -3 -19   15.10    1.65
   4  -3 -19   18.13    1.93
   4  -3 -18   10.74    1.73
   4  -3 -18   14.36    1.98
   4  -3 -17    1.17    0.87
   4  -3 -17    1.48    1.08
   4  -3 -16  102.64    6.47
   4  -3 -16  116.43    7.89
   4  -3 -16   91.70    6.20
   4  -3 -16  104.59    7.72
   4  -3 -16  102.19    6.65
   4  -3 -15    7.97    1.42
   4  -3 -15    6.29    1.31
   4  -3 -15    3.59    1.69
   4  -3 -15    4.40    1.78
   4  -3 -15    4.74    1.28
   4  -3 -14  100.02    6.67
   4  -3 -14  101.02    6.79
   4  -3 -14  105.39    8.45
   4  -3 -14  111.00    8.59
   4  -3 -14  103.61    7.18
   4  -3 -13    3.82    1.22
   4  -3 -13    2.83    1.64
   4  -3 -13    3.79    1.16
   4  -3 -13    3.83    1.91
   4  -3 -13    4.54    1.33
   4  -3 -12    0.14    0.75
   4  -3 -12    0.18    0.89
   4  -3 -12    2.56    1.58
   4  -3 -12   -0.20    0.68
   4  -3 -12    0.36    1.31
   4  -3 -12    0.42    0.81
   4  -3 -11    4.93    1.34
   4  -3 -11    3.96    1.04
   4  -3 -11    3.32    1.85
   4  -3 -11    6.27    2.06
   4  -3 -11    3.61    0.91
   4  -3 -11    3.95    1.26
   4  -3 -10    0.85    0.85
   4  -3 -10    0.78    0.61
   4  -3 -10    0.95    1.32
   4  -3 -10    0.49    0.66
   4  -3  -9   40.98    3.17
   4  -3  -9   39.76    2.97
   4  -3  -9   38.39    4.42
   4  -3  -9   39.41    2.99
   4  -3  -8   62.45    4.09
   4  -3  -8   55.82    5.43
   4  -3  -8   64.40    4.54
   4  -3  -8   50.05    4.84
   4  -3  -7   -0.22    0.81
  -4   3   7    0.60    0.52
   4  -3  -7    0.88    0.55
   4  -3  -7   -0.25    1.11
   4  -3  -7    0.27    0.65
   4  -3  -6   37.08    2.94
   4  -3  -6   30.30    3.54
   4  -3  -6   35.23    2.65
   4  -3  -6   33.14    3.56
  -4   3   6   30.51    2.78
  -4   3   5    7.67    1.19
   4  -3  -5    4.80    1.37
   4  -3  -5    6.75    1.12
   4  -3  -5    6.86    1.15
   4  -3  -5    5.64    1.41
  -4   3   4   69.42    4.59
   4  -3  -4   69.77    5.48
   4  -3  -4   72.13    5.45
  -4   3   3   19.35    1.99
   4  -3  -3   23.17    2.73
   4  -3  -3   23.93    2.67
  -4   3   2   36.17    2.86
   4  -3  -2   32.55    3.29
   4  -3  -2   38.23    3.59
  -4   3   1   18.02    1.84
  -4   3   0   44.59    3.33
   4  -3   0   47.66    4.04
   4  -3   0   47.12    3.95
   4  -3   1    1.16    0.72
   4  -3   1    1.75    0.81
  -4   3  -1    1.05    0.59
   4  -3   2  386.12   19.56
   4  -3   2  350.70   19.25
  -4   3  -3  225.93   12.14
   4  -3   3  218.15   12.73
   4  -3   3  252.16   13.16
  -4   3  -4   87.57    5.45
   4  -3   4   85.54    5.96
   4  -3   4   91.05    6.17
   4  -3   5   22.79    2.50
   4  -3   5   24.64    2.69
   4  -3   5   20.07    2.17
  -4   3  -5   24.98    2.26
   4  -3   6   27.83    2.87
  -4   3  -6   28.89    2.49
   4  -3   6   23.57    2.44
   4  -3   6   26.77    2.74
   4  -3   7   40.46    3.34
   4  -3   7   38.54    3.34
  -4   3  -7   40.49    3.23
   4  -3   7   46.08    3.82
   4  -3   8    8.89    1.56
  -4   3  -8    6.32    1.15
   4  -3   8   10.23    1.59
   4  -3   8    7.23    1.35
   4  -3   9  290.89   15.65
  -4   3  -9  282.72   15.37
   4  -3   9  313.19   16.02
   4  -3  10   13.68    1.78
   4  -3  10    8.84    1.61
  -4   3 -11   39.34    3.25
   4  -3  11   38.84    3.56
  -4   3 -12   20.08    2.19
  -4   3 -12   21.20    2.56
   4  -3  12   18.01    2.32
  -4   3 -13    3.71    1.04
  -4   3 -13    3.19    1.31
   4  -3  13    3.36    1.06
  -4   3 -13    6.46    1.42
  -4   3 -14  173.22   10.51
  -4   3 -14  194.93   11.48
  -4   3 -14  200.41   10.93
   4  -3  14  183.83   10.81
  -4   3 -15    0.99    0.85
   4  -3  15   -0.15    0.61
  -4   3 -15    0.29    0.73
  -4   3 -15    0.14    0.56
  -4   3 -16   76.73    5.22
  -4   3 -16   67.75    4.82
  -4   3 -16   73.45    5.28
   4  -3  16   69.35    4.81
  -4   3 -16   67.16    4.78
  -4   3 -17    0.88    0.65
   4  -3  17    1.06    0.58
  -4   3 -17    0.59    0.59
  -4   3 -17    0.66    0.66
  -4   3 -18   25.87    2.21
  -4   3 -18   22.73    2.26
  -4   3 -18   24.78    2.13
  -4   3 -19    2.60    0.66
  -4   3 -19    1.95    0.57
   4  -2 -20   11.78    1.37
   4  -2 -19    1.85    0.65
   4  -2 -19    2.15    0.84
   4  -2 -18    1.70    0.83
   4  -2 -18    0.92    0.87
   4  -2 -18    0.65    0.57
   4  -2 -17   33.15    3.65
   4  -2 -17   29.13    2.65
   4  -2 -17   40.09    4.04
   4  -2 -17   30.60    2.99
   4  -2 -16   28.81    2.82
   4  -2 -16   26.57    2.70
   4  -2 -16   30.20    3.74
   4  -2 -16   26.12    3.78
   4  -2 -16   22.10    2.82
   4  -2 -15   23.77    2.65
   4  -2 -15   26.51    2.79
   4  -2 -15   24.82    3.81
   4  -2 -15   24.20    2.97
   4  -2 -15   20.85    3.54
   4  -2 -14    0.38    1.41
   4  -2 -14   -0.46    0.69
   4  -2 -14    1.22    0.92
   4  -2 -14    1.13    1.58
   4  -2 -14    0.18    0.96
   4  -2 -14    1.16    1.03
   4  -2 -13    3.31    0.84
   4  -2 -13    5.70    1.34
   4  -2 -13    2.11    1.16
   4  -2 -13    3.92    1.01
   4  -2 -13    2.18    1.63
   4  -2 -13    4.86    1.92
   4  -2 -13    2.93    1.42
   4  -2 -12   43.45    3.41
   4  -2 -12   49.64    3.88
   4  -2 -12   43.22    5.19
   4  -2 -12   51.22    4.42
   4  -2 -12   52.80    3.70
   4  -2 -12   46.24    5.26
   4  -2 -12   50.77    4.77
   4  -2 -11   91.64    6.28
   4  -2 -11   90.20    6.74
   4  -2 -11  126.95    7.01
   4  -2 -11  127.32    7.75
   4  -2 -11  125.30    9.02
   4  -2 -11  120.98    8.90
   4  -2 -11  116.35    6.63
   4  -2 -11  118.55    8.17
   4  -2 -10   76.21    4.92
   4  -2 -10   66.97    5.28
   4  -2 -10   86.97    5.33
   4  -2 -10   79.99    6.86
   4  -2 -10   85.87    5.99
   4  -2 -10   82.04    5.07
   4  -2 -10   74.47    5.31
   4  -2 -10   85.71    6.92
   4  -2 -10   80.85    5.08
   4  -2 -10   81.02    6.24
   4  -2  -9   14.57    1.61
   4  -2  -9   11.71    2.24
   4  -2  -9   16.93    1.82
   4  -2  -9   13.25    1.62
   4  -2  -9   14.87    1.81
   4  -2  -9   17.80    2.58
   4  -2  -9   14.88    2.16
   4  -2  -9   16.90    1.74
   4  -2  -8   18.77    1.80
   4  -2  -8   11.53    2.21
   4  -2  -8   19.95    1.91
   4  -2  -8   16.79    1.70
   4  -2  -8   21.03    2.45
   4  -2  -8   19.97    1.87
   4  -2  -8   17.77    2.52
   4  -2  -8   16.32    1.92
   4  -2  -8   17.03    2.19
   4  -2  -7   18.15    2.33
   4  -2  -7   25.92    2.13
   4  -2  -7   24.55    2.90
   4  -2  -7   20.00    2.08
   4  -2  -7   24.88    2.50
   4  -2  -7   22.63    2.56
  -4   2   7   19.82    1.95
  -4   2   6   42.28    3.05
   4  -2  -6   45.87    3.79
   4  -2  -6   37.39    3.16
  -4   2   5   36.19    2.71
   4  -2  -5   32.82    3.20
  -4   2   4  444.31   22.26
   4  -2  -4  460.92   23.18
   4  -2  -4  443.19   23.00
   4  -2  -3  184.39   10.67
   4  -2  -3  178.70   10.51
  -4   2   3  191.36    9.97
   4  -2  -2  143.95    8.42
  -4   2   2  139.33    7.79
   4  -2  -2  138.54    8.44
  -4   2   1   52.51    3.57
  -4   2   0    2.55    0.69
   4  -2   1  139.63    8.52
   4  -2   1  154.94    8.74
   4  -2   2   27.93    2.71
   4  -2   2   27.41    2.63
  -4   2  -3  318.29   16.13
   4  -2   3  326.53   16.81
   4  -2   3  308.76   16.61
   4  -2   4   18.02    2.07
   4  -2   4   13.96    1.82
  -4   2  -4   16.47    1.67
  -4   2  -5   16.90    1.66
   4  -2   5   13.03    1.74
   4  -2   5   13.38    1.84
   4  -2   5   16.16    1.93
  -4   2  -6   34.53    2.74
   4  -2   6   39.43    3.30
   4  -2   6   37.49    3.13
   4  -2   7    8.99    1.50
   4  -2   7   10.93    1.62
  -4   2  -7    8.76    1.21
   4  -2   8  169.44    9.13
   4  -2   8  151.57    9.03
   4  -2   8  159.08    9.03
  -4   2  -8  136.54    8.28
   4  -2   9   40.06    3.40
  -4   2  -9   34.47    2.90
   4  -2   9   38.69    3.25
  -4   2  -9   38.45    2.97
   4  -2   9   34.72    3.30
   4  -2  10   49.85    4.23
  -4   2 -10   55.14    4.08
  -4   2 -11    0.14    0.59
   4  -2  11   -0.16    0.70
   4  -2  11    0.76    0.74
  -4   2 -12   25.94    2.72
  -4   2 -12   23.99    2.59
   4  -2  12   26.53    2.73
   4  -2  12   26.59    2.93
  -4   2 -13    0.65    0.99
  -4   2 -13    1.81    0.84
   4  -2  13    0.60    0.77
  -4   2 -13    1.54    0.91
   4  -2  13    1.08    0.67
  -4   2 -14   15.45    2.06
  -4   2 -14   17.46    2.14
  -4   2 -14   20.39    2.57
   4  -2  14   14.30    2.19
  -4   2 -15  298.53   16.54
  -4   2 -15  314.21   16.31
   4  -2  15  305.64   16.79
  -4   2 -15  309.18   16.93
  -4   2 -16   23.99    2.66
  -4   2 -16   32.17    3.10
  -4   2 -16   23.98    2.47
   4  -2  16   27.74    2.82
  -4   2 -17   37.64    3.33
   4  -2  17   37.09    3.22
  -4   2 -17   36.49    3.33
  -4   2 -17   38.59    3.04
  -4   2 -18   36.67    3.02
  -4   2 -18   34.01    3.06
  -4   2 -18   41.20    3.25
  -4   2 -18   34.13    2.75
   4  -2  18   36.21    2.91
  -4   2 -19    3.99    0.93
  -4   2 -19    2.76    0.78
  -4   2 -19    3.35    0.91
  -4   2 -19    1.07    0.62
   4  -2  19    3.45    0.70
  -4   2 -20   48.83    3.33
  -4   2 -20   54.19    3.52
  -4   2 -21    9.32    1.00
   4  -1 -19    7.33    1.09
   4  -1 -19    5.89    1.00
   4  -1 -18   27.36    3.00
   4  -1 -18   32.66    2.84
   4  -1 -17    3.07    1.12
   4  -1 -17    4.50    1.43
   4  -1 -17    2.73    1.30
   4  -1 -16    1.21    0.65
   4  -1 -16    3.04    1.60
   4  -1 -16    3.12    1.02
   4  -1 -16   -0.31    1.44
   4  -1 -16    2.11    1.13
   4  -1 -15    1.00    0.71
   4  -1 -15    1.78    1.12
   4  -1 -15    1.75    1.41
   4  -1 -15    3.08    1.75
   4  -1 -15    1.22    1.06
   4  -1 -14    9.11    1.43
   4  -1 -14   11.58    2.37
   4  -1 -14   12.89    1.88
   4  -1 -14   13.08    2.08
   4  -1 -14    7.97    1.45
   4  -1 -14   11.44    2.64
   4  -1 -14   13.16    2.77
   4  -1 -14   11.34    2.29
   4  -1 -13   33.68    2.89
   4  -1 -13   29.88    3.25
   4  -1 -13   35.11    4.51
   4  -1 -13   40.47    3.43
   4  -1 -13   33.64    4.38
   4  -1 -13   36.58    3.79
   4  -1 -13   35.40    3.00
   4  -1 -13   41.82    4.38
   4  -1 -12   93.70    5.90
   4  -1 -12   81.85    5.97
   4  -1 -12   99.16    6.30
   4  -1 -12  111.09    8.23
   4  -1 -12  105.00    7.17
   4  -1 -12   74.24    6.23
   4  -1 -12  103.81    6.08
   4  -1 -12  109.70    8.15
   4  -1 -12  107.92    7.68
   4  -1 -11    0.87    1.14
   4  -1 -11    1.73    0.85
   4  -1 -11    0.71    1.14
   4  -1 -11    0.67    0.71
   4  -1 -11    0.58    0.70
   4  -1 -11    1.40    1.12
   4  -1 -11    1.46    0.70
   4  -1 -11    0.42    1.41
   4  -1 -11    1.46    1.13
   4  -1 -11    1.92    1.04
   4  -1 -10  103.90    5.89
   4  -1 -10   85.10    5.83
   4  -1 -10  100.75    6.08
   4  -1 -10   96.37    7.45
   4  -1 -10   90.07    5.99
   4  -1 -10   99.32    7.00
   4  -1 -10   99.76    5.95
   4  -1 -10  100.31    7.45
   4  -1 -10   90.33    6.19
   4  -1 -10   95.70    5.94
   4  -1 -10   97.90    6.98
   4  -1  -9   53.74    3.45
   4  -1  -9   42.84    3.38
   4  -1  -9   46.60    4.25
   4  -1  -9   54.45    3.61
   4  -1  -9   47.91    4.57
   4  -1  -9   50.66    3.43
   4  -1  -9   45.46    4.33
   4  -1  -9   44.43    3.35
   4  -1  -9   37.94    3.59
   4  -1  -9   40.46    3.95
   4  -1  -9   43.33    3.48
   4  -1  -8   23.44    2.11
   4  -1  -8   19.00    2.19
   4  -1  -8   23.44    2.20
   4  -1  -8   21.82    2.07
   4  -1  -8   22.99    2.78
   4  -1  -8   20.62    2.16
   4  -1  -8   23.87    2.12
   4  -1  -8   24.77    2.88
   4  -1  -8   23.16    2.06
  -4   1   7  134.10    7.35
   4  -1  -7  147.08    7.58
   4  -1  -7  127.63    7.93
   4  -1  -7  140.01    8.69
   4  -1  -7  126.53    8.02
   4  -1  -7  126.73    8.24
  -4   1   6   67.05    4.10
   4  -1  -6   61.10    4.60
   4  -1  -6   65.93    4.63
  -4   1   5  183.04    9.78
   4  -1  -5  188.42   10.44
   4  -1  -4    0.13    0.49
  -4   1   4    0.27    0.40
  -4   1   3   51.78    3.51
   4  -1  -3   53.47    3.95
   4  -1  -2  121.59    7.49
  -4   1   2  129.34    7.10
   4  -1  -1    9.30    1.41
  -4   1   1   11.29    1.32
   4  -1   0   80.55    4.87
  -4   1   0   86.59    5.06
   4  -1   1    5.40    1.05
   4  -1   1    6.15    1.00
   4  -1   1    5.36    1.09
   4  -1   2   10.73    1.52
   4  -1   2    7.56    1.26
   4  -1   3    1.13    0.70
  -4   1  -3    0.27    0.47
   4  -1   4   81.72    5.30
  -4   1  -4   80.61    4.91
   4  -1   5   40.42    3.39
   4  -1   5   47.21    3.49
  -4   1  -5   45.11    3.12
   4  -1   6    0.26    0.46
   4  -1   6    0.13    0.69
  -4   1  -6    0.36    0.34
   4  -1   7   85.65    5.69
  -4   1  -7   84.01    5.11
   4  -1   7   89.83    5.65
   4  -1   8   47.83    3.76
  -4   1  -8   46.12    3.13
   4  -1   8   41.75    3.49
   4  -1   8   43.66    3.48
  -4   1  -9   98.61    5.77
   4  -1   9  101.92    6.22
   4  -1   9   97.17    6.49
  -4   1 -10   13.40    1.69
   4  -1  10   13.90    1.98
  -4   1 -10   12.20    1.45
   4  -1  11    7.92    1.50
  -4   1 -11    7.10    1.27
  -4   1 -12  155.25    9.39
   4  -1  12  163.95    9.73
  -4   1 -12  152.58    9.09
  -4   1 -12  167.25    9.89
  -4   1 -13    9.29    1.75
   4  -1  13   11.60    1.85
  -4   1 -13    8.11    1.50
  -4   1 -13    9.13    1.53
  -4   1 -14   81.84    5.83
  -4   1 -14   82.11    5.96
   4  -1  14   78.13    5.68
  -4   1 -14   80.28    5.42
  -4   1 -15   16.63    2.32
  -4   1 -15   20.07    2.51
  -4   1 -15   15.80    1.98
  -4   1 -15   24.18    2.54
   4  -1  15   19.14    2.57
  -4   1 -16    8.90    1.66
  -4   1 -16    5.09    1.16
   4  -1  16    6.69    1.48
  -4   1 -16    5.42    1.38
  -4   1 -17  189.16    9.96
  -4   1 -17  181.13   10.45
  -4   1 -17  186.22   10.27
  -4   1 -17  152.16    9.42
   4  -1  17  167.31   10.28
  -4   1 -18    0.34    0.65
  -4   1 -18    0.12    0.71
  -4   1 -18   -0.14    0.55
  -4   1 -18    0.77    0.56
   4  -1  18    0.61    0.66
  -4   1 -19  112.40    6.44
  -4   1 -19  121.97    7.10
  -4   1 -19  109.85    6.60
   4  -1  19  123.37    6.75
  -4   1 -20    2.47    0.79
  -4   1 -20    1.48    0.70
  -4   1 -20    0.85    0.49
   4  -1  20    1.69    0.56
  -4   1 -21   42.85    2.85
  -4   1 -21   48.61    3.30
   4   0 -20    3.55    0.60
   4   0 -19    2.97    0.78
   4   0 -19    4.14    0.87
   4   0 -18   28.08    2.89
   4   0 -18   26.29    2.69
   4   0 -17    6.77    1.06
   4   0 -17    8.63    1.99
   4   0 -17    8.07    1.73
   4   0 -16    1.10    0.72
   4   0 -16    0.94    0.89
   4   0 -16    0.29    1.07
   4   0 -16    1.30    0.92
   4   0 -16   -0.31    1.45
   4   0 -16    0.96    1.07
   4   0 -15   48.11    3.63
   4   0 -15   39.19    3.74
   4   0 -15   47.49    4.17
   4   0 -15   55.56    5.35
   4   0 -15   53.58    4.51
   4   0 -15   51.56    5.33
   4   0 -15   58.20    5.26
   4   0 -14  171.03    9.58
   4   0 -14  159.10    9.82
   4   0 -14  151.37    9.43
   4   0 -14  188.70   11.86
   4   0 -14  171.05    9.61
   4   0 -14  187.20   11.97
   4   0 -14  179.65   11.43
   4   0 -14  186.99   10.95
   4   0 -13   39.35    3.31
   4   0 -13   37.46    3.33
   4   0 -13   51.78    5.12
   4   0 -13   35.64    3.24
   4   0 -13   42.18    4.33
   4   0 -13   45.83    3.47
   4   0 -13   49.20    4.95
   4   0 -13   39.00    3.74
   4   0 -13   41.73    4.45
   4   0 -12    6.49    1.24
   4   0 -12    4.79    1.14
   4   0 -12    6.08    1.85
   4   0 -12    4.65    1.09
   4   0 -12    5.49    1.12
   4   0 -12    6.84    1.90
   4   0 -12    6.78    1.81
   4   0 -12    4.05    1.60
   4   0 -12    4.64    1.06
   4   0 -12    6.59    1.74
   4   0 -11   26.11    2.35
   4   0 -11   22.39    2.24
   4   0 -11   19.66    2.13
   4   0 -11   21.07    3.05
   4   0 -11   26.60    3.29
   4   0 -11   21.84    2.25
   4   0 -11   20.46    3.01
   4   0 -11   19.14    2.12
   4   0 -11   21.59    2.52
   4   0 -11   23.54    3.01
   4   0 -10  183.44    9.32
   4   0 -10  146.89    9.08
   4   0 -10  161.03    9.16
   4   0 -10  170.24   10.81
   4   0 -10  170.81    9.28
   4   0 -10  163.58   10.54
   4   0 -10  158.18    9.26
   4   0 -10  164.93   10.61
   4   0 -10  158.25    9.48
   4   0 -10  162.79    9.21
   4   0 -10  182.22   10.48
   4   0  -9    0.38    0.59
   4   0  -9    0.45    0.97
   4   0  -9    0.73    0.60
   4   0  -9    0.94    0.58
   4   0  -9    0.41    0.47
   4   0  -9    2.25    1.25
   4   0  -9    0.66    0.59
   4   0  -9    0.31    0.64
   4   0  -9    0.43    0.79
   4   0  -9    1.64    0.93
   4   0  -9    0.65    0.56
   4   0  -8  182.85    9.41
   4   0  -8  149.06    9.22
   4   0  -8  168.45    9.29
   4   0  -8  180.76    9.34
   4   0  -8  180.95   10.42
   4   0  -8  171.45   10.42
   4   0  -8  176.00    9.69
   4   0  -8  180.62    9.68
   4   0  -8  166.86    9.39
   4   0  -7  101.11    5.99
   4   0  -7  100.74    6.29
  -4   0   7  111.64    5.91
   4   0  -6   98.15    6.19
  -4   0   6  106.45    5.85
   4   0  -6  102.15    6.31
   4   0  -5    2.47    0.75
  -4   0   5    2.04    0.60
   4   0  -5    2.70    0.76
   4   0  -5    2.87    0.69
   4   0  -4    5.51    1.08
   4   0  -4    6.55    0.97
   4   0  -4    6.60    1.12
   4   0  -3   90.45    5.30
   4   0  -3   76.41    4.66
   4   0  -3   77.51    5.17
   4   0  -2   21.05    1.70
   4   0  -2   20.69    2.10
   4   0  -1  513.24   25.42
   4   0  -1  541.86   26.22
   4   0  -1  534.06   25.53
   4   0   0    0.07    0.51
   4   0   0   -0.05    0.24
   4   0   1    6.14    0.67
   4   0   1    8.67    1.27
   4   0   1    8.72    1.18
   4   0   2   52.57    3.70
   4   0   2   48.90    2.73
   4   0   3   37.50    2.97
   4   0   4  541.67   26.89
   4   0   5   10.17    1.43
   4   0   6  962.97   47.60
   4   0   6 1016.28   47.60
   4   0   6  966.39   47.73
   4   0   7  112.21    6.97
   4   0   7  118.57    7.27
  -4   0  -7  124.05    6.78
   4   0   7  123.92    7.15
  -4   0  -8  330.19   15.75
   4   0   8  298.35   16.01
   4   0   8  324.45   16.52
   4   0   8  288.85   16.00
   4   0   9    4.28    1.18
  -4   0  -9    3.65    0.71
   4   0   9    2.96    0.76
  -4   0 -10    0.40    0.39
   4   0  10    1.02    0.85
   4   0  11  312.58   17.86
  -4   0 -11  354.25   17.91
   4   0  11  339.68   18.07
  -4   0 -11  338.37   17.65
  -4   0 -12   -0.17    0.68
   4   0  12    0.19    0.73
  -4   0 -12    0.97    0.62
  -4   0 -13  329.96   16.87
  -4   0 -13  306.31   16.67
   4   0  13  318.74   16.98
  -4   0 -13  289.09   15.96
  -4   0 -14   15.76    2.21
  -4   0 -14   15.52    2.15
   4   0  14   15.86    2.29
  -4   0 -14   13.58    1.77
  -4   0 -15   54.20    4.62
  -4   0 -15   58.50    4.52
  -4   0 -15   52.05    3.90
  -4   0 -15   49.54    4.15
  -4   0 -16  248.94   13.89
  -4   0 -16  223.35   12.60
  -4   0 -16  251.48   13.45
  -4   0 -16  237.29   13.07
  -4   0 -17   -0.16    0.73
  -4   0 -17    0.42    0.94
  -4   0 -17    0.54    0.56
  -4   0 -18  105.05    6.31
  -4   0 -18  115.88    7.37
  -4   0 -18  108.85    6.66
  -4   0 -18   90.96    5.91
   4   0  18  106.08    7.12
  -4   0 -19   -0.30    0.65
  -4   0 -19   -0.19    0.83
  -4   0 -19    0.25    0.53
   4   0  19    0.32    0.69
  -4   0 -20   43.34    3.06
  -4   0 -20   47.53    3.83
  -4   0 -20   41.83    3.20
   4   0  20   44.78    3.42
  -4   0 -21   23.57    1.90
  -4   0 -21   25.31    2.52
  -4   0 -21   27.38    2.14
  -4   0 -22    7.98    1.14
   4   1 -20    1.91    0.48
   4   1 -19   23.53    2.19
   4   1 -18    5.36    1.06
   4   1 -18    9.76    1.61
   4   1 -18   10.51    1.63
   4   1 -17    1.73    0.74
   4   1 -17    1.76    1.07
   4   1 -17    3.76    1.26
   4   1 -16  105.96    6.19
   4   1 -16  128.25    8.14
   4   1 -16  112.73    7.79
   4   1 -15  113.51    7.67
   4   1 -15   95.50    6.38
   4   1 -15  113.90    7.29
   4   1 -15  119.13    8.28
   4   1 -15  117.46    8.46
   4   1 -15   91.49    6.66
   4   1 -15  109.15    6.60
   4   1 -15  114.87    8.14
   4   1 -14  101.17    6.08
   4   1 -14   85.10    5.77
   4   1 -14   89.36    6.44
   4   1 -14   99.23    7.27
   4   1 -14   99.18    5.99
   4   1 -14  103.90    7.66
   4   1 -14   91.39    6.18
   4   1 -14  105.49    7.64
   4   1 -14   98.20    7.32
   4   1 -13    1.34    0.91
   4   1 -13    0.89    0.74
   4   1 -13    0.18    0.93
   4   1 -13    2.83    1.22
   4   1 -13    1.14    0.71
   4   1 -13    3.73    1.54
   4   1 -13    2.86    1.50
   4   1 -13    1.91    0.70
   4   1 -13    1.68    0.93
   4   1 -13    2.30    0.91
   4   1 -13    2.89    1.33
   4   1 -13    2.05    1.07
   4   1 -12    0.13    0.70
   4   1 -12    0.13    0.63
   4   1 -12    1.18    0.86
   4   1 -12    1.37    1.18
   4   1 -12    0.25    0.55
   4   1 -12    0.51    1.33
   4   1 -12    0.55    1.01
   4   1 -12   -0.36    0.51
   4   1 -12    0.24    0.71
   4   1 -12    0.15    0.69
   4   1 -12   -0.24    0.81
   4   1 -12    0.39    0.74
   4   1 -11   25.45    2.42
   4   1 -11   22.07    2.22
   4   1 -11   21.93    2.46
   4   1 -11   23.25    2.33
   4   1 -11   23.33    3.04
   4   1 -11   19.36    2.12
   4   1 -11   24.37    3.19
   4   1 -11   22.76    2.23
   4   1 -11   18.51    2.09
   4   1 -11   19.83    2.86
   4   1 -11   19.64    2.35
   4   1 -11   21.15    2.82
   4   1 -10   20.23    2.06
   4   1 -10   17.39    1.94
   4   1 -10   15.96    1.99
   4   1 -10   13.25    1.75
   4   1 -10   20.43    2.76
   4   1 -10   16.36    2.47
   4   1 -10   19.98    2.04
   4   1 -10   19.57    2.07
   4   1 -10   16.99    1.87
   4   1 -10   19.07    2.68
   4   1 -10   22.56    2.32
   4   1 -10   13.39    1.88
   4   1 -10   20.14    2.52
   4   1  -9  128.78    7.22
   4   1  -9  131.87    7.16
   4   1  -9  120.39    7.18
   4   1  -9  131.92    8.41
   4   1  -9  102.71    6.82
   4   1  -9  116.64    6.99
   4   1  -9  132.39    8.10
   4   1  -9  113.30    6.89
   4   1  -9  125.62    8.21
   4   1  -9  132.76    7.43
   4   1  -9  120.41    7.45
   4   1  -9  118.88    7.16
   4   1  -9  116.76    7.74
   4   1  -8    9.51    1.33
   4   1  -8   10.83    1.36
   4   1  -8   11.12    1.74
   4   1  -8   10.73    1.39
   4   1  -8    8.18    1.16
   4   1  -8   10.50    1.41
   4   1  -8    6.66    1.29
   4   1  -8    8.39    1.19
   4   1  -8   11.79    1.87
   4   1  -8    8.74    1.38
   4   1  -8    7.74    1.19
   4   1  -8    9.99    1.82
   4   1  -7  162.45    8.86
   4   1  -7  170.39    9.43
   4   1  -7  168.58    9.07
   4   1  -6   18.88    1.63
   4   1  -6   20.31    2.04
   4   1  -6   17.42    1.79
   4   1  -5  120.51    6.75
   4   1  -5  107.53    6.60
   4   1  -5  114.60    6.64
   4   1  -4  213.19   11.05
   4   1  -4  196.80   10.98
   4   1  -4  207.55   10.96
   4   1  -3   13.58    1.58
   4   1  -3   14.03    1.50
   4   1  -2  169.23    8.99
   4   1  -2  167.69    9.24
   4   1  -1    7.24    1.20
   4   1  -1    5.54    0.95
   4   1  -1    5.82    0.81
   4   1   0  438.17   21.48
   4   1   1    0.72    0.56
   4   1   1    0.73    0.59
   4   1   2   37.20    2.82
   4   1   2   33.75    2.60
   4   1   2   35.95    2.71
   4   1   3  192.78   10.14
   4   1   3  194.81   10.09
   4   1   3  183.63    9.34
   4   1   3  184.19    9.90
   4   1   4   90.73    4.79
   4   1   4   90.39    5.56
   4   1   4   96.60    5.45
   4   1   5  664.46   32.88
   4   1   5  803.92   34.08
   4   1   6  187.90   10.04
   4   1   6  180.64   10.00
   4   1   7  184.48   10.45
   4   1   7  206.74   10.58
   4   1   8  182.04   10.16
   4   1   8  195.98   10.25
   4   1   9    1.53    0.63
  -4  -1 -10  291.82   14.69
  -4  -1 -10  268.48   14.02
   4   1  11   -0.18    0.60
  -4  -1 -11    0.68    0.70
  -4  -1 -11    0.44    0.59
   4   1  12  176.39   11.06
  -4  -1 -12  187.32   10.20
  -4  -1 -12  209.05   11.16
  -4  -1 -12  189.06   10.70
   4   1  12  187.89   11.32
   4   1  13   52.60    4.51
  -4  -1 -13   58.60    4.27
  -4  -1 -13   54.43    4.43
   4   1  13   56.08    4.68
  -4  -1 -13   48.64    3.66
   4   1  14  113.27    7.88
   4   1  14  124.91    8.22
  -4  -1 -14  130.54    8.23
  -4  -1 -14  127.00    7.72
  -4  -1 -14  117.50    7.06
  -4  -1 -14  119.89    7.58
  -4  -1 -15  405.13   19.78
  -4  -1 -15  409.19   20.65
   4   1  15  387.48   20.45
  -4  -1 -15  377.27   19.69
  -4  -1 -15  335.75   18.90
  -4  -1 -16    1.22    0.80
  -4  -1 -16    0.33    0.79
  -4  -1 -16    0.93    0.97
  -4  -1 -16    0.75    0.60
  -4  -1 -17  750.63   34.67
  -4  -1 -17  697.24   33.05
  -4  -1 -17  714.33   33.33
  -4  -1 -18    5.37    1.14
  -4  -1 -18    5.96    1.21
  -4  -1 -18    6.56    1.69
  -4  -1 -19   26.82    2.45
  -4  -1 -19   33.71    3.57
  -4  -1 -19   34.24    2.86
   4   1  19   36.87    3.52
  -4  -1 -20   18.60    1.85
  -4  -1 -20   24.06    2.81
  -4  -1 -20   26.26    2.26
   4   1  20   22.95    2.56
  -4  -1 -21    9.00    1.22
  -4  -1 -21    9.76    1.54
   4   1  21    7.63    1.29
  -4  -1 -22   85.27    5.28
   4   2 -19    5.95    0.86
   4   2 -19    9.25    1.24
   4   2 -18    5.08    0.94
   4   2 -18    5.71    1.29
   4   2 -17   46.86    3.43
   4   2 -17   41.54    3.28
   4   2 -17   51.80    4.32
   4   2 -17   54.85    4.48
   4   2 -16   24.34    2.33
   4   2 -16   18.96    2.03
   4   2 -16   25.30    3.04
   4   2 -16   19.72    2.40
   4   2 -16   24.77    3.01
   4   2 -15   67.50    4.49
   4   2 -15   62.89    4.29
   4   2 -15   76.15    5.71
   4   2 -15   62.19    4.52
   4   2 -15   63.80    5.37
   4   2 -14    4.58    1.16
   4   2 -14    3.58    1.03
   4   2 -14    3.93    0.97
   4   2 -14    2.94    1.46
   4   2 -14    4.05    1.57
   4   2 -14    4.17    1.60
   4   2 -14    3.44    1.36
   4   2 -14    4.29    1.11
   4   2 -14    3.06    1.21
   4   2 -14    4.92    1.59
   4   2 -13   12.91    1.86
   4   2 -13   12.04    1.75
   4   2 -13   16.47    2.61
   4   2 -13   11.93    1.70
   4   2 -13   14.73    2.54
   4   2 -13   15.46    1.94
   4   2 -13   15.46    2.57
   4   2 -13   13.14    1.93
   4   2 -13   15.54    2.50
   4   2 -13   13.03    2.21
   4   2 -12    2.29    0.93
   4   2 -12    2.37    1.28
   4   2 -12    0.40    0.68
   4   2 -12    0.26    0.55
   4   2 -12   -0.26    1.01
   4   2 -12    0.71    1.15
   4   2 -12    1.15    0.95
   4   2 -12    0.70    0.54
   4   2 -12    1.00    0.87
   4   2 -12    0.49    0.74
   4   2 -12    0.47    0.90
   4   2 -11   12.65    1.83
   4   2 -11   15.59    1.86
   4   2 -11    8.15    1.38
   4   2 -11   10.06    2.11
   4   2 -11   12.51    2.13
   4   2 -11   10.71    2.16
   4   2 -11   12.97    1.62
   4   2 -11   13.77    2.03
   4   2 -11   13.85    1.94
   4   2 -11   10.13    1.55
   4   2 -11    9.39    1.93
   4   2 -10   77.88    4.97
   4   2 -10   78.14    4.88
   4   2 -10   77.63    5.22
   4   2 -10   69.90    5.73
   4   2 -10   57.64    4.39
   4   2 -10   64.07    5.53
   4   2 -10   72.53    4.66
   4   2 -10   72.24    5.15
   4   2 -10   67.06    4.83
   4   2 -10   69.61    5.45
   4   2 -10   70.73    5.45
   4   2 -10   65.55    4.98
   4   2  -9    8.24    1.37
   4   2  -9   13.52    1.60
   4   2  -9    7.16    1.13
   4   2  -9   12.23    2.02
   4   2  -9    6.61    1.30
   4   2  -9   10.79    1.65
   4   2  -9    8.77    1.69
   4   2  -9   10.76    1.40
   4   2  -9    6.93    1.63
   4   2  -9    9.26    1.46
   4   2  -9    7.42    1.40
   4   2  -9   12.39    1.87
   4   2  -8   88.55    5.36
   4   2  -8   86.60    5.48
   4   2  -8   83.43    6.20
   4   2  -8   89.95    5.90
   4   2  -8   87.25    5.74
   4   2  -8   77.19    5.93
   4   2  -8   79.65    5.00
   4   2  -8   88.69    5.91
   4   2  -7   20.11    1.74
   4   2  -6    0.45    0.36
   4   2  -5  463.70   23.26
   4   2  -5  458.07   22.82
   4   2  -4    1.66    0.63
   4   2  -4    2.38    0.82
   4   2  -4    1.55    0.62
   4   2  -3  134.87    7.46
   4   2  -3  130.88    7.45
   4   2  -2   13.02    1.03
   4   2  -2   12.09    1.45
   4   2  -2   14.45    1.55
   4   2  -1   80.00    4.38
   4   2  -1   75.24    4.80
   4   2  -1   78.91    4.88
   4   2   0    0.24    0.40
   4   2   0    1.13    0.51
   4   2   1    3.40    0.72
   4   2   1    1.25    0.58
   4   2   2  162.43    8.97
   4   2   2  167.02    8.67
   4   2   3  144.42    8.26
   4   2   3  149.11    7.90
   4   2   3  157.85    8.29
   4   2   4  376.94   19.16
   4   2   4  384.90   19.10
   4   2   5   15.30    1.70
   4   2   5   18.33    1.74
   4   2   6    8.81    1.22
   4   2   6    9.49    1.25
   4   2   7  157.30    8.74
   4   2   7  162.56    8.71
   4   2   8    0.58    0.50
   4   2   8    0.09    0.49
  -4  -2  -9  389.68   20.01
   4   2   9  416.62   20.12
   4   2  10    0.58    0.39
  -4  -2 -10    0.62    0.54
  -4  -2 -11  300.86   16.32
  -4  -2 -11  346.56   17.13
   4   2  12   30.20    3.29
  -4  -2 -12   35.58    3.39
  -4  -2 -12   36.63    2.94
   4   2  13    1.47    0.88
  -4  -2 -13    2.00    0.77
  -4  -2 -13    0.39    0.70
  -4  -2 -13    1.06    0.77
   4   2  14  222.40   13.30
  -4  -2 -14  236.96   13.55
  -4  -2 -14  217.41   12.40
  -4  -2 -14  239.19   12.71
   4   2  15    2.41    0.92
  -4  -2 -15    2.07    0.86
   4   2  15    3.57    1.30
  -4  -2 -15    2.90    1.00
  -4  -2 -15    1.20    1.01
   4   2  16   63.41    5.20
  -4  -2 -16   66.55    4.75
   4   2  16   56.66    5.24
  -4  -2 -16   61.23    4.62
  -4  -2 -17    2.09    0.85
  -4  -2 -17    2.11    1.32
  -4  -2 -17    2.56    0.94
  -4  -2 -17    2.95    0.95
  -4  -2 -17    1.67    0.91
  -4  -2 -18   42.62    3.25
  -4  -2 -18   46.47    4.61
  -4  -2 -18   43.90    3.58
  -4  -2 -19   95.36    5.86
  -4  -2 -19  103.99    7.38
  -4  -2 -19  107.28    6.38
  -4  -2 -20    3.24    0.84
  -4  -2 -21  114.41    6.78
   4   2  21  121.79    7.59
   4   3 -19    0.35    0.37
   4   3 -19   -0.50    0.54
   4   3 -18   40.98    2.88
   4   3 -17    2.88    0.83
   4   3 -17    1.66    0.77
   4   3 -16  131.48    7.15
   4   3 -16  122.36    6.86
   4   3 -16  126.30    7.79
   4   3 -16  121.43    7.93
   4   3 -15    4.19    1.11
   4   3 -15    2.48    0.92
   4   3 -15    0.85    0.92
   4   3 -15    1.15    0.78
   4   3 -15    4.04    1.24
   4   3 -15    1.30    0.94
   4   3 -14   17.07    2.19
   4   3 -14   20.38    2.24
   4   3 -14   18.76    2.73
   4   3 -14   18.55    2.09
   4   3 -14   20.26    2.26
   4   3 -14   20.70    2.81
   4   3 -13   30.85    2.82
   4   3 -13   32.16    2.91
   4   3 -13   29.25    3.21
   4   3 -13   35.65    3.74
   4   3 -13   20.51    2.46
   4   3 -13   35.87    3.67
   4   3 -13   29.37    2.87
   4   3 -13   36.22    3.84
   4   3 -13   32.89    3.10
   4   3 -13   32.53    3.58
   4   3 -12    1.97    1.05
   4   3 -12    3.47    1.35
   4   3 -12    2.22    0.80
   4   3 -12    1.75    1.15
   4   3 -12    2.86    0.99
   4   3 -12    2.28    1.20
   4   3 -12    2.98    1.09
   4   3 -12    2.67    0.95
   4   3 -12    1.42    1.07
   4   3 -12    2.94    1.22
   4   3 -11  350.55   17.65
   4   3 -11  340.47   18.00
   4   3 -11  313.02   17.70
   4   3 -11  373.73   19.10
   4   3 -11  279.10   16.98
   4   3 -11  341.28   17.62
   4   3 -11  362.09   19.07
   4   3 -11  329.42   17.46
   4   3 -11  368.56   18.28
   4   3 -11  361.19   18.59
   4   3 -11  367.68   18.74
   4   3 -10   10.05    1.55
   4   3 -10   10.38    1.69
   4   3 -10    7.96    1.19
   4   3 -10   13.48    2.25
   4   3 -10    8.38    1.55
   4   3 -10   13.71    1.82
   4   3 -10   11.47    1.69
   4   3 -10   11.40    2.06
   4   3 -10   12.28    2.02
   4   3 -10    8.42    1.63
   4   3 -10   11.72    1.96
   4   3  -9  216.88   11.76
   4   3  -9  203.44   11.92
   4   3  -9  215.09   12.63
   4   3  -9  194.68   11.00
   4   3  -9  213.39   12.09
   4   3  -9  223.12   11.58
   4   3  -9  212.66   12.57
   4   3  -9  232.34   12.25
   4   3  -9  209.35   11.72
   4   3  -9  215.68   12.28
   4   3  -8   88.92    5.49
   4   3  -8   79.47    5.27
   4   3  -8   84.28    5.76
   4   3  -8   80.17    5.59
   4   3  -8   88.24    6.18
   4   3  -8   83.28    5.75
   4   3  -8   85.39    5.21
   4   3  -8   75.49    5.38
   4   3  -8   80.54    5.37
   4   3  -8   76.65    5.87
   4   3  -8   80.99    5.73
   4   3  -7   14.16    1.71
   4   3  -7   18.52    2.27
   4   3  -7   14.23    1.58
   4   3  -7   16.84    2.09
   4   3  -7   15.34    1.66
   4   3  -7   14.76    1.91
   4   3  -7   17.88    1.93
   4   3  -6    1.67    0.83
   4   3  -6    1.24    0.50
   4   3  -5   10.48    1.31
   4   3  -4  781.42   37.81
   4   3  -4  782.02   37.98
   4   3  -3    1.39    0.57
   4   3  -3    1.96    0.70
   4   3  -2  549.10   26.09
   4   3  -2  515.99   25.16
   4   3  -2  536.11   26.32
   4   3  -2  559.52   26.26
   4   3  -1  516.90   25.29
   4   3  -1  499.77   24.50
   4   3  -1  525.52   25.27
   4   3  -1  508.37   25.11
  -4  -3   0   28.02    1.64
   4   3   0   30.04    2.40
   4   3   0   27.50    2.38
   4   3   0   25.85    2.24
   4   3   1   16.07    1.64
   4   3   2   54.75    3.54
   4   3   2   50.80    3.54
   4   3   3  390.32   19.80
   4   3   3  402.28   19.90
   4   3   4   97.72    5.51
   4   3   4   82.22    5.26
   4   3   5   49.24    3.45
   4   3   5   47.27    3.36
   4   3   6  670.39   33.18
   4   3   6  693.83   33.32
   4   3   7   25.23    2.15
   4   3   7   23.64    2.19
   4   3   8  424.35   20.36
   4   3   8  387.33   20.09
   4   3   9   57.64    3.90
   4   3   9   70.70    4.27
  -4  -3 -10  195.66   10.50
   4   3  10  209.83   10.78
  -4  -3 -11  136.57    8.38
  -4  -3 -11  132.50    7.41
  -4  -3 -11  130.59    7.75
   4   3  12    8.63    1.65
  -4  -3 -12    6.13    1.07
  -4  -3 -12    8.68    1.61
   4   3  13   72.18    5.96
  -4  -3 -13   82.78    6.22
  -4  -3 -13   82.51    5.15
   4   3  14    1.87    1.08
  -4  -3 -14    2.02    0.90
  -4  -3 -14    2.38    0.87
  -4  -3 -14    4.49    1.45
   4   3  15   92.12    6.67
  -4  -3 -15   82.48    5.57
  -4  -3 -15   77.79    5.35
   4   3  16    0.73    0.82
  -4  -3 -16    1.31    0.73
  -4  -3 -16    0.68    0.67
  -4  -3 -17    1.23    0.70
   4   3  17    0.47    0.69
  -4  -3 -17    1.86    0.83
  -4  -3 -17    1.66    0.73
  -4  -3 -17    0.74    0.95
  -4  -3 -18  281.03   15.20
  -4  -3 -18  324.40   15.93
  -4  -3 -18  307.42   17.27
  -4  -3 -19    1.95    0.84
  -4  -3 -19    1.84    1.00
  -4  -3 -20   92.49    5.83
  -4  -3 -20   90.55    6.62
  -4  -3 -21    0.89    0.58
  -4  -3 -21    0.28    0.68
  -4  -3 -22   92.18    5.29
   4   3  22   75.17    5.00
  -4  -3 -23    2.22    0.55
   4   4 -19   10.25    1.11
   4   4 -18    3.88    0.80
   4   4 -17    2.62    0.76
   4   4 -16    3.07    0.81
   4   4 -16    3.11    0.89
   4   4 -16    3.14    1.21
   4   4 -15    7.58    1.32
   4   4 -15   10.20    1.74
   4   4 -15    9.42    1.43
   4   4 -15    8.50    1.40
   4   4 -14  105.24    6.43
   4   4 -14  103.04    7.13
   4   4 -14   95.75    6.45
   4   4 -13    0.14    0.78
   4   4 -13    0.67    0.96
   4   4 -13    0.41    0.78
   4   4 -13    0.17    0.65
   4   4 -12  208.03   11.29
   4   4 -12  194.49   11.00
   4   4 -12  170.69   10.86
   4   4 -12  198.67   12.01
   4   4 -12  211.02   11.76
   4   4 -12  181.42   10.87
   4   4 -12  201.27   12.04
   4   4 -12  202.45   11.52
   4   4 -11   -0.80    1.04
   4   4 -11    0.93    1.09
   4   4 -11    0.47    0.61
   4   4 -11    0.72    0.81
   4   4 -11    1.56    0.79
   4   4 -11    0.20    0.95
   4   4 -11    0.38    0.83
   4   4 -11    0.94    0.98
   4   4 -11   -0.21    0.89
   4   4 -10  110.30    7.02
   4   4 -10   98.86    6.63
   4   4 -10  103.24    6.95
   4   4 -10  112.66    7.73
   4   4 -10  105.64    7.20
   4   4 -10  111.25    6.92
   4   4 -10  120.63    7.86
   4   4 -10  110.80    6.66
   4   4 -10  119.52    7.51
   4   4 -10  105.22    7.40
   4   4  -9  241.82   12.73
   4   4  -9  219.91   12.27
   4   4  -9  232.53   12.89
   4   4  -9  234.23   13.44
   4   4  -9  236.18   12.36
   4   4  -9  216.00   12.96
   4   4  -9  236.08   12.57
   4   4  -9  216.30   12.57
   4   4  -9  220.84   13.23
   4   4  -9  237.78   13.21
   4   4  -9  235.35   13.16
   4   4  -8   12.20    1.90
   4   4  -8   10.64    1.64
   4   4  -8   11.02    1.60
   4   4  -8   11.80    1.61
   4   4  -8   13.61    1.59
   4   4  -8   12.07    1.84
   4   4  -8   10.51    1.71
   4   4  -8   11.68    1.68
   4   4  -8   12.86    1.92
   4   4  -8    9.03    1.31
   4   4  -8   10.84    1.85
   4   4  -8   12.86    1.89
   4   4  -8    9.90    1.70
   4   4  -8   10.27    1.68
   4   4  -7   48.04    3.76
   4   4  -7   46.27    3.40
   4   4  -7   48.72    3.63
   4   4  -7   48.32    4.03
   4   4  -7   48.38    4.12
   4   4  -7   48.36    4.06
   4   4  -7   49.02    3.83
   4   4  -7   50.84    3.55
   4   4  -7   47.94    3.92
   4   4  -7   44.66    3.93
   4   4  -7   50.19    3.81
   4   4  -7   50.21    3.98
  -4  -4   6   61.61    4.08
   4   4  -6   69.38    4.96
   4   4  -6   65.50    4.23
   4   4  -5  196.51   10.62
   4   4  -4   57.61    4.01
   4   4  -3  420.40   21.20
   4   4  -2 1613.13   77.05
   4   4  -1    0.22    0.67
   4   4  -1    0.36    0.48
  -4  -4   0  598.81   29.95
   4   4   0  712.12   31.33
   4   4   0  684.43   31.18
   4   4   0  657.29   30.86
   4   4   1   51.94    3.46
  -4  -4  -1   43.55    2.49
  -4  -4  -2  126.68    6.37
   4   4   2  121.76    7.01
  -4  -4  -3  163.93    8.37
   4   4   3  163.64    8.93
   4   4   3  171.93    9.19
  -4  -4  -4    1.50    0.52
   4   4   4    2.36    0.69
   4   4   4    2.30    0.82
  -4  -4  -5   61.84    3.55
   4   4   5   54.04    3.75
   4   4   5   56.27    3.98
  -4  -4  -6    7.70    1.01
   4   4   6    6.09    1.00
   4   4   6    7.85    1.29
  -4  -4  -7 1188.57   56.20
   4   4   7 1160.43   56.69
   4   4   8   67.59    4.44
  -4  -4  -8   61.37    4.02
   4   4   9  228.99   12.34
  -4  -4  -9  231.57   12.07
  -4  -4 -10  401.39   19.97
   4   4  10  390.97   20.12
   4   4  11    2.99    1.10
  -4  -4 -11    3.72    0.71
  -4  -4 -11    4.01    0.71
  -4  -4 -11    3.42    0.91
   4   4  12  477.30   26.12
  -4  -4 -12  529.72   25.14
  -4  -4 -12  489.96   24.61
   4   4  13   23.84    3.01
  -4  -4 -13   23.04    2.10
   4   4  14  238.27   14.47
  -4  -4 -14  254.57   13.28
  -4  -4 -14  238.49   12.88
   4   4  15    5.34    1.80
  -4  -4 -15    8.81    1.53
  -4  -4 -15    9.42    1.39
   4   4  16   59.34    5.41
  -4  -4 -16   60.16    4.42
  -4  -4 -16   56.38    4.19
   4   4  17  114.28    8.66
  -4  -4 -17  127.26    7.39
  -4  -4 -17  123.13    8.26
  -4  -4 -17  116.03    7.44
  -4  -4 -18    1.44    1.08
   4   4  18    1.05    1.05
  -4  -4 -18    0.68    0.61
  -4  -4 -19  318.50   16.33
  -4  -4 -19  282.68   15.45
  -4  -4 -19  278.34   17.13
  -4  -4 -20    4.97    1.18
  -4  -4 -20    7.11    1.44
  -4  -4 -20    3.26    1.50
  -4  -4 -21   48.53    3.57
  -4  -4 -21   39.80    3.17
  -4  -4 -21   36.95    3.82
  -4  -4 -22    1.47    0.62
  -4  -4 -22    0.97    0.61
  -4  -4 -23   26.75    2.06
   4   5 -18    3.65    0.79
   4   5 -17    0.58    0.47
   4   5 -17    0.43    0.55
   4   5 -16    7.97    1.30
   4   5 -16    6.58    1.09
   4   5 -16    8.16    1.38
   4   5 -15   99.36    6.06
   4   5 -15   97.25    5.85
   4   5 -15   81.95    5.66
   4   5 -15  106.61    6.55
   4   5 -14    0.14    0.89
   4   5 -14    1.15    0.90
   4   5 -14    1.28    0.84
   4   5 -14    1.46    1.04
   4   5 -13  122.82    7.59
   4   5 -13  116.87    7.34
   4   5 -13  111.57    7.70
   4   5 -13  125.40    7.70
   4   5 -12   17.82    2.36
   4   5 -12   16.16    2.37
   4   5 -12   17.13    2.17
   4   5 -12   16.66    2.02
   4   5 -12   18.13    2.34
   4   5 -11   29.41    3.08
   4   5 -11   27.35    2.77
   4   5 -11   26.18    2.92
   4   5 -11   26.59    3.15
   4   5 -11   26.97    2.88
   4   5 -11   29.91    3.29
   4   5 -11   35.48    2.95
   4   5 -11   26.85    3.06
   4   5 -10   63.63    4.84
   4   5 -10   59.94    4.65
   4   5 -10   64.38    5.15
   4   5 -10   54.88    4.74
   4   5 -10   64.18    4.73
   4   5 -10   65.31    5.19
   4   5 -10   64.97    4.52
   4   5 -10   58.15    4.96
   4   5  -9    3.27    1.11
   4   5  -9    6.45    1.40
   4   5  -9    5.03    1.25
   4   5  -9    4.92    1.28
   4   5  -9    3.30    0.96
   4   5  -9    4.85    1.37
   4   5  -9    3.80    1.24
   4   5  -9    4.90    1.30
   4   5  -9    3.32    1.24
   4   5  -9    6.23    1.48
   4   5  -9    3.99    1.04
   4   5  -8  246.87   13.49
   4   5  -8  249.72   13.32
   4   5  -8  246.58   13.84
   4   5  -8  242.43   13.66
   4   5  -8  228.59   13.76
   4   5  -8  239.05   13.42
   4   5  -8  242.13   13.57
   4   5  -8  255.40   13.38
   4   5  -8  251.27   13.09
   4   5  -8  228.14   13.73
   4   5  -8  247.76   13.98
   4   5  -7    3.05    0.83
   4   5  -7    2.97    1.00
   4   5  -7    2.01    0.85
   4   5  -7    2.04    0.95
   4   5  -7    2.30    0.98
   4   5  -7    1.95    0.87
   4   5  -7    1.75    0.81
   4   5  -7    2.14    0.86
   4   5  -7    1.93    0.84
   4   5  -7    3.70    0.93
   4   5  -7    2.13    0.90
   4   5  -7    2.54    0.89
   4   5  -6   77.65    5.32
   4   5  -6   76.76    5.22
   4   5  -6   84.26    5.20
   4   5  -6   80.92    5.80
   4   5  -6   73.06    5.59
   4   5  -6   83.19    5.83
   4   5  -6   74.87    5.08
   4   5  -6   78.96    5.27
   4   5  -6   86.02    5.83
   4   5  -6   78.79    5.59
   4   5  -6   83.99    5.11
   4   5  -6   82.93    5.24
   4   5  -6   85.75    5.59
  -4  -5   5   52.92    3.75
   4   5  -5   60.07    4.10
   4   5  -5   56.49    4.47
  -4  -5   4   11.42    1.38
   4   5  -4   10.02    1.47
  -4  -5   3  708.17   33.92
   4   5  -3  683.34   34.58
   4   5  -3  690.74   34.27
   4   5  -2  129.85    7.80
   4   5  -2  126.54    7.54
   4   5  -1  405.62   20.64
   4   5   0   16.43    1.87
  -4  -5  -1  342.77   16.61
  -4  -5  -2  181.07    9.08
  -4  -5  -3   18.73    1.42
   4   5   4  694.31   34.15
  -4  -5  -4  693.00   33.18
  -4  -5  -5    0.94    0.47
   4   5   5    1.26    0.70
   4   5   6   64.20    4.74
  -4  -5  -6   75.34    4.21
  -4  -5  -7   -0.07    0.49
   4   5   7    0.79    0.72
  -4  -5  -8   30.14    2.32
   4   5   8   29.75    2.73
  -4  -5  -9   68.24    4.30
  -4  -5  -9   68.11    4.25
   4   5   9   64.80    4.71
   4   5  10    8.85    1.44
  -4  -5 -10    7.95    1.19
  -4  -5 -10    7.21    1.08
   4   5  11  524.18   28.18
  -4  -5 -11  555.97   26.87
   4   5  11  530.04   27.27
  -4  -5 -11  545.97   26.59
   4   5  12    4.51    1.39
  -4  -5 -12    5.65    1.14
  -4  -5 -12    4.34    0.85
  -4  -5 -12    3.91    1.05
   4   5  13  160.50   10.63
  -4  -5 -13  152.66    8.85
  -4  -5 -13  182.54    9.91
   4   5  14   11.06    2.25
  -4  -5 -14   10.81    1.47
  -4  -5 -14   12.22    1.90
   4   5  15  130.24    9.19
  -4  -5 -15  112.16    7.25
  -4  -5 -15  128.58    7.98
  -4  -5 -15  111.86    7.02
  -4  -5 -16   43.19    3.66
   4   5  16   45.60    4.88
  -4  -5 -16   39.84    3.39
  -4  -5 -16   43.80    4.00
   4   5  17    0.65    1.25
  -4  -5 -17    1.99    0.81
  -4  -5 -17    1.36    0.87
  -4  -5 -17    1.62    1.02
   4   5  18  145.74   10.46
  -4  -5 -18  159.18    9.37
  -4  -5 -18  140.86    8.70
  -4  -5 -19    1.88    0.90
  -4  -5 -19    2.54    0.86
  -4  -5 -20   25.29    2.57
  -4  -5 -20   22.39    2.24
  -4  -5 -20   20.08    3.00
  -4  -5 -21   58.14    4.04
  -4  -5 -21   51.96    3.66
  -4  -5 -21   53.73    4.66
  -4  -5 -22    9.00    1.23
  -4  -5 -22    6.55    1.33
  -4  -5 -23   70.50    4.07
   4   6 -18    7.83    0.98
   4   6 -17   30.27    2.15
   4   6 -17   24.67    1.91
   4   6 -17   25.11    2.11
   4   6 -16   38.67    2.96
   4   6 -16   40.26    2.81
   4   6 -16   38.49    2.99
   4   6 -15    0.46    0.75
   4   6 -15    0.30    0.61
   4   6 -15    0.66    0.55
   4   6 -15    0.59    0.75
   4   6 -15    0.39    0.72
   4   6 -14  178.04   10.04
   4   6 -14  169.53    9.74
   4   6 -14  181.14    9.77
   4   6 -14  172.13    9.84
   4   6 -14  175.04   10.17
   4   6 -13   -0.63    1.09
   4   6 -13    0.64    0.69
   4   6 -13    0.13    0.72
   4   6 -13   -0.17    0.79
   4   6 -12   26.67    3.04
   4   6 -12   32.09    2.89
   4   6 -12   30.95    3.16
   4   6 -12   29.86    3.17
   4   6 -11   75.05    5.32
   4   6 -11   58.28    4.89
   4   6 -11   62.35    4.61
   4   6 -11   73.99    4.88
   4   6 -11   67.66    5.31
   4   6 -11   68.26    5.22
   4   6 -11   61.80    4.69
   4   6 -10    4.42    1.31
   4   6 -10    7.48    1.52
   4   6 -10    3.69    1.24
   4   6 -10    3.28    1.12
   4   6 -10    4.90    1.20
   4   6 -10    3.90    1.12
   4   6 -10    3.60    1.16
   4   6 -10    5.44    1.51
   4   6 -10    5.54    1.30
   4   6 -10    4.60    1.33
   4   6  -9  369.42   19.65
   4   6  -9  376.59   19.59
   4   6  -9  370.18   19.92
   4   6  -9  361.16   19.86
   4   6  -9  363.71   19.98
   4   6  -9  346.72   19.42
   4   6  -9  390.94   19.37
   4   6  -9  396.24   20.39
   4   6  -9  370.52   19.29
   4   6  -9  368.57   19.67
   4   6  -9  385.61   19.94
   4   6  -8   24.57    2.66
   4   6  -8   25.55    2.70
   4   6  -8   24.17    2.72
   4   6  -8   22.68    2.69
   4   6  -8   24.95    2.91
   4   6  -8   25.89    2.54
   4   6  -8   26.69    2.79
   4   6  -8   25.21    2.80
   4   6  -8   24.57    2.53
   4   6  -7  223.54   12.12
   4   6  -7  214.09   12.16
   4   6  -7  238.33   12.75
   4   6  -7  217.24   11.91
   4   6  -7  212.26   12.54
   4   6  -7  210.67   12.36
   4   6  -7  204.37   12.48
   4   6  -7  221.99   11.97
   4   6  -7  232.18   12.94
   4   6  -6   54.46    4.08
   4   6  -6   63.69    4.40
   4   6  -6   56.24    4.42
   4   6  -6   59.08    4.63
   4   6  -6   47.71    3.96
   4   6  -6   50.71    3.95
   4   6  -6   61.90    4.06
   4   6  -6   56.47    4.62
   4   6  -6   53.05    4.27
   4   6  -6   59.71    4.08
   4   6  -6   65.57    5.00
   4   6  -6   52.72    3.80
   4   6  -5    2.85    0.90
   4   6  -5    5.43    1.18
  -4  -6   5    4.41    0.93
   4   6  -5    4.92    1.31
   4   6  -5    2.84    1.01
   4   6  -5    3.74    0.94
   4   6  -5    4.32    1.02
   4   6  -5    4.05    1.15
   4   6  -5    4.93    1.11
   4   6  -5    3.94    0.98
   4   6  -5    4.47    0.96
  -4  -6   4   90.66    5.61
   4   6  -4   92.33    6.36
   4   6  -4   86.02    5.83
   4   6  -4   91.34    6.30
   4   6  -4   89.50    6.23
  -4  -6   3   19.80    1.93
   4   6  -3   19.73    2.39
   4   6  -3   15.60    1.96
   4   6  -2  185.79   11.10
   4   6  -2  207.98   11.54
  -4  -6   2  208.15   10.83
  -4  -6   1    7.10    1.17
   4   6  -1    8.58    1.51
   4   6   0  171.73    9.96
  -4  -6   0  171.99    9.37
  -4  -6  -1  297.80   15.32
  -4  -6  -2    2.28    0.81
  -4  -6  -3  527.02   26.44
  -4  -6  -3  585.32   27.14
   4   6   4    1.12    0.76
  -4  -6  -4    2.55    0.64
  -4  -6  -5  166.64    8.85
  -4  -6  -5  173.22    9.31
  -4  -6  -6   43.91    3.27
  -4  -6  -6   43.99    2.94
  -4  -6  -7    4.71    0.88
  -4  -6  -7    4.65    1.01
  -4  -6  -8   35.54    2.88
  -4  -6  -8   39.74    2.79
   4   6   8   36.88    3.39
  -4  -6  -9    1.50    0.66
  -4  -6  -9    1.49    0.66
   4   6   9    0.69    0.77
   4   6  10  497.01   27.58
  -4  -6 -10  550.56   26.28
   4   6  10  534.35   27.21
  -4  -6 -10  524.19   26.23
   4   6  11    4.18    1.40
  -4  -6 -11    5.98    1.05
   4   6  11    5.00    1.35
  -4  -6 -11    6.62    1.18
   4   6  12   73.93    6.21
  -4  -6 -12   75.17    4.85
  -4  -6 -12   65.97    4.49
   4   6  13   33.77    4.20
  -4  -6 -13   39.53    3.28
  -4  -6 -13   43.13    3.51
  -4  -6 -13   34.62    2.95
  -4  -6 -14   63.28    4.41
   4   6  14   73.40    6.41
  -4  -6 -14   58.61    4.72
   4   6  15   12.03    2.69
  -4  -6 -15   15.58    2.13
  -4  -6 -15   11.99    1.70
   4   6  16    1.49    1.55
  -4  -6 -16    3.77    1.20
  -4  -6 -16    1.06    0.74
  -4  -6 -16    2.16    0.94
   4   6  17  561.85   27.95
  -4  -6 -17  542.32   25.25
  -4  -6 -17  476.97   25.05
  -4  -6 -17  427.83   24.22
   4   6  18    7.71    2.04
  -4  -6 -18    7.70    1.39
  -4  -6 -18   10.41    1.69
   4   6  19   25.68    3.17
  -4  -6 -19   26.96    2.69
  -4  -6 -19   20.34    2.20
  -4  -6 -20   31.45    2.97
  -4  -6 -20   35.55    3.75
  -4  -6 -21   13.47    1.65
  -4  -6 -21   17.94    2.36
  -4  -6 -22   42.35    3.01
  -4  -6 -22   44.50    3.59
  -4  -6 -23    5.57    0.88
   4   7 -17   42.20    2.88
   4   7 -16    0.15    0.60
   4   7 -16    0.55    0.46
   4   7 -15   46.62    3.75
   4   7 -15   56.89    3.64
   4   7 -15   56.69    3.69
   4   7 -15   53.73    3.67
   4   7 -14    1.11    0.98
   4   7 -14    0.77    0.64
   4   7 -14    1.38    0.78
   4   7 -14    2.05    0.84
   4   7 -13   19.70    2.31
   4   7 -13   18.66    2.13
   4   7 -13   23.76    2.41
   4   7 -13   20.45    2.30
   4   7 -12  114.41    7.95
   4   7 -12  147.02    8.13
   4   7 -12  129.54    7.84
   4   7 -12  135.24    8.29
   4   7 -12  132.28    8.12
   4   7 -11    3.03    1.20
   4   7 -11    2.55    1.12
   4   7 -11    2.64    0.80
   4   7 -11    4.02    1.31
   4   7 -11    3.72    1.24
   4   7 -11    3.41    1.12
   4   7 -10  256.15   13.97
   4   7 -10  277.43   14.10
   4   7 -10  240.19   13.07
   4   7 -10  233.99   13.63
   4   7 -10  256.26   13.71
   4   7 -10  275.39   14.72
   4   7 -10  238.59   14.07
   4   7 -10  247.80   14.00
   4   7  -9    0.92    1.05
   4   7  -9    0.34    1.01
   4   7  -9    0.69    0.72
   4   7  -9    1.13    0.72
   4   7  -9    2.16    0.78
   4   7  -9    1.60    1.03
   4   7  -9    1.85    1.09
   4   7  -9    1.94    1.04
   4   7  -9    1.06    0.91
   4   7  -9    0.82    0.79
   4   7  -8  286.43   15.06
   4   7  -8  293.81   15.37
   4   7  -8  294.20   15.53
   4   7  -8  269.33   14.43
   4   7  -8  276.42   15.40
   4   7  -8  265.87   15.66
   4   7  -8  279.66   15.03
   4   7  -8  286.20   15.36
   4   7  -8  266.61   15.18
   4   7  -7  221.87   12.46
   4   7  -7  211.69   11.34
   4   7  -7  190.20   11.52
   4   7  -7  223.56   12.14
   4   7  -7  202.96   11.64
   4   7  -7  205.89   11.36
   4   7  -7  190.39   10.82
   4   7  -7  203.71   12.00
   4   7  -7  197.87   11.55
   4   7  -6    9.56    1.47
   4   7  -6    7.39    1.52
   4   7  -6    7.83    1.56
   4   7  -6    9.03    1.56
   4   7  -6    6.46    1.52
   4   7  -6    8.02    1.77
   4   7  -6    7.51    1.39
   4   7  -6    9.58    1.53
   4   7  -5   93.98    5.82
   4   7  -5   92.65    6.22
  -4  -7   5   91.31    6.05
   4   7  -5   89.53    6.61
   4   7  -5   96.75    6.81
   4   7  -5   99.16    5.86
   4   7  -5  102.53    7.02
   4   7  -5   96.48    6.17
   4   7  -5   83.99    6.05
  -4  -7   4    0.27    0.55
   4   7  -4    0.51    0.49
   4   7  -4    0.72    0.72
   4   7  -4    1.38    0.82
   4   7  -4    0.70    0.61
   4   7  -4    0.21    0.73
   4   7  -4   -0.16    0.67
   4   7  -4    0.42    0.75
   4   7  -4    0.90    0.61
   4   7  -4    0.14    0.63
   4   7  -3  130.39    8.07
  -4  -7   3  136.92    8.05
   4   7  -3  146.81    8.85
   4   7  -3  145.73    8.96
   4   7  -3  123.43    8.27
   4   7  -3  147.84    8.95
  -4  -7   2    1.24    0.65
   4   7  -2    1.44    0.89
   4   7  -2    2.27    1.01
   4   7  -2    1.92    0.86
   4   7  -1   50.94    4.34
  -4  -7   1   55.79    3.94
  -4  -7   0  258.57   13.66
   4   7   0  257.76   14.45
   4   7   0  260.95   14.51
  -4  -7  -1    1.63    0.61
   4   7   1    1.30    0.83
  -4  -7  -2  128.59    7.48
  -4  -7  -3    1.73    0.73
  -4  -7  -4  312.95   15.85
   4   7   4  328.50   17.46
  -4  -7  -5   34.72    2.63
   4   7   5   38.11    3.68
  -4  -7  -6  161.20    8.73
  -4  -7  -6  147.82    8.37
   4   7   6  149.86    9.63
  -4  -7  -7    4.72    1.06
  -4  -7  -7    7.24    1.23
   4   7   7    6.12    1.51
  -4  -7  -8   12.57    1.67
  -4  -7  -8   14.97    1.70
   4   7   8   11.77    2.03
  -4  -7  -9  443.22   21.96
  -4  -7  -9  421.23   21.74
   4   7  10   14.74    2.46
  -4  -7 -10   13.48    1.75
   4   7  10   11.76    2.12
  -4  -7 -10   12.35    1.68
   4   7  11  149.68   10.09
   4   7  11  170.88   10.99
  -4  -7 -11  156.65    9.04
  -4  -7 -11  157.48    9.09
   4   7  12  156.49   10.64
  -4  -7 -12  141.35    8.23
  -4  -7 -12  142.57    8.57
   4   7  13    8.15    2.25
  -4  -7 -13    6.69    1.48
  -4  -7 -13    4.70    1.13
   4   7  14  167.33   11.51
  -4  -7 -14  143.53    9.01
  -4  -7 -14  138.87    8.74
   4   7  15    1.89    1.52
  -4  -7 -15    0.16    0.64
   4   7  16   20.63    3.46
  -4  -7 -16   22.27    2.56
   4   7  17    0.66    1.22
  -4  -7 -17   -0.50    0.91
  -4  -7 -17    1.48    0.80
   4   7  18   34.98    4.14
  -4  -7 -18   36.73    3.32
   4   7  19   64.36    5.41
  -4  -7 -19   65.29    4.69
  -4  -7 -20    0.47    0.58
  -4  -7 -21   18.27    1.85
  -4  -7 -21   22.06    2.49
  -4  -7 -22    0.60    0.60
  -4  -7 -23    0.83    0.49
   4   8 -16   11.82    1.16
   4   8 -15    6.33    0.97
   4   8 -14   21.29    2.12
   4   8 -14   25.37    2.25
   4   8 -14   26.49    2.12
   4   8 -13   56.52    4.24
   4   8 -13   72.33    4.52
   4   8 -13   60.65    4.34
   4   8 -13   70.00    4.54
   4   8 -12    2.95    0.98
   4   8 -12    2.31    0.99
   4   8 -12    0.94    0.78
   4   8 -12    2.23    0.93
   4   8 -12    1.90    0.80
   4   8 -11   83.92    5.82
   4   8 -11  105.39    6.37
   4   8 -11   88.70    5.90
   4   8 -11   99.66    6.57
   4   8 -11   88.65    5.97
   4   8 -10    4.41    1.13
   4   8 -10    4.54    1.33
   4   8 -10    3.25    0.92
   4   8 -10    2.99    1.20
   4   8 -10    5.70    1.28
   4   8 -10    1.68    0.88
   4   8  -9    9.54    1.59
   4   8  -9    9.58    1.83
   4   8  -9    9.77    1.77
   4   8  -9   10.38    1.61
   4   8  -9    9.02    1.49
   4   8  -9   10.65    2.00
   4   8  -9    8.55    1.62
   4   8  -9   10.99    1.75
   4   8  -8  126.12    7.86
   4   8  -8  138.90    8.52
   4   8  -8  137.03    8.43
   4   8  -8  126.72    8.66
   4   8  -8  128.93    8.32
   4   8  -8  133.81    7.93
   4   8  -8  132.77    8.19
   4   8  -7   38.59    3.24
   4   8  -7   34.84    3.54
   4   8  -7   36.97    3.71
   4   8  -7   36.88    3.64
   4   8  -7   42.76    3.30
   4   8  -7   38.88    3.44
   4   8  -7   39.82    3.98
   4   8  -6  159.14    9.01
   4   8  -6  164.88    9.76
   4   8  -6  163.25   10.03
   4   8  -6  152.39   10.02
   4   8  -6  162.16    8.99
   4   8  -6  165.55   10.46
   4   8  -6  148.47    9.29
   4   8  -5    0.11    0.60
   4   8  -5   -0.35    0.81
   4   8  -5    0.87    0.80
   4   8  -5   -0.17    0.72
   4   8  -5    0.25    1.03
   4   8  -5    0.96    0.57
   4   8  -5    0.44    0.67
   4   8  -4   77.80    5.54
  -4  -8   4   77.85    5.27
   4   8  -4   81.00    6.06
   4   8  -4   73.84    5.58
   4   8  -4   71.46    4.68
   4   8  -4   84.80    6.28
   4   8  -4   70.31    5.11
   4   8  -4   77.01    5.74
   4   8  -3   26.26    2.95
   4   8  -3   23.25    2.57
   4   8  -3   23.89    2.97
  -4  -8   3   20.68    2.43
   4   8  -3   27.60    3.13
   4   8  -3   26.33    3.15
   4   8  -2   63.44    5.27
   4   8  -2   69.41    4.87
  -4  -8   2   64.00    4.80
   4   8  -2   61.32    5.21
   4   8  -2   71.14    5.61
   4   8  -2   62.20    5.36
   4   8  -1  313.48   18.21
  -4  -8   1  334.55   17.56
   4   8  -1  344.06   18.47
   4   8  -1  346.67   18.75
   4   8  -1  351.54   18.54
   4   8  -1  317.03   18.32
   4   8   0   50.85    4.54
  -4  -8   0   47.79    3.91
   4   8   0   55.86    4.68
   4   8   0   55.51    4.74
   4   8   0   50.91    4.57
   4   8   0   54.25    4.83
   4   8   1  251.17   15.37
  -4  -8  -1  274.86   14.62
   4   8   1  285.21   15.56
   4   8   1  284.86   15.78
   4   8   1  273.49   15.84
  -4  -8  -2   15.07    1.90
   4   8   2   12.88    2.29
   4   8   3  133.55    8.97
  -4  -8  -3  130.65    7.86
   4   8   4   42.57    4.25
  -4  -8  -4   42.66    3.55
   4   8   4   51.31    4.63
   4   8   5   11.83    2.17
   4   8   5   14.33    2.42
   4   8   6  334.12   19.84
   4   8   6  331.01   19.44
  -4  -8  -6  371.21   18.69
   4   8   6  401.11   20.44
  -4  -8  -7   17.77    1.84
   4   8   7   14.67    2.57
   4   8   7   13.36    2.34
   4   8   7   16.93    2.67
  -4  -8  -7   16.67    1.99
   4   8   8   23.38    3.09
  -4  -8  -8   20.70    2.34
   4   8   8   17.82    2.74
  -4  -8  -8   21.72    2.20
   4   8   8   19.80    3.02
  -4  -8  -9    1.59    0.77
   4   8   9    0.27    0.67
  -4  -8  -9   -0.15    0.64
   4   8  10   48.63    4.94
  -4  -8 -10   48.31    3.86
  -4  -8 -10   46.72    3.67
   4   8  10   43.87    4.60
   4   8  11   71.69    6.37
  -4  -8 -11   64.31    4.65
  -4  -8 -11   64.44    4.72
   4   8  11   66.98    5.67
  -4  -8 -12    6.28    1.25
  -4  -8 -12    9.89    1.64
   4   8  13  204.13   12.91
  -4  -8 -13  184.58   10.62
  -4  -8 -13  170.99   10.32
   4   8  14   16.92    3.09
  -4  -8 -14   17.01    2.21
  -4  -8 -14   16.02    2.06
   4   8  15   57.00    5.83
  -4  -8 -15   57.70    4.41
  -4  -8 -15   52.82    4.42
   4   8  16   25.63    3.68
  -4  -8 -16   26.94    2.74
   4   8  17    6.13    1.73
  -4  -8 -17    3.86    1.07
   4   8  18   54.91    5.11
  -4  -8 -18   55.56    4.17
   4   8  19    7.53    1.73
  -4  -8 -19    9.31    1.43
   4   8  20   22.50    2.44
  -4  -8 -21    4.51    1.10
  -4  -8 -22   13.50    1.70
   4   9 -14   12.27    1.25
   4   9 -14   19.97    1.65
   4   9 -13    2.13    0.65
   4   9 -13    4.21    0.90
   4   9 -13    3.45    0.81
   4   9 -13    3.16    0.82
   4   9 -12   72.60    4.73
   4   9 -12   70.52    4.43
   4   9 -12   79.81    4.93
   4   9 -11    4.45    1.00
   4   9 -11    7.86    1.44
   4   9 -11    6.75    1.42
   4   9 -11    7.79    1.25
   4   9 -10    0.61    0.60
   4   9 -10    0.65    0.92
   4   9 -10    1.77    1.05
   4   9 -10    0.86    0.76
   4   9  -9   32.86    2.96
   4   9  -9   41.53    3.71
   4   9  -9   36.03    3.01
   4   9  -8    6.46    1.21
   4   9  -8    8.07    1.73
   4   9  -8    5.94    1.33
   4   9  -8    7.92    1.50
   4   9  -8    7.39    1.25
   4   9  -7  232.54   13.12
   4   9  -7  256.08   14.28
   4   9  -7  267.32   14.32
   4   9  -7  254.48   14.67
   4   9  -7  240.78   14.20
   4   9  -7  261.56   13.27
   4   9  -6   19.99    2.59
   4   9  -6   16.65    2.43
   4   9  -6   19.10    2.88
   4   9  -6   18.62    2.51
   4   9  -6   14.24    1.75
   4   9  -5   64.93    4.97
   4   9  -5   58.69    5.06
   4   9  -5   56.50    3.87
   4   9  -5   67.22    5.57
   4   9  -4    9.55    1.85
  -4  -9   4   11.49    1.72
   4   9  -4   13.85    2.29
   4   9  -4   10.88    1.98
   4   9  -4   15.62    2.53
   4   9  -4    9.40    1.83
   4   9  -3   21.23    2.76
   4   9  -3   14.86    2.23
   4   9  -3   20.55    3.05
  -4  -9   3   20.75    2.33
   4   9  -3   21.23    2.90
   4   9  -3   20.88    2.82
   4   9  -2   90.81    6.99
   4   9  -2   86.79    6.14
  -4  -9   2   91.40    6.24
   4   9  -2  102.59    7.47
   4   9  -2   94.78    7.13
   4   9  -2   99.99    7.41
  -4  -9   1   13.11    1.90
   4   9  -1   16.63    2.58
   4   9  -1   13.33    2.42
   4   9  -1   12.37    2.37
   4   9  -1    9.82    2.05
   4   9  -1   13.95    2.40
   4   9   0  719.83   38.27
  -4  -9   0  741.09   37.14
   4   9   0  761.57   38.43
   4   9   0  765.40   38.77
   4   9   0  787.45   38.70
   4   9   0  710.88   38.21
   4   9   1    1.33    1.03
   4   9   1    1.04    1.04
   4   9   1    0.85    1.09
   4   9   1    1.67    1.20
  -4  -9  -1    0.34    0.86
   4   9   2  148.47   10.14
  -4  -9  -2  168.65    9.24
   4   9   2  158.15   10.61
   4   9   3   73.58    5.79
  -4  -9  -3   81.80    5.72
   4   9   3   83.42    7.11
   4   9   4    7.97    2.02
   4   9   4    7.42    1.63
  -4  -9  -4    9.73    1.73
   4   9   4    8.90    2.22
   4   9   5  188.68   12.16
   4   9   5  175.39   11.45
   4   9   5  199.79   12.54
   4   9   6   39.10    4.31
   4   9   6   39.19    4.06
  -4  -9  -6   39.90    3.69
   4   9   6   49.45    4.86
  -4  -9  -7  240.71   13.17
   4   9   7  217.95   14.04
   4   9   7  231.68   13.91
   4   9   7  239.53   14.55
   4   9   8   42.25    4.55
  -4  -9  -8   42.55    3.81
   4   9   8   46.05    4.51
   4   9   8   52.48    4.99
   4   9   9   79.33    6.47
  -4  -9  -9   70.71    5.37
   4   9   9   83.92    6.72
   4   9  10   57.09    5.29
  -4  -9 -10   57.43    4.45
   4   9  11    0.86    1.16
  -4  -9 -11    2.32    0.84
   4   9  11    1.25    0.97
   4   9  11    0.73    0.77
   4   9  12  119.59    8.38
  -4  -9 -12   92.55    6.31
   4   9  13   38.76    4.45
  -4  -9 -13   34.72    3.18
   4   9  14   29.09    3.77
  -4  -9 -14   22.78    2.49
   4   9  15    8.10    2.02
  -4  -9 -15    4.87    1.17
   4   9  16   22.54    3.34
  -4  -9 -16   25.62    2.56
   4   9  17    1.82    1.27
  -4  -9 -17    2.56    0.92
   4   9  18    5.82    1.55
  -4  -9 -18    3.34    0.89
   4   9  19  206.10   12.00
   4   9  20    2.53    0.85
  -4  -9 -21    0.25    0.59
  -4  -9 -22    0.35    0.45
   4  10 -13   22.04    1.70
   4  10 -13   11.63    1.31
   4  10 -12    3.31    0.88
   4  10 -12    2.36    0.74
   4  10 -11   46.10    3.38
   4  10 -11   36.01    2.68
   4  10 -11   45.17    3.49
   4  10 -10   48.55    3.78
   4  10 -10   42.23    3.02
   4  10 -10   46.41    3.91
   4  10  -9    1.09    1.02
   4  10  -9    0.41    0.85
   4  10  -9    0.08    0.47
   4  10  -8  246.73   12.56
   4  10  -8  204.40   11.32
   4  10  -7   16.63    2.26
   4  10  -7   14.13    2.11
   4  10  -7   13.46    1.56
   4  10  -6   92.35    6.01
   4  10  -6   77.64    6.03
   4  10  -6   83.85    6.25
   4  10  -6   70.91    4.83
   4  10  -6   97.37    7.08
   4  10  -5   40.17    3.80
   4  10  -5   38.94    4.10
   4  10  -5   46.27    4.50
   4  10  -5   50.81    4.95
   4  10  -4    3.85    1.21
   4  10  -4    4.01    1.38
   4  10  -4    4.24    1.40
   4  10  -4    5.34    1.73
   4  10  -3   28.06    2.72
  -4 -10   3   19.58    2.47
   4  10  -3   22.94    3.19
   4  10  -3   27.05    3.35
   4  10  -3   27.57    3.64
   4  10  -3   18.50    2.89
   4  10  -3   23.99    3.24
   4  10  -2   15.28    1.95
  -4 -10   2   11.37    1.80
   4  10  -2   16.90    2.66
   4  10  -2   16.27    2.64
   4  10  -2   16.16    2.77
   4  10  -2   12.84    2.61
   4  10  -1  138.40    9.73
  -4 -10   1  128.56    8.27
   4  10  -1  154.55   10.26
   4  10  -1  143.28    9.84
   4  10  -1  121.32    9.61
   4  10  -1  124.91    9.71
   4  10   0   39.98    4.52
  -4 -10   0   32.30    3.25
   4  10   0   41.37    4.56
   4  10   0   35.20    4.49
   4  10   0   33.58    4.39
   4  10   0   36.58    4.38
   4  10   1   23.88    3.66
  -4 -10  -1   20.65    2.49
   4  10   1   17.96    3.20
   4  10   1   21.12    3.33
   4  10   1   20.25    3.33
   4  10   2   26.00    3.66
   4  10   2   23.03    2.86
  -4 -10  -2   29.42    2.94
   4  10   2   34.55    4.19
   4  10   2   18.49    3.36
   4  10   2   21.58    3.58
   4  10   3    0.38    1.20
   4  10   3    1.04    0.87
  -4 -10  -3   -0.17    0.73
  -4 -10  -4  135.73    8.53
   4  10   4  134.51    9.75
   4  10   4  131.87    8.93
   4  10   4  144.34   10.94
   4  10   5   -0.22    0.89
   4  10   5    1.14    1.00
   4  10   5   -0.36    1.20
   4  10   5   -0.30    0.89
   4  10   6   50.39    4.90
   4  10   6   40.06    4.12
  -4 -10  -6   41.50    3.80
   4  10   6   40.65    4.64
   4  10   7    2.13    1.15
  -4 -10  -7    0.70    0.85
   4  10   7    1.37    1.10
   4  10   7    0.58    1.08
   4  10   8   33.36    3.79
   4  10   8   26.83    3.41
  -4 -10  -8   26.84    2.97
   4  10   8   31.35    3.86
   4  10   9    3.32    1.34
  -4 -10  -9    1.17    0.80
   4  10   9    2.11    1.14
   4  10   9    5.10    1.67
   4  10  10   25.96    3.36
  -4 -10 -10   25.78    2.74
   4  10  11  170.52   10.76
   4  10  11  168.99   10.46
  -4 -10 -12    4.44    1.13
   4  10  12    5.78    1.54
   4  10  12    6.45    1.92
   4  10  13    0.85    1.18
  -4 -10 -13    0.78    0.67
   4  10  14   31.21    3.79
  -4 -10 -14   23.47    2.50
   4  10  15    1.09    1.29
  -4 -10 -15    0.50    0.57
   4  10  16   10.75    2.23
   4  10  17    2.07    1.15
   4  10  18    8.23    1.69
   4  10  19    3.64    1.04
   4  10  20   13.79    1.56
   4  10  20    9.15    1.50
  -4 -10 -21   14.89    1.81
   4  11 -12    1.82    0.51
   4  11 -11   20.39    1.73
   4  11 -11   19.24    1.94
   4  11 -10    1.13    0.63
   4  11 -10    0.55    0.69
   4  11  -9  138.52    7.72
   4  11  -9  130.24    8.45
   4  11  -8    0.58    0.78
   4  11  -7   99.89    6.26
   4  11  -6   25.11    2.98
   4  11  -6   31.82    2.82
   4  11  -6   26.86    3.59
   4  11  -5    7.03    1.30
   4  11  -5    6.43    1.69
   4  11  -5    7.38    2.08
   4  11  -4  123.03    7.26
   4  11  -4  109.90    8.27
   4  11  -4  103.34    8.16
   4  11  -3   17.23    1.94
   4  11  -3   13.66    2.58
   4  11  -3   12.31    2.44
   4  11  -3   17.18    3.08
   4  11  -2   38.41    4.55
  -4 -11   2   34.05    3.48
   4  11  -2   38.67    4.57
   4  11  -2   44.26    4.72
   4  11  -2   38.92    4.76
   4  11  -1    5.40    1.89
  -4 -11   1    4.35    1.21
   4  11  -1    4.92    1.88
   4  11  -1    6.70    1.99
   4  11  -1    6.27    2.14
  -4 -11   0    1.02    0.85
   4  11   0    2.15    1.55
   4  11   0    2.90    1.65
   4  11   0    1.09    1.15
   4  11   0    0.35    0.95
   4  11   0    3.45    1.76
   4  11   1   36.13    4.48
  -4 -11  -1   35.93    3.52
   4  11   1   53.22    5.50
   4  11   1   40.77    5.23
   4  11   1   37.12    4.72
   4  11   1   40.02    4.74
  -4 -11  -2    3.85    1.19
   4  11   2    3.98    1.68
   4  11   2    4.27    1.79
   4  11   2    4.28    1.90
   4  11   2    5.26    1.77
   4  11   2    5.30    1.27
   4  11   3   33.27    3.61
   4  11   3   41.58    4.78
   4  11   3   38.01    5.01
  -4 -11  -3   34.56    3.40
   4  11   4    5.53    1.84
   4  11   4    3.67    1.74
  -4 -11  -4    2.14    1.00
   4  11   4    1.90    0.98
   4  11   5   47.59    4.90
   4  11   5   40.06    4.06
   4  11   5   47.36    5.35
   4  11   5   46.38    4.92
   4  11   6    4.51    1.47
   4  11   6    6.70    1.89
   4  11   6    6.60    1.82
   4  11   6    5.68    1.88
   4  11   7    1.17    1.10
  -4 -11  -7   -0.18    0.71
   4  11   7    0.59    0.93
   4  11   7    0.32    1.13
   4  11   7    1.92    1.44
   4  11   8   86.39    6.88
   4  11   8   85.42    6.56
  -4 -11  -8   72.64    5.72
   4  11   8   86.08    7.13
   4  11   9   66.38    5.85
   4  11   9   66.89    5.77
  -4 -11  -9   66.54    5.13
   4  11   9   67.55    6.06
  -4 -11 -10   13.74    2.03
   4  11  10   14.19    2.45
  -4 -11 -11   17.95    2.28
   4  11  11   20.23    2.83
   4  11  11   18.26    2.65
   4  11  12    8.93    2.07
   4  11  12    6.44    1.65
  -4 -11 -12    4.85    1.03
   4  11  13   45.75    4.51
  -4 -11 -13   31.28    2.88
   4  11  14   21.68    3.08
   4  11  15   58.19    5.26
   4  11  16   14.75    2.41
   4  11  17    9.65    1.83
   4  11  18    0.32    0.72
   4  11  19    1.43    0.64
   4  11  19    1.32    0.78
   4  11  20    2.83    0.79
  -4 -11 -21    4.59    0.98
   4  12 -10   26.20    2.20
   4  12  -9    0.38    0.43
   4  12  -9    1.18    0.75
   4  12  -8   74.78    4.38
   4  12  -8   71.78    5.57
   4  12  -7    2.11    0.71
   4  12  -6   11.63    1.42
   4  12  -6   11.91    2.32
   4  12  -5   50.32    3.48
   4  12  -5   45.64    4.39
   4  12  -5   58.60    5.40
   4  12  -4   13.97    1.56
   4  12  -4   12.63    2.41
   4  12  -4   17.50    2.99
   4  12  -3   74.10    6.51
   4  12  -3   59.02    5.67
   4  12  -2    0.84    1.12
   4  12  -2    0.68    0.98
   4  12  -2    0.93    1.38
   4  12  -1    4.58    1.58
   4  12  -1    4.20    1.48
   4  12  -1    5.21    1.91
   4  12   0   69.50    6.42
   4  12   0   76.38    6.67
   4  12   0   72.74    6.67
   4  12   1    1.15    1.20
   4  12   1    0.93    1.15
   4  12   1    2.02    1.16
   4  12   2   43.75    4.72
   4  12   2   33.62    3.62
  -4 -12  -2   36.91    3.79
   4  12   2   50.80    5.14
   4  12   2   46.44    5.10
   4  12   2   42.13    4.60
   4  12   2   53.73    5.43
  -4 -12  -3    2.48    1.13
   4  12   3    4.87    1.63
   4  12   3    6.77    1.44
   4  12   3    0.33    1.32
   4  12   3    3.67    1.45
   4  12   3    3.65    1.52
   4  12   4   25.94    3.56
   4  12   4   26.74    3.09
  -4 -12  -4   25.82    2.94
   4  12   4   32.41    3.91
   4  12   4   31.07    4.08
   4  12   5    3.10    1.23
  -4 -12  -5    3.04    1.15
   4  12   5    1.93    1.27
   4  12   5    4.47    1.75
   4  12   6   22.50    3.15
   4  12   6   19.30    2.64
   4  12   6   15.25    2.80
   4  12   6   21.68    3.37
   4  12   7   97.41    7.11
   4  12   7   87.63    6.38
   4  12   7   90.77    7.38
   4  12   7   77.30    6.89
   4  12   8   15.56    2.61
   4  12   8   15.08    2.43
  -4 -12  -8   10.33    1.88
   4  12   8   15.26    2.80
   4  12   9    0.47    1.01
   4  12   9   -0.25    0.88
   4  12   9    1.74    1.21
   4  12  10    9.81    1.98
   4  12  10   10.68    2.12
   4  12  11   14.76    2.33
   4  12  12    7.25    1.62
   4  12  13   19.91    2.84
   4  12  14   44.03    4.31
   4  12  15   21.61    2.80
   4  12  16    0.18    0.82
   4  12  17    0.16    0.74
   4  12  17   -0.16    0.73
   4  12  18    2.44    0.83
   4  12  18    1.07    0.75
   4  12  19    1.75    0.61
   4  12  19    1.58    0.66
   4  13  -8    0.08    0.37
   4  13  -6   26.59    2.83
   4  13  -5   14.79    2.28
   4  13  -4   26.72    3.15
   4  13  -3    1.03    0.92
   4  13  -3    0.43    0.93
   4  13  -2    3.06    1.25
  -4 -13   2    1.51    0.75
   4  13  -2    2.48    1.28
   4  13  -1   10.91    2.08
   4  13  -1   11.32    2.17
   4  13   0    4.22    1.40
   4  13   0    6.29    1.72
   4  13   1   13.06    2.29
   4  13   1    8.80    1.82
   4  13   1    8.31    1.96
   4  13   2    8.64    1.93
   4  13   2    9.51    1.99
   4  13   2    7.45    1.97
   4  13   3    1.98    1.18
   4  13   3    2.40    1.17
   4  13   4    3.20    1.13
   4  13   4    4.65    1.51
   4  13   4    4.16    1.53
   4  13   5   36.10    3.91
   4  13   5   30.93    3.23
   4  13   5   37.86    4.12
   4  13   6  142.88    8.85
   4  13   6  142.34    9.12
   4  13   6  135.06    8.06
   4  13   7    0.59    0.79
   4  13   7    1.92    1.14
   4  13   7    0.80    0.99
   4  13   8    0.60    0.87
   4  13   8    0.23    1.04
   4  13   8    1.32    1.10
   4  13   9    2.01    1.06
   4  13   9    0.82    0.82
   4  13   9    0.77    0.95
   4  13  10   15.94    2.35
   4  13  10   10.44    2.22
   4  13  10   11.95    2.09
   4  13  11    2.25    1.19
   4  13  11    2.29    1.03
   4  13  11    1.90    1.16
  -4 -13 -12   10.38    1.57
   4  13  13   42.78    4.04
   4  13  14   28.16    3.05
   4  13  14   27.90    3.23
   4  13  15    0.16    0.76
   4  13  15   -0.17    0.71
   4  13  16    0.28    0.71
   4  13  16   -0.15    0.64
   4  13  17    3.41    0.91
   4  13  17    1.57    0.76
   4  13  18    0.62    0.48
   4  14  -5    1.04    0.58
   4  14  -4    4.26    1.00
   4  14  -3    0.26    0.59
   4  14  -2   53.07    4.07
   4  14  -2   52.34    4.16
   4  14  -1    0.48    0.73
  -4 -14   1    0.63    0.48
   4  14  -1    0.92    0.77
  -4 -14   0    3.66    0.89
   4  14   0    2.34    1.00
   4  14   0    2.25    0.96
  -4 -14  -1    3.42    0.95
   4  14   1    2.92    1.12
   4  14   1    1.15    0.92
   4  14   2    3.86    1.39
   4  14   2    3.13    1.13
  -4 -14  -2    3.18    0.99
   4  14   3   -1.00    0.99
   4  14   3    0.65    0.70
   4  14   4    7.19    1.51
   4  14   4    4.02    1.23
   4  14   5   21.61    2.69
   4  14   5   25.93    3.01
   4  14   6   76.08    5.35
   4  14   6   83.18    5.61
   4  14   7   25.34    2.73
   4  14   7   23.15    3.03
   4  14   7   28.49    3.25
   4  14   8    8.38    1.78
   4  14   8    7.73    1.74
   4  14   8    8.73    1.59
   4  14   9    0.16    0.78
   4  14   9    0.18    0.72
   4  14   9   -0.20    0.82
  -4 -14  -9    0.79    0.64
  -4 -14 -10    6.53    1.33
   4  14  10    7.41    1.54
   4  14  10   11.16    1.76
   4  14  10    8.33    1.76
   4  14  11   17.33    2.17
   4  14  11   15.68    2.23
   4  14  12    6.05    1.54
   4  14  13    7.99    1.64
   4  14  14    1.02    0.83
   4  14  15   -0.11    0.51
   4  14  16    7.91    1.27
   4  15  -2    4.82    0.87
   4  15  -1   16.40    1.72
   4  15   0    0.44    0.46
   4  15   0    0.44    0.46
   4  15   1    0.33    0.59
   4  15   1   -0.19    0.64
   4  15   2    5.88    1.10
   4  15   3   -0.14    0.66
  -4 -15  -3    1.04    0.53
   4  15   3    1.12    0.56
  -4 -15  -4    5.85    1.15
   4  15   4    4.38    0.96
  -4 -15  -5    0.55    0.59
   4  15   5    0.31    0.45
  -4 -15  -6    2.77    0.79
   4  15   6    3.18    0.98
   4  15   7    3.52    1.15
   4  15   8   12.84    1.57
  -4 -15  -8    9.87    1.48
   4  15   8   11.03    1.58
   4  15   9    0.10    0.52
   4  15   9   -0.22    0.52
   4  15  10   21.35    2.10
   4  15  10   16.43    2.02
   4  15  11   10.74    1.45
   4  15  11    8.17    1.33
   4  15  12    4.87    0.97
   4  15  12    3.52    0.81
   4  15  13    0.30    0.40
  -5  11   4    8.72    1.07
  -5  11   4    8.30    0.96
  -5  11   3   -0.20    0.38
  -5  11   2    4.22    0.78
  -5  11   1    5.33    0.90
  -5  11  -1   24.42    1.94
  -5  10   7    2.79    0.65
  -5  10   7    2.19    0.55
  -5  10   6    4.29    0.83
  -5  10   5   -0.40    0.51
   5 -10  -4    1.58    0.52
  -5  10   4    1.72    0.72
  -5  10   3   21.03    2.11
   5 -10  -3   16.70    1.67
   5 -10  -2    1.50    0.57
  -5  10   2    1.38    0.73
  -5  10   1   16.00    1.97
   5 -10  -1   17.60    1.68
   5 -10   0    0.49    0.53
   5 -10   0    0.22    0.44
   5 -10   1    5.31    1.12
   5 -10   1    8.19    1.05
  -5  10  -1    7.18    1.24
   5 -10   2    2.35    0.81
   5 -10   2    2.08    0.60
  -5  10  -2    2.08    0.69
  -5  10  -3    2.56    0.77
  -5  10  -4   51.20    3.73
   5 -10   4   64.77    3.79
   5 -10   5    1.81    0.57
   5 -10   6    1.26    0.47
   5 -10   7   -0.05    0.22
   5  -9 -12   -0.23    0.42
   5  -9 -11    1.74    0.71
   5  -9 -10    9.64    1.45
   5  -9  -9   14.33    1.80
  -5   9   8   16.13    1.61
  -5   9   8   15.33    1.65
   5  -9  -8   15.11    1.91
   5  -9  -7    7.31    1.35
  -5   9   7    7.14    1.21
   5  -9  -7    3.65    1.14
   5  -9  -6    0.54    0.77
   5  -9  -6    0.89    0.58
  -5   9   6    0.99    0.66
   5  -9  -5    3.65    0.89
  -5   9   5    3.47    0.97
  -5   9   4   43.93    3.80
   5  -9  -4   48.36    3.47
  -5   9   3   26.02    2.67
   5  -9  -3   23.72    2.29
   5  -9  -3   25.90    2.54
  -5   9   2   68.11    5.18
   5  -9  -2   75.09    4.77
   5  -9  -2   74.21    5.01
   5  -9  -1    1.37    0.86
   5  -9  -1    3.60    0.86
  -5   9   1    1.78    0.94
   5  -9   0    2.08    0.84
   5  -9   1    5.01    1.13
  -5   9  -2    0.56    0.80
  -5   9  -3   94.40    6.10
  -5   9  -4    0.13    0.56
   5  -9   5   14.48    2.20
  -5   9  -5   16.78    1.92
   5  -9   5   19.86    1.92
   5  -9   6   -0.09    0.50
   5  -9   7    5.86    0.92
  -5   9  -7    4.32    0.65
   5  -9   8    3.99    0.75
  -5   9  -8    2.09    0.48
   5  -9   9    0.11    0.29
   5  -9  10   30.71    2.04
   5  -8 -13    0.86    0.60
   5  -8 -12    9.26    1.49
   5  -8 -11   11.74    1.81
   5  -8 -10   55.29    4.43
   5  -8  -9    3.30    1.15
   5  -8  -9    2.75    0.84
  -5   8   8   28.49    2.57
   5  -8  -8   30.62    3.11
   5  -8  -7   11.91    2.00
   5  -8  -7   13.93    1.71
  -5   8   7   11.93    1.69
  -5   8   6   15.33    2.00
   5  -8  -6   13.19    2.13
   5  -8  -6   14.06    1.77
  -5   8   5   35.65    3.37
   5  -8  -5   36.39    3.51
   5  -8  -5   36.42    3.11
  -5   8   4    7.76    1.50
   5  -8  -4    6.04    1.27
   5  -8  -4    5.92    1.38
   5  -8  -4    7.96    1.32
   5  -8  -3   60.53    4.19
  -5   8   3   56.59    4.58
   5  -8  -3   48.33    4.35
   5  -8  -3   58.08    4.32
  -5   8   2    2.01    1.00
   5  -8  -2    3.22    1.00
   5  -8  -2    3.83    1.01
  -5   8   1    2.87    1.09
   5  -8  -1    3.24    1.06
  -5   8   0   22.43    2.77
   5  -8   0   24.28    2.55
   5  -8   1   12.12    1.78
  -5   8  -2   40.12    3.69
   5  -8   2   38.40    3.37
  -5   8  -3   -0.96    0.82
  -5   8  -3    0.41    0.49
  -5   8  -4   56.64    4.35
  -5   8  -4   51.90    3.76
  -5   8  -5   30.88    3.05
  -5   8  -5   34.94    2.76
   5  -8   5   31.14    2.99
   5  -8   6    4.54    1.06
  -5   8  -6    3.50    0.92
  -5   8  -6    3.32    1.00
  -5   8  -7   30.41    2.55
   5  -8   7   31.60    2.78
   5  -8   8    5.67    1.12
  -5   8  -8    5.41    1.02
  -5   8  -9  130.30    7.17
   5  -8   9  127.70    7.32
   5  -8  10    1.33    0.60
  -5   8 -10    2.78    0.72
  -5   8 -11   22.06    1.82
   5  -8  11   24.10    1.88
  -5   8 -12   18.83    1.45
   5  -8  12   19.93    1.44
   5  -7 -15    2.39    0.71
   5  -7 -12    5.21    1.42
   5  -7 -11   42.12    3.80
   5  -7 -11   34.17    2.86
   5  -7 -10   -0.41    0.94
   5  -7 -10    0.11    0.71
   5  -7  -9    8.54    1.82
   5  -7  -9    8.01    1.38
  -5   7   8   42.09    3.56
   5  -7  -8   41.21    4.16
   5  -7  -8   49.59    3.71
  -5   7   7   39.41    3.49
   5  -7  -7   42.94    4.13
   5  -7  -7   41.15    3.45
  -5   7   6   19.78    2.44
   5  -7  -6   23.84    2.90
   5  -7  -6   20.72    2.28
   5  -7  -5   21.81    2.94
   5  -7  -5   29.28    2.68
  -5   7   5   25.98    2.84
   5  -7  -5   26.80    2.69
   5  -7  -4   28.02    3.18
   5  -7  -4   28.67    2.79
   5  -7  -4   29.77    2.85
   5  -7  -3    4.14    1.06
   5  -7  -3    4.21    1.60
  -5   7   3    1.93    0.88
   5  -7  -3    1.96    1.08
   5  -7  -3    2.68    1.33
   5  -7  -3    3.63    1.07
   5  -7  -2    7.38    2.02
   5  -7  -2    6.67    1.33
  -5   7   2    6.91    1.54
   5  -7  -2    5.74    1.40
   5  -7  -1  240.60   13.66
   5  -7  -1  217.74   11.62
   5  -7   0    9.70    1.64
   5  -7   0   10.33    2.24
   5  -7   0    7.78    2.18
   5  -7   1  142.28    9.54
   5  -7   1  121.55    7.64
   5  -7   2    0.17    0.75
   5  -7   2    0.32    0.93
  -5   7  -2    0.18    0.62
   5  -7   2    0.34    0.92
   5  -7   3   16.83    2.27
  -5   7  -4   19.39    2.39
  -5   7  -5   -0.33    0.70
  -5   7  -6  105.44    7.37
  -5   7  -6  127.21    7.43
   5  -7   6  126.85    7.67
   5  -7   7    1.07    0.75
  -5   7  -7    0.40    0.70
  -5   7  -7    1.01    0.70
  -5   7  -8   44.97    3.62
   5  -7   8   46.84    3.74
   5  -7   9    1.08    0.69
  -5   7  -9    0.49    0.71
  -5   7 -10   49.17    3.46
  -5   7 -10   62.81    4.09
   5  -7  10   57.25    4.05
  -5   7 -11  167.88    8.24
   5  -7  11  153.76    8.20
   5  -7  12    0.38    0.52
  -5   7 -12    0.16    0.38
  -5   7 -12    0.67    0.79
  -5   7 -12    0.26    0.54
  -5   7 -13   58.67    4.15
  -5   7 -13   68.72    3.85
   5  -7  13   67.07    3.74
  -5   7 -14    0.42    0.41
   5  -6 -16    9.40    1.32
   5  -6 -15    1.19    0.78
   5  -6 -14    4.31    0.86
   5  -6 -14    4.59    1.07
   5  -6 -13    7.01    1.10
   5  -6 -13    6.80    1.10
   5  -6 -13    5.49    1.24
   5  -6 -12   82.57    5.30
   5  -6 -12   86.89    5.52
   5  -6 -12   88.60    6.16
   5  -6 -11    0.39    0.59
   5  -6 -11    1.52    0.78
   5  -6 -11    0.23    0.88
   5  -6 -11    0.56    0.69
   5  -6 -10   10.59    1.46
   5  -6 -10   11.50    2.23
   5  -6 -10   11.88    1.74
   5  -6 -10   10.40    1.90
   5  -6  -9    9.46    1.82
   5  -6  -9   12.31    1.54
   5  -6  -9   16.46    2.62
   5  -6  -9   12.81    2.18
   5  -6  -8   13.22    1.63
  -5   6   8   13.45    1.87
   5  -6  -8   17.32    2.66
   5  -6  -8   15.53    2.28
   5  -6  -8   16.63    2.09
   5  -6  -7   29.71    2.53
  -5   6   7   31.86    3.00
   5  -6  -7   30.92    3.63
   5  -6  -7   25.89    3.44
   5  -6  -7   30.37    2.92
   5  -6  -6    4.66    0.99
   5  -6  -6    5.52    1.62
  -5   6   6    3.75    1.06
   5  -6  -6    3.22    1.32
   5  -6  -6    5.38    1.21
   5  -6  -5   33.42    2.77
   5  -6  -5   42.32    4.09
  -5   6   5   35.16    3.47
   5  -6  -5   35.71    4.23
   5  -6  -5   45.05    3.46
   5  -6  -5   36.60    3.19
   5  -6  -4   23.92    3.37
   5  -6  -4   15.42    2.54
   5  -6  -4   26.69    3.50
  -5   6   4   20.75    2.55
   5  -6  -4   27.35    2.53
   5  -6  -4   19.00    2.20
   5  -6  -3    3.81    1.02
   5  -6  -3    7.97    2.04
  -5   6   3    4.66    1.27
   5  -6  -3    6.22    1.85
  -5   6   2   73.05    5.35
   5  -6  -2   68.57    6.46
   5  -6  -2   65.17    4.79
   5  -6  -1    5.53    1.25
  -5   6   1    4.60    1.25
   5  -6   0  174.52   11.29
   5  -6   0  147.41   11.04
   5  -6   0  150.03    9.31
   5  -6   1   10.34    1.82
   5  -6   1   15.01    2.89
   5  -6   1   13.06    2.73
   5  -6   2   10.79    1.78
   5  -6   2   10.71    2.57
   5  -6   2    9.87    2.46
  -5   6  -2   11.32    1.89
   5  -6   3   -0.17    0.68
   5  -6   3   -0.70    1.40
   5  -6   3    0.37    0.93
  -5   6  -3    0.90    0.69
   5  -6   4   14.51    2.07
   5  -6   4   12.20    2.66
  -5   6  -4   12.09    1.91
   5  -6   5   16.68    3.14
  -5   6  -5   19.89    2.38
   5  -6   6    1.59    1.06
  -5   6  -6    0.49    0.48
   5  -6   7   49.30    3.94
  -5   6  -7   40.55    3.71
  -5   6  -8    7.02    1.43
   5  -6   8   11.77    1.74
   5  -6   8    9.61    2.03
   5  -6   9   13.55    1.89
  -5   6  -9   14.21    2.02
   5  -6  10   65.23    4.69
  -5   6 -10   64.18    4.86
   5  -6  11    3.79    1.01
  -5   6 -11    5.08    1.20
   5  -6  12   90.57    5.85
  -5   6 -12   87.55    6.69
  -5   6 -12  106.92    6.28
  -5   6 -13    0.42    0.61
   5  -6  13    1.13    0.58
  -5   6 -13    0.83    0.74
  -5   6 -13    1.29    0.85
  -5   6 -14   54.71    3.44
  -5   6 -14   45.09    3.62
  -5   6 -14   54.80    3.76
  -5   6 -14   55.46    4.11
   5  -6  14   55.94    3.58
  -5   6 -15    5.47    0.86
  -5   6 -15    7.92    1.14
   5  -6  15    7.70    0.93
   5  -5 -17    1.77    0.62
   5  -5 -16    0.26    0.62
   5  -5 -16   -0.41    0.56
   5  -5 -15   62.46    4.26
   5  -5 -15   62.85    4.73
   5  -5 -14    0.29    0.56
   5  -5 -14   -0.59    1.05
   5  -5 -14   -0.29    0.61
   5  -5 -14   -0.67    0.72
   5  -5 -13   40.38    3.21
   5  -5 -13   42.94    3.33
   5  -5 -13   33.74    3.64
   5  -5 -12   71.31    4.75
   5  -5 -12   68.67    4.90
   5  -5 -12   64.54    5.49
   5  -5 -11   17.93    1.99
   5  -5 -11   16.78    2.74
   5  -5 -11   14.34    2.36
   5  -5 -11   17.49    2.20
   5  -5 -10   72.90    4.85
   5  -5 -10   66.93    6.08
   5  -5 -10   76.56    5.27
   5  -5 -10   64.90    5.70
   5  -5  -9    4.09    1.04
   5  -5  -9    4.96    1.67
   5  -5  -9    4.40    1.45
   5  -5  -8  166.67    9.19
   5  -5  -8  177.62   11.16
   5  -5  -8  157.37   10.40
   5  -5  -8  168.93    9.73
   5  -5  -8  146.67   10.30
   5  -5  -7   37.26    3.00
  -5   5   7   34.96    3.27
   5  -5  -7   39.77    4.30
   5  -5  -7   37.23    4.13
   5  -5  -7   39.89    3.43
   5  -5  -6   56.13    3.81
   5  -5  -6   49.12    5.00
   5  -5  -6   45.78    4.96
  -5   5   6   51.77    4.28
   5  -5  -6   53.65    4.13
   5  -5  -5  118.75    6.73
   5  -5  -5  118.70    8.83
  -5   5   5  112.95    7.48
   5  -5  -5  120.04    7.22
   5  -5  -5  118.36    8.33
   5  -5  -5  103.72    6.83
   5  -5  -4    0.24    0.48
   5  -5  -4    0.88    1.03
   5  -5  -4    0.10    0.60
   5  -5  -4    0.47    0.88
   5  -5  -4   -0.31    0.90
  -5   5   4    0.36    0.60
   5  -5  -3  113.10    8.22
   5  -5  -3   99.64    5.91
   5  -5  -3   99.82    8.01
  -5   5   3   90.96    6.66
   5  -5  -3   97.10    6.16
  -5   5   2    5.43    1.33
   5  -5  -2    6.25    1.11
   5  -5  -2    4.22    1.07
   5  -5  -2    6.20    1.91
   5  -5  -1   79.53    4.91
  -5   5   1   76.58    5.74
   5  -5  -1   79.72    5.51
   5  -5   0   -0.31    0.77
   5  -5   0    2.44    0.71
   5  -5   0    0.98    1.26
   5  -5   1   71.44    6.29
   5  -5   1   63.27    5.86
   5  -5   2  122.44    7.78
   5  -5   2  148.89    9.81
   5  -5   2  136.76    9.90
  -5   5  -2  116.13    8.05
   5  -5   3   44.00    3.69
   5  -5   3   43.15    4.73
   5  -5   3   46.13    5.07
  -5   5  -3   41.40    3.87
   5  -5   4  500.68   26.11
  -5   5  -4  445.26   24.05
   5  -5   5   13.61    2.60
  -5   5  -5   10.92    1.76
  -5   5  -6  191.93   11.23
   5  -5   6  194.23   12.52
   5  -5   7   24.29    3.28
  -5   5  -7   22.29    2.58
  -5   5  -8   10.35    1.65
  -5   5  -9   20.03    2.34
  -5   5 -10    9.37    1.85
  -5   5 -11  668.07   33.84
  -5   5 -12    1.99    1.24
  -5   5 -13   26.27    2.95
  -5   5 -13   28.47    2.98
   5  -5  14   39.08    3.01
  -5   5 -14   37.76    3.04
  -5   5 -14   34.28    3.29
  -5   5 -15    4.41    0.98
   5  -5  15    4.06    0.88
  -5   5 -15    4.18    1.01
  -5   5 -16   27.29    2.24
   5  -5  16   28.10    2.12
  -5   5 -17    0.65    0.40
  -5   5 -17    0.33    0.46
   5  -4 -18    7.13    1.05
   5  -4 -17    0.68    0.67
   5  -4 -17    1.42    0.65
   5  -4 -16  117.74    7.02
   5  -4 -16   93.30    6.48
   5  -4 -15   33.65    2.75
   5  -4 -15   26.21    2.47
   5  -4 -15   34.19    3.40
   5  -4 -15   28.79    3.07
   5  -4 -14    1.98    0.88
   5  -4 -14    2.19    0.96
   5  -4 -14    1.83    1.18
   5  -4 -14    0.92    1.03
   5  -4 -13   33.97    2.97
   5  -4 -13   39.06    4.14
   5  -4 -13   30.76    2.98
   5  -4 -13   28.10    3.50
   5  -4 -12   31.13    2.78
   5  -4 -12   30.10    3.02
   5  -4 -12   27.28    3.47
   5  -4 -11  110.40    7.12
   5  -4 -11  111.40    6.78
   5  -4 -11   97.63    7.90
   5  -4 -10    2.78    1.51
   5  -4 -10    3.43    1.01
   5  -4 -10    3.19    1.18
   5  -4 -10    1.87    1.31
   5  -4  -9  279.05   14.41
   5  -4  -9  290.60   16.76
   5  -4  -9  242.56   15.82
   5  -4  -8    0.47    0.69
   5  -4  -8    0.12    0.62
   5  -4  -8    1.21    1.47
   5  -4  -8    0.51    0.90
   5  -4  -8    0.80    0.80
   5  -4  -8   -0.24    0.83
   5  -4  -7  115.65    6.74
   5  -4  -7  119.38    8.60
   5  -4  -7  102.51    8.14
  -5   4   7   99.53    6.94
   5  -4  -7  105.01    7.94
   5  -4  -7  125.86    7.31
   5  -4  -6   49.74    3.52
   5  -4  -6   44.81    4.81
   5  -4  -6   43.89    4.74
   5  -4  -6   49.90    3.87
  -5   4   6   40.44    3.82
   5  -4  -5    2.08    1.33
  -5   4   5    2.00    0.87
   5  -4  -5    1.29    0.69
   5  -4  -5    0.80    0.95
   5  -4  -5    1.66    0.83
   5  -4  -4  336.00   16.25
   5  -4  -4  352.16   19.01
   5  -4  -4  306.54   17.98
   5  -4  -4  345.28   16.62
  -5   4   4  327.61   16.94
   5  -4  -3    0.44    0.48
   5  -4  -3    0.89    0.99
  -5   4   3    0.80    0.72
   5  -4  -3    1.14    1.02
   5  -4  -3    1.25    1.15
   5  -4  -3    1.07    0.71
   5  -4  -2  164.85   10.21
   5  -4  -2  130.28    7.60
   5  -4  -2  149.82   10.12
  -5   4   2  144.09    8.40
   5  -4  -2  121.71    7.85
  -5   4   1    1.10    0.78
   5  -4  -1    1.18    0.67
   5  -4   0   94.09    6.98
   5  -4   0   94.20    7.20
  -5   4   0   76.60    5.58
   5  -4   0   75.39    5.28
   5  -4   1  184.42   10.56
   5  -4   1  213.90   12.46
   5  -4   1  204.59   12.53
  -5   4  -1  176.86   10.75
   5  -4   2    1.31    1.09
   5  -4   2    2.78    1.28
   5  -4   3  853.66   43.05
  -5   4  -3  797.92   41.45
   5  -4   3  907.28   42.99
  -5   4  -4    4.08    1.14
   5  -4   4    5.31    1.52
   5  -4   4    4.74    1.04
   5  -4   5  345.23   18.66
  -5   4  -5  335.49   17.43
   5  -4   5  306.39   16.91
   5  -4   6  113.58    8.03
  -5   4  -6  107.29    7.17
   5  -4   7    5.13    1.41
  -5   4  -7    4.70    1.19
   5  -4   8    4.20    1.34
   5  -4   8    5.40    1.20
  -5   4  -8    4.55    1.11
   5  -4   9    4.08    1.12
   5  -4  10  142.97    8.67
   5  -4  11   14.00    1.97
  -5   4 -11   17.17    2.62
   5  -4  12  187.22   10.69
  -5   4 -13  270.67   14.20
   5  -4  13  224.61   13.00
  -5   4 -14   -0.18    0.79
   5  -4  14    0.36    0.56
  -5   4 -15  120.51    7.43
  -5   4 -15  114.89    7.24
  -5   4 -16    1.20    0.93
  -5   4 -16    1.38    0.72
  -5   4 -16    1.81    0.81
   5  -4  17   38.48    2.62
  -5   4 -17   37.20    2.92
  -5   4 -17   35.82    2.74
  -5   4 -17   32.24    2.67
  -5   4 -18    7.17    1.09
  -5   4 -18    6.98    0.92
   5  -3 -18    0.25    0.43
   5  -3 -18    0.60    0.45
   5  -3 -17   37.86    3.19
   5  -3 -17   32.77    2.98
   5  -3 -16    0.10    0.68
   5  -3 -16    1.97    1.02
   5  -3 -16    1.89    0.66
   5  -3 -16    0.82    0.82
   5  -3 -15   31.84    2.87
   5  -3 -15   36.89    3.00
   5  -3 -15   34.04    3.73
   5  -3 -15   34.34    3.58
   5  -3 -14    6.16    1.81
   5  -3 -14    5.92    1.22
   5  -3 -14    1.46    1.20
   5  -3 -14    5.98    1.32
   5  -3 -13   10.03    2.33
   5  -3 -13    7.97    1.47
   5  -3 -13    6.12    1.52
   5  -3 -13    8.47    2.01
   5  -3 -12    8.14    1.67
   5  -3 -12   10.12    1.53
   5  -3 -12    4.78    1.03
   5  -3 -12    7.65    1.99
   5  -3 -11    1.35    0.89
   5  -3 -11    1.08    0.90
   5  -3 -11    1.15    0.68
   5  -3 -11    1.53    1.32
   5  -3 -10  153.44    8.45
   5  -3 -10  160.13    9.09
   5  -3 -10  125.75    7.82
   5  -3 -10  137.22   10.13
   5  -3  -9    1.06    1.30
   5  -3  -9    2.00    0.90
   5  -3  -9    2.29    1.01
   5  -3  -9    1.19    1.00
   5  -3  -9    2.51    0.83
   5  -3  -8   83.35    5.15
   5  -3  -8   73.78    6.84
   5  -3  -8   58.09    5.79
   5  -3  -8   73.46    6.18
   5  -3  -8   84.78    6.71
   5  -3  -8   83.87    5.66
   5  -3  -8   75.48    4.85
   5  -3  -7  130.17    7.19
   5  -3  -7  126.89    9.15
   5  -3  -7  105.97    8.52
   5  -3  -7  113.87    8.36
  -5   3   7  114.10    7.39
   5  -3  -7  124.25    7.60
   5  -3  -7  117.04    8.74
   5  -3  -6    7.32    1.24
  -5   3   6    8.35    1.41
   5  -3  -6    5.36    1.69
   5  -3  -6    6.46    1.51
   5  -3  -6    6.20    1.36
   5  -3  -6    4.41    1.63
   5  -3  -5   46.63    3.41
   5  -3  -5   48.10    4.56
   5  -3  -5   49.79    4.88
   5  -3  -5   46.16    3.66
  -5   3   5   43.01    3.64
   5  -3  -4    0.86    0.65
   5  -3  -4    1.52    0.88
  -5   3   4    0.83    0.60
   5  -3  -4    1.59    1.18
   5  -3  -4    1.28    0.70
  -5   3   3  152.68    8.67
   5  -3  -3  150.33    8.23
   5  -3  -3  132.29    9.14
   5  -3  -3  151.44    9.99
  -5   3   2   26.19    2.54
   5  -3  -2   26.19    2.24
   5  -3  -2   32.59    3.60
   5  -3  -2   24.42    2.75
  -5   3   1   25.69    2.49
   5  -3   0  168.96    9.57
  -5   3   0  176.43    9.90
   5  -3   0  183.91   11.02
   5  -3   1    4.62    1.40
   5  -3   1    3.72    1.33
   5  -3   2  152.03    9.68
   5  -3   2  132.53    8.09
  -5   3  -3   49.15    3.75
   5  -3   3   56.79    4.73
   5  -3   3   43.80    3.46
  -5   3  -4   75.58    5.20
   5  -3   4   82.35    6.16
   5  -3   4   74.48    5.06
   5  -3   5  137.05    8.73
   5  -3   5  124.01    7.64
  -5   3  -5  126.08    7.69
  -5   3  -6    4.75    1.06
   5  -3   6    2.88    1.09
   5  -3   6    5.58    1.22
  -5   3  -7  179.33   10.30
   5  -3   7  180.65   11.08
  -5   3  -8    2.60    0.88
   5  -3   8    4.26    1.24
   5  -3   9   38.89    3.86
  -5   3  -9   39.37    3.54
   5  -3   9   44.92    3.77
   5  -3  10   60.91    4.73
   5  -3  11    9.35    1.66
   5  -3  12   47.09    4.01
  -5   3 -13    2.78    1.17
   5  -3  13    3.34    1.11
  -5   3 -13    2.88    1.26
  -5   3 -14  109.59    7.02
  -5   3 -14  141.07    8.01
  -5   3 -14  125.16    8.05
   5  -3  14  121.82    7.58
  -5   3 -15    1.21    0.82
  -5   3 -15    1.17    0.63
   5  -3  15    0.97    0.77
  -5   3 -15    0.72    0.85
  -5   3 -16   59.73    3.97
  -5   3 -16   59.71    4.46
  -5   3 -16   60.88    4.34
   5  -3  16   65.25    4.30
  -5   3 -17   11.18    1.59
  -5   3 -17    8.76    1.08
  -5   3 -17    9.42    1.36
   5  -3  17    8.74    1.20
  -5   3 -17    7.52    1.25
  -5   3 -18    3.58    0.79
  -5   3 -18    3.91    0.78
  -5   3 -19   32.88    2.15
   5  -2 -18   23.04    2.12
   5  -2 -18   18.65    1.95
   5  -2 -17    0.45    0.69
   5  -2 -17    0.43    0.59
   5  -2 -16   61.95    4.23
   5  -2 -16   58.70    4.98
   5  -2 -16   50.06    3.94
   5  -2 -16   64.50    5.01
   5  -2 -15   25.01    2.59
   5  -2 -15   28.63    2.64
   5  -2 -15   22.75    3.15
   5  -2 -15   27.58    3.45
   5  -2 -14   60.44    4.40
   5  -2 -14   54.89    5.65
   5  -2 -14   59.96    4.58
   5  -2 -14   51.45    5.33
   5  -2 -13  125.45    7.46
   5  -2 -13  128.79    9.65
   5  -2 -13  127.39    7.85
   5  -2 -13  113.20    6.85
   5  -2 -13  115.35    9.07
   5  -2 -13  107.97    7.40
   5  -2 -12    4.32    1.39
   5  -2 -12    6.80    1.36
   5  -2 -12    4.92    2.20
   5  -2 -12    5.35    1.48
   5  -2 -12    4.09    1.01
   5  -2 -12    3.68    1.88
   5  -2 -11  139.68    7.92
   5  -2 -11  142.93    8.66
   5  -2 -11  130.60    7.54
   5  -2 -11  134.09    9.71
   5  -2 -11  113.66    7.32
   5  -2 -10    0.10    0.98
   5  -2 -10    0.13    0.69
   5  -2 -10    0.20    0.97
   5  -2 -10    0.22    0.65
   5  -2 -10    0.59    1.28
   5  -2 -10    0.11    0.56
   5  -2  -9   21.39    2.21
   5  -2  -9   19.00    2.58
   5  -2  -9   18.85    2.02
   5  -2  -9   19.59    2.31
   5  -2  -9   17.79    2.83
   5  -2  -9   23.64    3.54
   5  -2  -9   19.00    2.01
   5  -2  -9   17.29    2.09
   5  -2  -8  212.13   10.86
   5  -2  -8  207.13   10.61
   5  -2  -8  212.21   12.93
   5  -2  -8  173.01   11.82
   5  -2  -8  204.01   12.31
   5  -2  -8  192.84   11.12
   5  -2  -8  194.85   10.69
   5  -2  -8  181.33   10.50
   5  -2  -7    1.35    0.77
   5  -2  -7    2.60    1.27
   5  -2  -7    3.55    0.92
  -5   2   7    1.97    0.76
   5  -2  -7    3.27    1.20
   5  -2  -7    1.60    1.02
   5  -2  -7    3.77    0.86
   5  -2  -7    3.01    1.13
   5  -2  -7    2.68    1.06
   5  -2  -6  216.20   11.17
   5  -2  -6  219.98   12.83
   5  -2  -6  210.92   12.63
   5  -2  -6  220.24   12.65
   5  -2  -6  196.70   10.79
   5  -2  -6  201.70   12.10
   5  -2  -6  202.76   11.67
   5  -2  -6  194.52   10.95
  -5   2   6  219.61   11.39
  -5   2   5   10.10    1.46
   5  -2  -5    9.16    1.33
   5  -2  -5    9.80    1.91
   5  -2  -5   10.87    1.93
   5  -2  -5    9.66    1.44
   5  -2  -5    8.90    1.49
   5  -2  -5    9.75    1.26
  -5   2   4  395.68   18.89
   5  -2  -4  377.18   18.56
   5  -2  -4  339.64   19.50
   5  -2  -4  411.35   20.27
   5  -2  -4  357.94   18.75
   5  -2  -4  330.69   18.80
  -5   2   3   45.70    3.46
   5  -2  -3   49.89    4.36
   5  -2  -3   43.61    3.17
   5  -2  -3   44.82    3.35
   5  -2  -3   42.86    3.38
  -5   2   2   25.98    2.31
   5  -2  -2   21.55    2.72
   5  -2  -2   18.18    1.92
  -5   2   1  208.81   11.42
   5  -2  -1  213.00   12.40
  -5   2   0    6.64    1.14
   5  -2   1  133.90    8.59
   5  -2   2  163.30   10.00
  -5   2  -3  225.94   12.17
   5  -2   3  226.04   13.00
  -5   2  -4  198.12   10.67
   5  -2   4  186.96   11.38
  -5   2  -5    5.06    1.02
   5  -2   5    3.88    1.18
   5  -2   5    3.69    0.91
  -5   2  -6  457.37   22.90
   5  -2   6  474.53   23.91
   5  -2   6  458.19   23.29
   5  -2   6  431.56   23.11
   5  -2   7    0.19    0.69
   5  -2   7    0.79    0.79
  -5   2  -7    0.38    0.49
   5  -2   7    0.95    0.64
   5  -2   8  101.92    6.76
   5  -2   8   92.63    6.68
   5  -2   8   91.62    6.35
  -5   2  -8   96.78    6.08
   5  -2   9   53.54    4.49
   5  -2   9   57.65    4.47
   5  -2   9   50.07    4.45
   5  -2   9   62.07    4.62
  -5   2  -9   54.56    4.11
   5  -2  10   39.46    3.60
   5  -2  10   40.51    3.72
   5  -2  11  104.97    6.96
   5  -2  11  104.39    7.15
  -5   2 -12    0.42    0.55
   5  -2  12    1.69    0.86
   5  -2  12    1.37    0.87
  -5   2 -13  120.08    7.76
  -5   2 -13  138.08    8.65
   5  -2  13  119.92    7.91
  -5   2 -13  140.22    8.30
   5  -2  13  141.67    8.54
  -5   2 -14    6.10    1.43
  -5   2 -14    3.66    0.98
   5  -2  14    2.43    1.08
  -5   2 -14    5.17    1.31
  -5   2 -15    5.57    1.34
  -5   2 -15    5.10    1.12
   5  -2  15    5.02    1.24
  -5   2 -15    5.86    1.31
  -5   2 -16   19.90    2.17
  -5   2 -16   22.81    2.45
  -5   2 -16   21.47    2.25
   5  -2  16   24.38    2.49
  -5   2 -17    7.20    1.30
  -5   2 -17    7.69    1.22
  -5   2 -17    6.84    1.20
   5  -2  17    6.67    1.28
  -5   2 -18  174.67    9.53
  -5   2 -18  186.81    9.71
  -5   2 -18  168.12    9.32
   5  -2  18  178.55    9.59
  -5   2 -19   -0.08    0.48
  -5   2 -19    0.15    0.33
  -5   2 -19    0.06    0.36
  -5   2 -20   82.64    4.70
   5  -1 -18    0.61    0.59
   5  -1 -18    0.74    0.60
   5  -1 -17   25.39    2.81
   5  -1 -17   26.52    2.80
   5  -1 -16   29.03    3.42
   5  -1 -16   26.66    2.54
   5  -1 -16   27.56    3.27
   5  -1 -15    6.81    2.06
   5  -1 -15    6.19    1.41
   5  -1 -15    8.62    2.13
   5  -1 -15    8.42    1.46
   5  -1 -14  281.86   13.76
   5  -1 -14  258.57   16.04
   5  -1 -14  286.72   14.27
   5  -1 -14  270.05   15.83
   5  -1 -14  242.48   13.89
   5  -1 -13   45.42    3.71
   5  -1 -13   44.14    5.19
   5  -1 -13   49.89    4.25
   5  -1 -13   41.75    3.40
   5  -1 -13   53.39    5.26
   5  -1 -13   43.81    4.02
   5  -1 -13   36.72    3.17
   5  -1 -12  156.93    9.08
   5  -1 -12  177.12   11.59
   5  -1 -12  170.72   10.02
   5  -1 -12  144.62    8.66
   5  -1 -12  165.21   10.97
   5  -1 -12  145.98    9.71
   5  -1 -12  140.02    8.51
   5  -1 -11   39.06    3.05
   5  -1 -11   27.16    3.71
   5  -1 -11   41.23    3.32
   5  -1 -11   37.53    4.61
   5  -1 -11   35.82    3.79
   5  -1 -11   34.71    3.06
   5  -1 -11   40.45    4.46
   5  -1 -11   32.24    3.18
   5  -1 -11   36.73    3.77
   5  -1 -10   20.88    2.16
   5  -1 -10   13.62    2.90
   5  -1 -10   22.37    2.28
   5  -1 -10   18.83    2.66
   5  -1 -10   21.25    2.19
   5  -1 -10   24.05    3.19
   5  -1 -10   19.18    2.31
   5  -1 -10   15.32    2.58
   5  -1 -10   17.63    2.09
   5  -1  -9  185.07   10.00
   5  -1  -9  151.17   10.21
   5  -1  -9  190.05   10.18
   5  -1  -9  182.97   11.27
   5  -1  -9  188.75   10.03
   5  -1  -9  187.56   11.59
   5  -1  -9  177.29   10.32
   5  -1  -9  185.31   10.09
   5  -1  -8    8.54    1.41
   5  -1  -8    7.22    2.30
   5  -1  -8    8.47    1.92
   5  -1  -8    8.65    1.41
   5  -1  -8    9.57    1.90
   5  -1  -8    7.88    1.31
   5  -1  -8    9.65    1.82
   5  -1  -8    7.76    1.39
   5  -1  -8    6.26    1.91
   5  -1  -8   11.02    1.44
  -5   1   7  502.08   25.77
   5  -1  -7  498.25   26.08
   5  -1  -7  553.90   25.96
   5  -1  -7  523.00   27.52
   5  -1  -7  518.21   26.95
   5  -1  -7  511.01   26.84
   5  -1  -7  520.33   25.71
   5  -1  -7  507.85   26.99
   5  -1  -7  507.13   26.15
   5  -1  -7  487.47   26.75
   5  -1  -7  487.19   26.08
   5  -1  -7  546.24   25.93
   5  -1  -7  580.99   25.93
   5  -1  -6    0.10    0.52
   5  -1  -6    0.39    0.64
  -5   1   6    0.33    0.54
   5  -1  -6   -0.82    1.73
   5  -1  -6    1.24    0.65
   5  -1  -6    0.56    0.66
   5  -1  -6    0.19    0.64
   5  -1  -6    0.80    0.56
   5  -1  -6    0.53    0.80
   5  -1  -6    0.98    1.20
   5  -1  -6    0.84    0.84
   5  -1  -5  170.09   10.89
   5  -1  -5  222.11   10.84
  -5   1   5  214.97   10.93
   5  -1  -5  190.25   11.65
   5  -1  -5  222.24   11.91
   5  -1  -5  186.90   10.40
   5  -1  -5  216.95   11.10
   5  -1  -5  208.02   11.85
   5  -1  -5  176.92   11.22
   5  -1  -5  177.01   10.83
   5  -1  -5  206.27   10.60
   5  -1  -5  223.44   10.81
   5  -1  -4  175.02    9.98
   5  -1  -4  169.23    8.89
   5  -1  -4  169.07    9.99
  -5   1   4  166.71    9.09
   5  -1  -4  162.90    9.10
   5  -1  -4  140.48    8.92
   5  -1  -3   58.24    4.57
  -5   1   3   55.45    3.97
   5  -1  -2  865.01   43.61
  -5   1   2  892.08   42.85
  -5   1   1    1.40    0.64
   5  -1  -1    0.86    0.72
  -5   1   0    9.12    1.33
   5  -1   1    6.92    1.43
   5  -1   1    8.66    1.27
   5  -1   2   79.47    5.65
   5  -1   2   80.21    5.16
   5  -1   3  294.12   16.13
   5  -1   3  301.67   15.66
   5  -1   4    8.65    1.54
  -5   1  -4   10.35    1.41
   5  -1   5  470.11   23.57
  -5   1  -5  440.36   22.77
   5  -1   5  458.56   23.24
   5  -1   6    3.28    1.06
  -5   1  -6    1.99    0.65
  -5   1  -7  121.16    7.17
   5  -1   7  118.60    7.75
   5  -1   7  121.40    7.85
   5  -1   7  123.54    7.76
   5  -1   7  129.82    7.75
  -5   1  -8  122.52    7.08
   5  -1   8  111.59    7.61
   5  -1   8  118.32    7.65
   5  -1   8  124.51    7.72
   5  -1   8  123.84    7.77
   5  -1   9    2.02    0.87
   5  -1   9    1.90    0.82
   5  -1   9    2.56    1.14
  -5   1  -9    2.21    0.70
  -5   1 -10  110.13    7.03
   5  -1  10  133.39    7.97
  -5   1 -10  115.36    6.99
  -5   1 -11    0.43    0.66
   5  -1  11   -0.39    0.78
   5  -1  11    0.82    0.89
  -5   1 -12  311.18   16.88
  -5   1 -12  325.03   17.50
   5  -1  12  322.49   17.45
   5  -1  12  317.80   17.61
  -5   1 -13    1.55    1.02
  -5   1 -13    1.47    0.84
   5  -1  13    3.42    1.18
   5  -1  13    3.89    1.23
  -5   1 -13    2.27    0.97
  -5   1 -14   69.80    5.24
  -5   1 -14   70.99    5.40
   5  -1  14   71.87    5.33
  -5   1 -14   72.30    5.11
   5  -1  14   76.23    5.75
  -5   1 -15   81.41    5.88
  -5   1 -15   94.53    6.22
  -5   1 -15   81.37    5.60
   5  -1  15   87.13    6.36
  -5   1 -16   11.80    1.73
  -5   1 -16   11.57    1.77
  -5   1 -16    7.86    1.35
   5  -1  16    6.63    1.54
  -5   1 -17  206.20   11.47
  -5   1 -17  217.27   11.44
  -5   1 -17  184.88   10.82
   5  -1  17  214.69   11.74
  -5   1 -18    5.74    1.10
  -5   1 -18    6.53    1.12
  -5   1 -18    5.11    1.13
  -5   1 -18    5.11    0.96
   5  -1  18    4.55    1.09
  -5   1 -19  117.14    6.57
  -5   1 -19  112.92    6.79
  -5   1 -19  109.68    6.54
   5  -1  19  120.46    6.77
  -5   1 -20    0.95    0.49
  -5   1 -20    1.13    0.58
   5  -1  20    1.07    0.47
  -5   1 -21   11.98    1.09
   5   0 -19    1.27    0.44
   5   0 -18    7.66    1.24
   5   0 -18    7.83    1.27
   5   0 -17   45.60    3.88
   5   0 -17   40.39    3.69
   5   0 -17   35.54    2.90
   5   0 -16    6.51    1.16
   5   0 -16    8.15    1.40
   5   0 -16    9.49    2.08
   5   0 -16    6.47    1.40
   5   0 -16    9.76    2.09
   5   0 -16    9.81    1.49
   5   0 -15  222.71   11.94
   5   0 -15  222.92   13.57
   5   0 -15  245.21   14.05
   5   0 -15  229.53   12.30
   5   0 -15  201.83   12.13
   5   0 -15  192.52   11.15
   5   0 -14    0.97    0.71
   5   0 -14   -1.34    2.22
   5   0 -14    0.99    1.22
   5   0 -14   -0.32    1.50
   5   0 -14    1.12    0.81
   5   0 -14    1.18    1.35
   5   0 -14    1.86    0.95
   5   0 -13   36.54    3.20
   5   0 -13   32.20    3.80
   5   0 -13   45.97    4.92
   5   0 -13   46.87    4.36
   5   0 -13   39.93    3.29
   5   0 -13   51.76    5.00
   5   0 -13   39.81    3.81
   5   0 -13   49.84    4.44
   5   0 -12   43.40    3.42
   5   0 -12   32.70    3.73
   5   0 -12   44.99    4.90
   5   0 -12   45.21    4.45
   5   0 -12   46.77    3.52
   5   0 -12   39.35    4.49
   5   0 -12   42.07    3.49
   5   0 -12   37.43    3.90
   5   0 -12   46.44    4.42
   5   0 -11    5.99    1.24
   5   0 -11    6.70    1.81
   5   0 -11    8.57    2.07
   5   0 -11    6.54    1.30
   5   0 -11    6.52    1.77
   5   0 -11    6.31    1.28
   5   0 -11   10.21    2.27
   5   0 -11    6.21    2.05
   5   0 -11    7.54    1.81
   5   0 -10   82.49    5.27
   5   0 -10   68.48    5.25
   5   0 -10   83.08    5.28
   5   0 -10   77.49    6.46
   5   0 -10   81.83    6.43
   5   0 -10   78.89    5.40
   5   0 -10   71.22    5.61
   5   0 -10   84.13    5.33
   5   0 -10   81.75    6.09
   5   0  -9   10.78    1.51
   5   0  -9   10.58    1.79
   5   0  -9   10.80    2.18
   5   0  -9    9.30    1.43
   5   0  -9   10.56    1.58
   5   0  -9   10.35    2.00
   5   0  -9    8.43    1.65
   5   0  -9    7.87    1.40
   5   0  -8  473.74   22.05
   5   0  -8  402.86   21.92
   5   0  -8  442.04   23.53
   5   0  -8  455.02   21.89
   5   0  -8  408.48   22.99
   5   0  -8  450.68   22.32
   5   0  -8  410.64   22.14
   5   0  -8  437.58   21.99
   5   0  -8  423.88   23.36
   5   0  -7    2.62    0.81
   5   0  -7    2.01    0.73
   5   0  -7    2.74    1.05
   5   0  -7    0.66    0.85
   5   0  -7    1.42    0.79
   5   0  -7    0.60    0.93
   5   0  -7    2.26    0.79
   5   0  -7    0.92    0.78
   5   0  -7    2.25    0.85
   5   0  -7    1.69    1.07
   5   0  -7    2.22    0.83
   5   0  -6   64.32    4.01
   5   0  -6   48.53    4.06
   5   0  -6   54.41    4.67
   5   0  -6   53.64    4.40
   5   0  -6   53.40    4.34
   5   0  -6   52.01    4.06
  -5   0   6   60.17    3.94
   5   0  -6   53.41    3.70
   5   0  -6   64.14    4.35
   5   0  -6   58.24    4.57
   5   0  -6   64.09    3.99
   5   0  -5  167.99    8.57
   5   0  -5  142.11    9.08
   5   0  -5  156.04    9.15
  -5   0   5  153.32    8.54
   5   0  -5  141.57    8.53
   5   0  -5  151.80    8.32
   5   0  -4   10.45    1.65
  -5   0   4    9.59    1.33
   5   0  -4    8.24    1.52
   5   0  -3  400.61   20.65
  -5   0   3  402.03   20.10
   5   0  -3  383.94   20.62
   5   0  -2    0.31    0.69
   5   0  -2   -0.16    0.56
   5   0  -1  403.72   21.69
   5   0  -1  436.78   21.79
   5   0   0  150.58    8.24
   5   0   1    6.20    1.24
   5   0   1    5.52    1.02
   5   0   2   59.49    4.43
   5   0   2   63.21    4.18
   5   0   2   54.81    4.37
   5   0   3    8.90    1.51
   5   0   3    9.68    1.55
   5   0   3    9.07    1.47
   5   0   4  272.79   14.91
   5   0   4  261.37   14.91
   5   0   4  297.81   14.89
   5   0   5   11.06    1.63
   5   0   5   10.47    1.66
   5   0   6  328.06   18.31
   5   0   6  356.85   18.40
  -5   0  -6  359.01   17.92
   5   0   7   80.37    5.36
   5   0   7   71.15    5.26
  -5   0  -7   75.02    4.90
   5   0   8   78.66    5.65
   5   0   8   90.25    5.80
   5   0   8   83.70    5.87
  -5   0  -8   82.83    5.26
  -5   0  -9   61.96    4.15
   5   0   9   60.10    4.56
   5   0   9   57.01    4.46
   5   0   9   66.30    4.93
  -5   0 -10   39.78    3.03
   5   0  10   39.53    3.35
  -5   0 -10   37.18    3.21
   5   0  10   39.82    3.74
  -5   0 -11  254.60   14.33
  -5   0 -11  264.58   14.55
   5   0  11  283.62   15.14
  -5   0 -12   17.11    2.19
  -5   0 -12   24.04    2.56
   5   0  12   18.23    2.53
   5   0  13   13.69    2.17
  -5   0 -13   14.40    2.06
  -5   0 -13   15.18    2.06
  -5   0 -13   14.03    1.86
  -5   0 -14   11.81    1.84
  -5   0 -14   10.56    1.81
   5   0  14   12.16    2.01
  -5   0 -14    9.58    1.51
  -5   0 -15    2.54    1.07
  -5   0 -15    2.86    1.10
  -5   0 -15    4.36    1.14
   5   0  15    5.03    1.37
  -5   0 -15    4.79    1.09
  -5   0 -16   40.49    3.72
  -5   0 -16   42.87    3.54
  -5   0 -16   32.84    2.98
   5   0  16   38.76    3.85
  -5   0 -17    2.88    0.96
  -5   0 -17    2.38    0.97
  -5   0 -17    3.46    0.86
   5   0  17    3.46    1.12
  -5   0 -18   76.43    4.81
  -5   0 -18   80.39    5.46
  -5   0 -18   78.33    4.94
   5   0  18   81.38    5.56
  -5   0 -19    1.21    0.67
  -5   0 -19    0.60    0.69
  -5   0 -19    1.33    0.55
   5   0  19    0.43    0.60
  -5   0 -20    0.93    0.53
  -5   0 -20    1.21    0.50
  -5   0 -20    0.75    0.62
   5   0  20    0.76    0.50
  -5   0 -21   10.88    1.07
  -5   0 -21   12.21    1.45
   5   0  21   10.30    1.17
   5   1 -19   15.55    1.43
   5   1 -18   28.28    2.48
   5   1 -18   26.64    2.13
   5   1 -17    0.26    0.65
   5   1 -17    0.51    0.81
   5   1 -17    1.47    0.89
   5   1 -17    0.77    0.60
   5   1 -16  123.19    7.21
   5   1 -16  133.13    9.05
   5   1 -16  142.02    9.03
   5   1 -16  132.73    8.10
   5   1 -15    4.25    1.08
   5   1 -15    1.85    1.92
   5   1 -15    6.20    1.38
   5   1 -15    4.29    1.71
   5   1 -15    5.42    1.52
   5   1 -15    6.08    1.69
   5   1 -15    5.92    1.53
   5   1 -14  149.51    8.64
   5   1 -14  130.83    8.68
   5   1 -14  161.68    9.25
   5   1 -14  169.30   10.70
   5   1 -14  173.93   10.10
   5   1 -14  154.71    8.66
   5   1 -14  160.55   10.38
   5   1 -14  136.04    8.87
   5   1 -14  150.24    9.88
   5   1 -13    2.02    0.95
   5   1 -13    2.36    1.28
   5   1 -13    3.80    1.57
   5   1 -13    2.11    1.06
   5   1 -13    1.50    0.86
   5   1 -13    0.82    1.10
   5   1 -13    1.72    0.75
   5   1 -13    6.14    1.90
   5   1 -13   -0.15    1.83
   5   1 -13    1.20    1.04
   5   1 -12    1.05    0.85
   5   1 -12    0.53    1.06
   5   1 -12    1.28    0.86
   5   1 -12    2.62    1.66
   5   1 -12    0.28    1.49
   5   1 -12    0.39    0.86
   5   1 -12    1.61    1.20
   5   1 -12    1.45    0.66
   5   1 -12    0.78    1.48
   5   1 -12    0.24    0.87
   5   1 -11  149.56    8.78
   5   1 -11  144.43    8.72
   5   1 -11  159.54    9.05
   5   1 -11  148.96   10.24
   5   1 -11  164.79   10.40
   5   1 -11  147.60    8.73
   5   1 -11  156.33   10.15
   5   1 -11  135.51    8.63
   5   1 -11  150.06    9.11
   5   1 -11  152.75    9.80
   5   1 -10    0.64    0.72
   5   1 -10   -0.13    0.72
   5   1 -10   -0.28    0.77
   5   1 -10    0.27    0.90
   5   1 -10    0.75    1.21
   5   1 -10    0.38    0.74
   5   1 -10   -0.48    0.93
   5   1 -10    0.15    0.61
   5   1 -10    0.16    0.85
   5   1 -10    0.42    0.66
   5   1 -10   -0.13    0.68
   5   1  -9   45.62    3.52
   5   1  -9   38.96    3.42
   5   1  -9   48.23    3.62
   5   1  -9   45.39    4.49
   5   1  -9   49.64    3.57
   5   1  -9   42.80    4.21
   5   1  -9   45.45    3.74
   5   1  -9   45.30    3.61
   5   1  -9   46.58    4.06
   5   1  -8    2.88    0.94
   5   1  -8    3.90    1.01
   5   1  -8    3.06    0.99
   5   1  -8    2.95    0.91
   5   1  -8    3.18    0.96
   5   1  -8    2.46    1.24
   5   1  -8    2.29    0.84
   5   1  -8    3.24    1.14
   5   1  -8    2.29    0.88
   5   1  -8    3.23    0.97
   5   1  -7  192.63    9.84
   5   1  -7  176.41    9.67
   5   1  -7  162.82   10.01
   5   1  -7  181.07   10.89
   5   1  -7  166.52    9.48
   5   1  -7  166.60    9.91
   5   1  -7  174.64   10.44
   5   1  -7  185.85   10.07
   5   1  -7  174.43    9.71
   5   1  -7  181.08   10.20
   5   1  -6   81.18    4.91
   5   1  -6   73.44    4.72
   5   1  -6   70.61    5.53
   5   1  -6   78.10    5.22
   5   1  -6   80.14    4.70
  -5  -1   6   73.00    4.73
   5   1  -6   68.78    5.03
   5   1  -6   76.31    5.06
   5   1  -6   73.25    4.97
   5   1  -6   72.33    4.73
   5   1  -5    2.55    0.79
   5   1  -5    1.29    0.68
   5   1  -5    0.83    0.58
   5   1  -5    1.88    0.78
   5   1  -4  114.07    6.79
   5   1  -4  101.63    6.28
   5   1  -4  101.99    6.63
   5   1  -3   14.59    1.61
   5   1  -3   15.70    1.93
   5   1  -3   16.25    1.97
   5   1  -2  260.26   13.93
   5   1  -2  268.63   14.06
   5   1  -2  249.63   13.27
   5   1  -1   29.88    2.38
   5   1  -1   32.25    2.94
   5   1  -1   35.42    3.01
   5   1  -1   31.04    2.28
   5   1   0  141.28    8.55
   5   1   0  144.26    7.80
   5   1   0  150.15    7.97
   5   1   1  205.86   10.00
   5   1   1  169.67    9.35
   5   1   2   44.33    3.65
   5   1   2   44.56    2.85
   5   1   2   51.70    3.83
   5   1   2   51.31    3.52
   5   1   3  332.61   17.99
   5   1   3  335.91   16.77
   5   1   3  376.19   18.16
   5   1   3  361.15   17.85
   5   1   4  107.78    6.43
   5   1   4  106.39    6.31
   5   1   5  293.89   15.65
   5   1   5  294.02   15.58
   5   1   6  213.72   11.82
   5   1   6  213.66   11.87
   5   1   7    0.73    0.61
   5   1   7    1.01    0.60
   5   1   8  479.74   24.28
   5   1   8  482.59   23.91
   5   1   8  449.00   23.81
   5   1   9    1.81    0.84
   5   1   9    3.82    0.93
   5   1   9    3.53    0.93
  -5  -1  -9    2.66    0.76
   5   1   9    3.49    1.17
  -5  -1 -10    7.57    1.16
   5   1  10    5.73    1.39
   5   1  10    6.69    1.21
   5   1  10    8.81    1.69
  -5  -1 -10    7.10    1.29
  -5  -1 -10    7.19    1.24
   5   1  11    5.43    1.40
  -5  -1 -11    3.07    0.96
  -5  -1 -11    4.05    0.85
   5   1  11    4.97    1.38
  -5  -1 -11    6.72    1.29
   5   1  12   99.98    7.16
  -5  -1 -12  103.22    6.88
  -5  -1 -12   99.49    6.58
   5   1  12  120.60    7.64
  -5  -1 -13  225.84   12.73
   5   1  13  232.97   13.27
  -5  -1 -13  228.77   12.34
  -5  -1 -13  206.34   11.84
  -5  -1 -14    6.98    1.36
   5   1  14    8.00    1.74
  -5  -1 -14    6.20    1.19
  -5  -1 -14    7.14    1.60
  -5  -1 -15  237.90   12.63
  -5  -1 -15  230.49   12.29
   5   1  15  229.82   13.15
  -5  -1 -15  230.79   12.97
  -5  -1 -15  189.64   11.60
  -5  -1 -16   15.29    2.00
  -5  -1 -16   11.00    1.66
  -5  -1 -16   14.62    2.29
  -5  -1 -16    9.51    1.45
  -5  -1 -17   29.37    2.74
  -5  -1 -17   27.01    2.37
  -5  -1 -18    2.46    0.89
  -5  -1 -18    3.72    0.95
  -5  -1 -18    1.44    0.98
   5   1  18    2.79    1.15
  -5  -1 -19    0.84    0.63
  -5  -1 -19    1.18    0.58
  -5  -1 -19    1.50    0.94
   5   1  19    0.55    0.92
  -5  -1 -20   50.55    4.07
  -5  -1 -20   50.77    3.28
   5   1  20   56.68    4.06
  -5  -1 -21    3.31    1.05
   5   1  21    3.15    0.87
  -5  -1 -22   63.42    4.10
   5   2 -18    0.96    0.58
   5   2 -18   -0.11    0.52
   5   2 -18    0.21    0.38
   5   2 -17   38.71    2.98
   5   2 -17   46.78    3.87
   5   2 -17   50.38    4.08
   5   2 -17   46.43    3.46
   5   2 -16   12.66    1.56
   5   2 -16   11.57    2.13
   5   2 -16   11.16    2.10
   5   2 -16   12.99    2.10
   5   2 -16   10.61    1.86
   5   2 -15   82.65    5.12
   5   2 -15   70.07    5.05
   5   2 -15   73.37    5.47
   5   2 -15   83.93    6.40
   5   2 -15   69.42    5.16
   5   2 -15   80.82    6.00
   5   2 -14    0.99    0.78
   5   2 -14    0.61    0.87
   5   2 -14    1.89    1.08
   5   2 -14    1.28    1.22
   5   2 -14    1.43    1.28
   5   2 -14    0.46    0.81
   5   2 -14    2.66    1.21
   5   2 -14    0.14    1.53
   5   2 -14    0.44    0.88
   5   2 -13   16.44    2.02
   5   2 -13   18.22    2.07
   5   2 -13   15.98    2.27
   5   2 -13   18.33    2.81
   5   2 -13   15.57    2.72
   5   2 -13   16.31    2.01
   5   2 -13   14.27    1.78
   5   2 -13   19.40    2.79
   5   2 -13   20.78    2.55
   5   2 -13   14.53    2.42
   5   2 -12  189.42   10.32
   5   2 -12  172.90   10.14
   5   2 -12  177.90   10.63
   5   2 -12  194.72   11.84
   5   2 -12  199.50   11.79
   5   2 -12  193.26   11.68
   5   2 -12  158.84    9.88
   5   2 -12  168.48   10.37
   5   2 -12  182.96   10.18
   5   2 -12  181.51   11.17
   5   2 -11   -0.28    0.98
   5   2 -11    0.14    0.78
   5   2 -11    0.34    0.78
   5   2 -11    1.08    1.38
   5   2 -11    1.73    1.26
   5   2 -11    0.14    0.82
   5   2 -11   -0.99    1.03
   5   2 -11    0.14    0.63
   5   2 -11    0.67    0.67
   5   2 -11    1.08    0.97
   5   2 -10   47.65    3.77
   5   2 -10   43.65    3.64
   5   2 -10   50.33    3.96
   5   2 -10   44.34    4.54
   5   2 -10   44.74    4.38
   5   2 -10   44.41    3.66
   5   2 -10   51.19    4.60
   5   2 -10   48.18    3.81
   5   2 -10   40.33    3.83
   5   2 -10   45.00    3.72
   5   2 -10   53.27    4.41
   5   2  -9   24.00    2.48
   5   2  -9   25.25    2.49
   5   2  -9   24.56    2.55
   5   2  -9   24.01    2.66
   5   2  -9   25.69    2.45
   5   2  -9   28.86    3.14
   5   2  -9   27.12    3.14
   5   2  -9   24.17    2.62
   5   2  -9   23.52    2.46
   5   2  -9   25.65    2.85
   5   2  -8   15.05    1.87
   5   2  -8   12.99    1.77
   5   2  -8   13.62    1.97
   5   2  -8   16.55    1.79
   5   2  -8   13.41    2.09
   5   2  -8   15.47    2.02
   5   2  -8   16.77    1.92
   5   2  -8   15.45    2.10
   5   2  -7  182.48   11.11
   5   2  -7  201.23   11.24
   5   2  -7  215.83   12.46
   5   2  -7  214.30   11.82
   5   2  -7  222.00   11.21
   5   2  -7  201.62   11.94
   5   2  -7  207.32   11.87
   5   2  -7  229.88   11.81
   5   2  -7  220.03   11.48
   5   2  -7  200.85   11.66
   5   2  -6    0.43    0.57
   5   2  -6    1.79    0.74
   5   2  -6    1.05    0.57
   5   2  -6    0.75    0.67
   5   2  -6    1.08    0.69
   5   2  -6    1.13    0.63
   5   2  -6    0.92    0.78
   5   2  -6    0.38    0.55
   5   2  -6    0.77    0.83
   5   2  -6    0.42    0.54
   5   2  -5  258.83   13.27
   5   2  -5  258.13   13.77
   5   2  -5  255.38   13.62
   5   2  -5  239.27   13.03
   5   2  -5  266.28   13.25
   5   2  -4   -0.13    0.47
   5   2  -4   -0.40    0.49
   5   2  -3   46.22    3.57
   5   2  -3   49.99    3.75
   5   2  -2   49.14    3.85
   5   2  -2   56.59    3.84
   5   2  -2   57.08    4.02
   5   2  -2   48.08    3.71
   5   2  -1    4.43    1.04
   5   2  -1    7.01    1.28
   5   2  -1    5.47    0.83
   5   2  -1    6.30    1.16
   5   2   0  975.78   47.73
   5   2   0 1035.10   47.16
   5   2   0  933.25   47.51
   5   2   0  962.74   47.72
   5   2   1   99.13    5.82
   5   2   2  101.01    6.39
   5   2   2   97.75    6.37
   5   2   2  109.80    6.24
   5   2   3    2.35    0.83
   5   2   3    2.32    0.60
   5   2   3    1.20    0.62
   5   2   3    0.83    0.80
   5   2   3    1.19    0.70
   5   2   4  234.14   12.06
   5   2   4  241.75   12.91
   5   2   4  237.25   12.72
   5   2   4  236.78   12.90
   5   2   4  250.09   12.92
   5   2   5  217.44   11.53
   5   2   5  246.49   12.57
   5   2   5  246.92   12.39
   5   2   5  224.48   12.44
   5   2   6  181.28    9.67
   5   2   6  193.68   10.69
   5   2   6  198.89   10.54
   5   2   6  207.60   10.79
   5   2   7 1174.43   59.45
   5   2   7 1298.58   59.63
   5   2   8   24.13    2.39
   5   2   9  137.40    8.06
   5   2  10   66.88    5.28
  -5  -2 -10   70.04    4.91
   5   2  10   71.05    4.73
   5   2  11    1.04    0.83
  -5  -2 -11    1.02    0.57
  -5  -2 -11    0.16    0.47
  -5  -2 -11    0.56    0.45
   5   2  12   56.56    4.93
  -5  -2 -12   58.87    4.14
  -5  -2 -12   59.38    4.70
   5   2  12   60.71    5.12
   5   2  13   28.07    3.15
  -5  -2 -13   22.49    2.76
  -5  -2 -13   23.80    2.31
   5   2  13   20.91    2.88
  -5  -2 -13   20.72    2.06
   5   2  14  262.35   15.04
  -5  -2 -14  285.11   15.09
  -5  -2 -14  287.80   14.52
  -5  -2 -14  268.88   13.93
   5   2  14  272.78   15.35
  -5  -2 -14  221.44   13.35
   5   2  15   74.69    5.76
  -5  -2 -15   70.19    5.67
  -5  -2 -15   70.10    5.07
  -5  -2 -15   59.82    4.57
   5   2  15   64.52    5.62
  -5  -2 -16   25.09    2.66
  -5  -2 -16   24.87    2.48
   5   2  16   23.53    3.18
  -5  -2 -16   30.51    3.49
  -5  -2 -17   23.77    3.15
  -5  -2 -17   22.31    2.30
  -5  -2 -18   30.72    2.56
  -5  -2 -18   30.59    3.53
  -5  -2 -18   28.30    2.58
  -5  -2 -19   24.89    2.26
  -5  -2 -19   28.24    3.34
  -5  -2 -19   32.47    2.58
  -5  -2 -20   10.22    1.33
  -5  -2 -20   13.83    2.10
   5   2  20   14.75    2.15
  -5  -2 -21   39.01    3.40
   5   2  21   42.74    3.58
  -5  -2 -22    1.23    0.53
   5   2  22    0.56    0.44
  -5  -2 -23   18.77    1.52
   5   3 -18   35.80    2.52
   5   3 -18   31.19    2.38
   5   3 -17   17.26    1.69
   5   3 -17   12.88    1.89
   5   3 -17   18.93    2.13
   5   3 -17   20.68    2.10
   5   3 -16    2.90    0.88
   5   3 -16    2.66    1.22
   5   3 -16    5.98    1.35
   5   3 -16    4.05    1.22
   5   3 -16    3.33    1.10
   5   3 -15   38.49    3.11
   5   3 -15   38.14    3.06
   5   3 -15   40.60    3.87
   5   3 -15   40.93    3.82
   5   3 -15   35.62    3.29
   5   3 -15   40.54    3.71
   5   3 -14   16.93    2.12
   5   3 -14   14.74    1.93
   5   3 -14   15.77    2.31
   5   3 -14   22.10    2.88
   5   3 -14   25.20    2.91
   5   3 -14   19.61    2.44
   5   3 -14   20.37    2.61
   5   3 -13  117.45    6.97
   5   3 -13  112.20    6.81
   5   3 -13  106.19    7.32
   5   3 -13  127.28    8.21
   5   3 -13  119.08    7.95
   5   3 -13  112.95    7.77
   5   3 -13   85.37    6.14
   5   3 -13  109.67    6.95
   5   3 -13  119.41    7.72
   5   3 -12    6.39    1.43
   5   3 -12    5.64    1.71
   5   3 -12    5.55    1.69
   5   3 -12    4.77    1.48
   5   3 -12    4.03    1.01
   5   3 -12    6.40    1.52
   5   3 -12    7.50    1.51
   5   3 -12    6.63    1.58
   5   3 -11  145.64    9.69
   5   3 -11  162.62    8.99
   5   3 -11  142.07    9.29
   5   3 -11  154.12   10.12
   5   3 -11  157.46    9.94
   5   3 -11  143.34    8.77
   5   3 -11  162.38    9.38
   5   3 -11  139.88    9.40
   5   3 -10   81.32    5.78
   5   3 -10   69.59    5.59
   5   3 -10   80.96    6.47
   5   3 -10   88.25    6.40
   5   3 -10   83.98    5.87
   5   3 -10   78.13    5.90
   5   3  -9   13.68    2.04
   5   3  -9   15.22    2.48
   5   3  -9   16.53    2.38
   5   3  -9   16.22    2.22
   5   3  -8  157.72    9.49
   5   3  -8  158.58    9.98
   5   3  -8  172.37    9.87
   5   3  -7   11.68    1.69
   5   3  -7   11.64    1.65
   5   3  -7   11.63    1.71
   5   3  -7   14.55    1.97
   5   3  -7   11.71    1.83
   5   3  -7   14.28    2.00
   5   3  -7   13.86    1.66
   5   3  -7   11.38    1.79
   5   3  -7   12.53    1.80
   5   3  -6  208.20   10.87
   5   3  -6  195.74   10.59
   5   3  -6  183.97   10.59
   5   3  -6  191.92   11.20
   5   3  -6  178.59   11.33
   5   3  -6  194.54   11.02
   5   3  -6  181.47   11.03
   5   3  -6  200.36   10.53
   5   3  -6  202.14   11.09
   5   3  -6  190.87   11.07
   5   3  -6  205.16   11.32
   5   3  -6  193.69   10.93
   5   3  -5   11.96    1.55
   5   3  -5    6.88    1.27
   5   3  -5   10.17    1.36
   5   3  -5   12.06    1.76
   5   3  -5   10.50    1.64
   5   3  -5   10.50    1.76
   5   3  -5   11.49    1.59
   5   3  -5    8.27    1.32
   5   3  -5    8.95    1.51
   5   3  -5   11.04    1.38
   5   3  -5   10.81    1.57
   5   3  -4  121.82    7.22
   5   3  -4  109.27    6.70
   5   3  -4  106.35    6.69
   5   3  -3  270.93   14.07
   5   3  -3  259.26   14.06
   5   3  -2  122.03    7.25
   5   3  -2  120.21    7.25
   5   3  -1  684.95   33.67
   5   3  -1  670.28   32.77
   5   3  -1  711.69   33.79
   5   3   0   24.73    2.43
   5   3   0   27.80    2.10
   5   3   0   26.54    2.50
   5   3   0   23.51    2.27
   5   3   1  210.17   11.60
   5   3   1  227.47   11.52
   5   3   2   76.74    5.09
   5   3   2   78.17    4.86
   5   3   3   66.89    4.22
   5   3   3   61.87    4.42
   5   3   3   64.81    4.49
   5   3   4   40.72    2.93
   5   3   4   41.42    3.28
   5   3   4   38.40    3.19
   5   3   5    0.63    0.53
   5   3   5    0.77    0.70
   5   3   6  262.78   14.06
   5   3   6  267.62   14.11
   5   3   7   78.20    5.18
   5   3   7   80.14    5.23
   5   3   8  133.51    7.81
   5   3   8  132.22    7.81
   5   3   9    1.46    0.63
   5   3   9    1.78    0.71
   5   3  10    1.98    0.96
   5   3  10    0.68    0.54
  -5  -3 -10    2.74    0.90
   5   3  11  106.29    7.37
  -5  -3 -11  105.19    7.05
   5   3  12   68.98    5.68
  -5  -3 -12   75.66    5.12
  -5  -3 -12   66.72    5.38
   5   3  13  101.47    7.31
  -5  -3 -13  105.15    6.59
  -5  -3 -13  109.40    7.33
  -5  -3 -13   90.71    5.89
   5   3  14    3.00    1.31
  -5  -3 -14    2.00    0.74
  -5  -3 -14    4.04    1.50
   5   3  15  163.94   10.59
  -5  -3 -15  173.53    9.72
  -5  -3 -15  157.39    9.12
   5   3  15  166.24   10.86
  -5  -3 -15  151.66   10.52
   5   3  16    4.77    1.45
  -5  -3 -16    7.06    1.43
  -5  -3 -16    6.37    1.17
  -5  -3 -16    7.26    1.92
   5   3  16    5.94    1.70
   5   3  17   88.54    6.79
  -5  -3 -17   90.25    5.96
  -5  -3 -17   88.48    5.66
  -5  -3 -17   92.51    7.26
  -5  -3 -18   15.30    1.65
  -5  -3 -18   16.20    1.81
  -5  -3 -18   17.06    2.65
  -5  -3 -19    1.98    0.70
  -5  -3 -19    2.38    1.23
  -5  -3 -20   18.28    2.45
  -5  -3 -20   20.00    1.92
  -5  -3 -21    1.95    0.84
   5   3  21    1.56    1.00
   5   3  22    0.10    0.60
   5   4 -18    1.00    0.51
   5   4 -17    0.25    0.50
   5   4 -17   -0.22    1.01
   5   4 -17   -0.10    0.57
   5   4 -16   29.27    2.43
   5   4 -16   34.34    2.94
   5   4 -16   25.16    2.40
   5   4 -16   31.19    2.85
   5   4 -15    0.30    0.72
   5   4 -15   -0.16    0.88
   5   4 -15    0.17    0.64
   5   4 -15    1.45    1.29
   5   4 -15    0.16    0.69
   5   4 -14  118.27    7.23
   5   4 -14  132.35    8.21
   5   4 -14  120.79    8.01
   5   4 -14  118.38    7.34
   5   4 -14  124.02    7.92
   5   4 -13    0.26    0.77
   5   4 -13    0.66    0.81
   5   4 -13    0.25    0.69
   5   4 -13    0.63    0.84
   5   4 -13    0.16    0.65
   5   4 -13    0.58    0.86
   5   4 -12   89.10    5.92
   5   4 -12   89.44    6.16
   5   4 -12  103.62    7.08
   5   4 -12   98.51    6.76
   5   4 -12   94.90    5.98
   5   4 -12   90.28    6.64
   5   4 -12   75.16    5.46
   5   4 -12   88.85    6.24
   5   4 -12  100.42    6.72
   5   4 -11   13.56    1.93
   5   4 -11   12.58    1.84
   5   4 -11   14.80    2.37
   5   4 -11   10.80    1.70
   5   4 -11    8.80    1.63
   5   4 -11   11.83    2.05
   5   4 -11   12.35    1.71
   5   4 -11   12.30    1.98
   5   4 -11   11.29    1.89
   5   4 -10   11.21    1.80
   5   4 -10   10.41    1.80
   5   4 -10   12.34    2.17
   5   4 -10   11.83    1.81
   5   4 -10   13.79    2.17
   5   4 -10   11.30    1.66
   5   4 -10   11.90    1.96
   5   4 -10   10.52    1.69
   5   4 -10   11.45    1.95
   5   4 -10    7.32    1.57
   5   4  -9   76.36    5.31
   5   4  -9   73.95    5.10
   5   4  -9   67.33    4.99
   5   4  -9   74.74    5.48
   5   4  -9   85.92    6.20
   5   4  -9   73.44    5.62
   5   4  -9   69.12    5.49
   5   4  -9   75.61    5.11
   5   4  -9   74.90    5.67
   5   4  -9   73.30    4.99
   5   4  -9   64.05    5.14
   5   4  -9   76.02    5.57
   5   4  -8    0.46    0.79
   5   4  -8    0.41    0.69
   5   4  -8    0.13    0.64
   5   4  -8   -0.45    0.90
   5   4  -8   -0.39    0.81
   5   4  -8    0.37    0.75
   5   4  -8   -0.18    0.75
   5   4  -8   -0.13    0.67
   5   4  -8   -0.39    0.76
   5   4  -8    0.13    0.67
   5   4  -8    0.35    0.79
   5   4  -8   -0.60    0.82
   5   4  -7   58.96    4.48
   5   4  -7   67.30    4.46
   5   4  -7   60.27    4.25
   5   4  -7   56.86    4.59
   5   4  -7   57.62    4.17
   5   4  -7   62.25    4.76
   5   4  -7   57.04    4.69
   5   4  -7   60.77    4.27
   5   4  -7   69.31    5.03
   5   4  -7   62.95    4.59
   5   4  -7   61.85    4.65
   5   4  -6   33.35    2.98
   5   4  -6   32.47    2.74
   5   4  -6   30.60    2.61
   5   4  -6   29.97    3.26
   5   4  -6   29.57    2.91
   5   4  -6   32.43    2.61
   5   4  -6   27.04    2.94
   5   4  -6   29.83    2.97
   5   4  -6   32.38    2.69
   5   4  -6   35.22    3.21
   5   4  -6   32.69    2.94
   5   4  -6   28.12    2.82
   5   4  -5   44.89    3.67
   5   4  -5   48.33    3.50
   5   4  -5   48.42    4.09
   5   4  -5   43.94    3.98
   5   4  -5   49.03    3.67
   5   4  -5   47.79    4.05
   5   4  -5   44.32    3.29
   5   4  -5   48.45    3.48
   5   4  -5   49.01    3.97
   5   4  -5   44.54    3.64
   5   4  -5   53.24    3.76
   5   4  -5   51.92    3.77
   5   4  -4  174.93   10.33
   5   4  -4  172.69    9.82
   5   4  -3  130.07    7.78
   5   4  -3  143.01    8.15
   5   4  -2  555.48   27.83
   5   4  -2  565.98   28.12
   5   4  -1   59.23    4.27
   5   4  -1   58.50    4.07
   5   4  -1   57.49    3.34
   5   4  -1   52.61    4.14
   5   4   0 1286.33   61.43
   5   4   0 1306.69   60.63
   5   4   0 1262.02   61.49
   5   4   0 1217.27   61.19
   5   4   1   61.36    4.33
  -5  -4  -2  106.21    5.61
   5   4   2  108.39    6.51
   5   4   3  147.07    8.60
  -5  -4  -3  151.76    7.83
   5   4   3  153.87    8.57
  -5  -4  -4   22.72    1.89
   5   4   4   27.74    2.49
   5   4   4   28.07    2.60
  -5  -4  -5  502.21   24.46
   5   4   5  507.97   25.11
   5   4   5  488.05   25.26
   5   4   6    2.67    0.82
   5   4   6    2.25    0.84
  -5  -4  -6    2.53    0.74
   5   4   7   75.63    5.20
   5   4   7   82.17    5.50
  -5  -4  -7   87.95    5.10
  -5  -4  -8   14.12    1.62
   5   4   8   12.84    1.63
   5   4   8   16.36    1.95
  -5  -4  -9   97.24    5.97
   5   4   9   99.62    6.33
   5   4  10   33.50    3.52
  -5  -4 -10   40.84    3.17
   5   4  10   40.13    3.30
   5   4  11   55.49    4.94
  -5  -4 -11   66.36    4.40
  -5  -4 -11   52.12    4.69
   5   4  11   60.09    4.32
   5   4  12   12.78    2.15
  -5  -4 -12   11.88    1.71
  -5  -4 -12   12.22    2.09
   5   4  13    1.26    1.06
  -5  -4 -13    3.66    1.10
  -5  -4 -13    1.34    0.97
   5   4  14  200.91   12.54
  -5  -4 -14  195.46   12.22
   5   4  15  122.53    8.89
  -5  -4 -15  137.34    8.93
  -5  -4 -15  122.00    7.24
   5   4  16   19.10    2.97
  -5  -4 -16   25.68    3.18
  -5  -4 -16   20.34    2.39
  -5  -4 -16   23.25    2.19
   5   4  17   16.31    2.69
  -5  -4 -17   15.07    1.92
  -5  -4 -17   11.98    1.57
  -5  -4 -17   10.68    2.17
   5   4  17   14.94    2.76
   5   4  18  140.66    9.26
  -5  -4 -18  124.21    7.51
  -5  -4 -18  130.78    8.82
  -5  -4 -19   42.95    3.35
   5   4  22   13.72    1.70
  -5  -4 -23    1.71    0.48
   5   5 -17    6.67    1.15
   5   5 -17    6.65    1.04
   5   5 -16    3.10    0.82
   5   5 -16    1.19    0.99
   5   5 -16    3.41    0.91
   5   5 -15   92.68    5.56
   5   5 -15   87.15    5.36
   5   5 -15   97.82    5.89
   5   5 -15   80.87    5.30
   5   5 -15   89.82    5.81
   5   5 -14    1.70    0.88
   5   5 -14    2.00    0.84
   5   5 -14    1.12    0.78
   5   5 -14    2.21    0.87
   5   5 -14    2.47    0.98
   5   5 -13   49.16    3.94
   5   5 -13   49.71    4.27
   5   5 -13   48.65    4.20
   5   5 -13   50.62    3.99
   5   5 -13   51.09    4.21
   5   5 -12    6.43    1.43
   5   5 -12    6.89    1.67
   5   5 -12    8.50    1.75
   5   5 -12    5.64    1.29
   5   5 -12    5.98    1.28
   5   5 -12    6.05    1.38
   5   5 -12    6.10    1.44
   5   5 -11    3.25    1.20
   5   5 -11    3.40    0.94
   5   5 -11    4.45    1.45
   5   5 -11    3.35    0.99
   5   5 -11    3.37    1.13
   5   5 -11    2.88    1.20
   5   5 -11    4.00    1.18
   5   5 -11    2.66    1.03
   5   5 -11    3.45    1.22
   5   5 -10  141.61    8.54
   5   5 -10  137.64    8.27
   5   5 -10  121.87    7.83
   5   5 -10  126.47    8.37
   5   5 -10  140.72    9.08
   5   5 -10  121.96    8.48
   5   5 -10  141.31    8.77
   5   5 -10  134.93    8.32
   5   5 -10  152.80    9.05
   5   5 -10  141.40    8.21
   5   5 -10  140.17    8.85
   5   5 -10  144.68    8.78
   5   5  -9    8.28    1.64
   5   5  -9    8.20    1.60
   5   5  -9    6.84    1.61
   5   5  -9    7.90    1.77
   5   5  -9   13.88    1.87
   5   5  -9    9.86    1.67
   5   5  -9    8.11    1.63
   5   5  -9    7.30    1.25
   5   5  -9    8.03    1.66
   5   5  -9   10.07    1.59
   5   5  -9    9.88    1.69
   5   5  -8  185.44   10.70
   5   5  -8  181.70   10.42
   5   5  -8  186.33   10.95
   5   5  -8  187.87   11.25
   5   5  -8  162.36   10.83
   5   5  -8  190.64   10.47
   5   5  -8  172.90   10.66
   5   5  -8  174.73   10.66
   5   5  -8  179.88   10.88
   5   5  -8  188.48   10.31
   5   5  -8  187.23   10.77
   5   5  -8  184.13   10.76
   5   5  -7   19.62    2.37
   5   5  -7   22.78    2.75
   5   5  -7   16.90    2.13
   5   5  -7   18.18    2.45
   5   5  -7   22.38    2.50
   5   5  -7   20.79    2.24
   5   5  -7   21.02    2.53
   5   5  -7   20.63    2.45
   5   5  -7   21.55    2.23
   5   5  -7   16.22    2.35
   5   5  -7   22.86    2.52
   5   5  -7   19.33    2.34
   5   5  -6    1.37    0.81
   5   5  -6   -0.46    0.92
   5   5  -6    1.18    0.72
   5   5  -6    1.23    0.97
   5   5  -6    1.38    0.82
   5   5  -6    0.30    0.70
   5   5  -6    1.76    0.73
   5   5  -6    1.34    0.83
   5   5  -6    0.97    0.68
   5   5  -6    1.47    0.75
   5   5  -6    0.19    0.71
   5   5  -6    0.12    0.70
   5   5  -6    0.31    0.67
   5   5  -5   65.00    4.52
   5   5  -5   54.43    4.12
  -5  -5   5   61.85    4.25
   5   5  -5   53.73    4.60
   5   5  -5   58.21    4.34
   5   5  -5   60.09    4.37
   5   5  -5   62.25    4.18
   5   5  -5   60.70    4.83
   5   5  -5   58.88    4.43
   5   5  -5   59.97    4.19
   5   5  -5   67.29    4.90
   5   5  -5   59.70    4.52
   5   5  -5   60.52    4.40
   5   5  -4  134.04    7.87
   5   5  -4  142.96    7.78
   5   5  -4  135.58    8.29
   5   5  -4  117.40    7.64
   5   5  -4  142.64    8.17
   5   5  -4  128.10    8.41
   5   5  -4  131.42    7.55
   5   5  -4  127.01    7.61
   5   5  -4  134.92    8.35
   5   5  -4  140.96    7.99
   5   5  -4  137.82    7.92
   5   5  -3  115.29    7.50
   5   5  -3  111.55    7.09
   5   5  -3  111.57    7.40
   5   5  -2  661.68   33.03
   5   5  -1  388.85   20.24
   5   5  -1  385.74   20.14
   5   5   0   47.21    3.79
   5   5   0   45.25    3.76
   5   5   1   14.06    1.84
  -5  -5  -2  206.68   10.30
   5   5   2  211.30   11.58
  -5  -5  -3   94.36    5.10
   5   5   3   97.46    5.92
  -5  -5  -4    0.47    0.36
   5   5   4    0.47    0.57
   5   5   4    0.30    0.63
  -5  -5  -5   86.45    4.89
   5   5   5   85.27    5.80
  -5  -5  -6  150.74    8.13
   5   5   6  156.75    9.12
  -5  -5  -7   45.70    3.10
   5   5   7   42.46    3.69
  -5  -5  -8   86.19    5.27
   5   5   8   91.89    6.08
  -5  -5  -9   97.68    5.76
   5   5   9   92.24    6.36
   5   5  10  105.16    7.65
  -5  -5 -10  125.36    6.82
   5   5  10  103.79    7.14
   5   5  11   13.50    2.24
  -5  -5 -11   17.03    1.77
  -5  -5 -11   12.80    1.68
   5   5  11   13.97    1.96
   5   5  12    4.54    1.55
  -5  -5 -12    5.43    1.17
  -5  -5 -12    3.68    1.17
  -5  -5 -12    2.83    0.77
   5   5  13    2.98    1.32
  -5  -5 -13    2.47    0.93
   5   5  14   10.10    2.21
  -5  -5 -14   10.23    1.61
   5   5  15   75.76    6.65
   5   5  16    0.63    1.17
   5   5  17   78.17    6.80
  -5  -5 -17   68.78    5.09
   5   5  18   -0.31    0.90
   5   5  19    0.26    0.97
  -5  -5 -19    0.18    0.82
  -5  -5 -19    0.25    0.93
  -5  -5 -20   41.16    3.47
  -5  -5 -20   32.81    3.59
  -5  -5 -21   20.49    2.18
  -5  -5 -22    5.61    1.03
  -5  -5 -23   10.33    1.14
   5   6 -17    1.92    0.56
   5   6 -16   20.91    1.82
   5   6 -16   19.39    1.68
   5   6 -15   -0.37    0.68
   5   6 -15    0.49    0.57
   5   6 -15    0.31    0.73
   5   6 -14   23.55    2.31
   5   6 -14   21.26    2.13
   5   6 -13   39.75    3.40
   5   6 -13   36.03    3.31
   5   6 -13   40.85    3.24
   5   6 -13   39.03    3.29
   5   6 -12   -0.15    0.96
   5   6 -12    1.31    0.81
   5   6 -12    0.17    0.68
   5   6 -12    0.13    0.73
   5   6 -12    0.17    0.70
   5   6 -11   74.22    5.60
   5   6 -11   83.66    5.53
   5   6 -11   76.50    5.42
   5   6 -11   79.98    5.87
   5   6 -11   78.19    5.52
   5   6 -11   83.15    5.85
   5   6 -11   76.77    5.40
   5   6 -11   86.81    5.98
   5   6 -10    4.21    1.40
   5   6 -10    3.53    1.23
   5   6 -10    3.26    1.21
   5   6 -10    1.36    0.85
   5   6 -10    1.88    1.08
   5   6 -10    2.07    0.92
   5   6 -10    3.57    1.01
   5   6 -10    3.29    1.15
   5   6 -10    2.02    0.96
   5   6 -10    4.53    1.25
   5   6  -9  177.17   10.55
   5   6  -9  182.50   10.30
   5   6  -9  181.42   10.65
   5   6  -9  174.79   10.77
   5   6  -9  174.45   10.80
   5   6  -9  175.98   10.44
   5   6  -9  167.53   10.27
   5   6  -9  170.90   10.51
   5   6  -9  179.97   10.19
   5   6  -9  179.36   10.54
   5   6  -8   12.03    1.95
   5   6  -8   10.85    1.79
   5   6  -8   13.46    2.12
   5   6  -8    9.91    1.91
   5   6  -8   13.22    1.92
   5   6  -8   11.79    1.90
   5   6  -8   11.14    1.85
   5   6  -8    9.90    1.78
   5   6  -8   11.84    1.85
   5   6  -8   12.66    1.79
   5   6  -8   11.82    1.87
   5   6  -7    9.50    1.73
   5   6  -7    9.63    1.63
   5   6  -7    8.15    1.76
   5   6  -7   10.97    1.89
   5   6  -7    8.60    1.54
   5   6  -7    9.54    1.75
   5   6  -7   11.82    1.77
   5   6  -7    9.34    1.61
   5   6  -7   11.94    2.03
   5   6  -7   11.06    1.68
   5   6  -7    9.76    1.67
   5   6  -7    8.62    1.72
   5   6  -7    8.46    1.49
   5   6  -6  167.72    9.71
   5   6  -6  180.47    9.79
   5   6  -6  178.72   10.48
   5   6  -6  179.20   10.66
   5   6  -6  154.65    9.60
   5   6  -6  183.46    9.83
   5   6  -6  186.87   10.57
   5   6  -6  147.46    9.65
   5   6  -6  155.36    9.47
   5   6  -6  173.02   10.46
   5   6  -6  164.60    9.54
   5   6  -6  162.74    9.81
   5   6  -5   41.03    3.34
   5   6  -5   42.77    3.36
  -5  -6   5   37.68    3.18
   5   6  -5   40.05    3.81
   5   6  -5   38.29    3.25
   5   6  -5   37.81    3.35
   5   6  -5   39.45    3.28
   5   6  -5   36.45    3.68
   5   6  -5   38.72    3.32
   5   6  -5   37.72    3.20
   5   6  -5   40.78    3.81
   5   6  -5   41.29    3.25
   5   6  -5   35.85    3.26
   5   6  -4   65.21    4.61
   5   6  -4   68.42    4.70
   5   6  -4   63.30    5.02
   5   6  -4   76.05    5.55
   5   6  -4   70.22    4.67
   5   6  -4   68.91    5.00
   5   6  -4   73.10    4.69
   5   6  -4   58.33    5.13
   5   6  -4   64.88    4.69
   5   6  -4   69.22    4.64
  -5  -6   4   71.21    4.70
   5   6  -4   74.85    5.42
   5   6  -4   66.50    4.54
   5   6  -4   63.91    4.70
   5   6  -3    4.95    1.06
   5   6  -3    6.84    1.21
   5   6  -3    6.41    1.31
   5   6  -3    6.19    1.29
   5   6  -3    7.18    1.56
   5   6  -3    3.84    0.95
  -5  -6   3    5.03    1.10
   5   6  -3    5.31    1.03
   5   6  -3    6.22    1.38
   5   6  -3    7.37    1.23
  -5  -6   2   32.79    2.86
   5   6  -2   27.54    2.75
   5   6  -2   34.69    3.23
   5   6  -2   32.19    3.09
   5   6  -2   33.06    2.72
   5   6  -1    4.21    1.19
   5   6   0   65.37    4.93
   5   6   1  147.32    9.07
   5   6   1  153.72    9.15
   5   6   2    3.72    1.12
  -5  -6  -3   83.31    4.74
  -5  -6  -4    7.60    0.95
   5   6   4    7.75    1.51
  -5  -6  -5   81.27    4.72
   5   6   5   83.92    5.82
  -5  -6  -6    0.98    0.54
   5   6   6    0.87    0.85
   5   6   7  143.26    8.69
  -5  -6  -7  134.59    7.47
   5   6   8   43.61    4.16
  -5  -6  -8   55.28    3.91
  -5  -6  -8   52.77    3.48
   5   6   8   49.82    4.25
  -5  -6  -9  155.54    8.84
  -5  -6  -9  153.80    8.54
   5   6   9  155.83    9.61
   5   6  10    3.02    1.23
  -5  -6 -10    3.91    0.97
   5   6  10    3.93    1.25
  -5  -6 -10    2.84    0.85
   5   6  11    0.25    0.75
  -5  -6 -11    0.84    0.60
  -5  -6 -11   -0.12    0.71
   5   6  11   -0.40    0.86
   5   6  12   20.49    3.04
  -5  -6 -12   21.81    2.21
  -5  -6 -12   19.87    2.07
   5   6  13   91.97    7.37
  -5  -6 -13   88.88    5.83
   5   6  14   92.03    7.47
  -5  -6 -14   76.18    5.54
  -5  -6 -14   92.47    6.25
   5   6  15   75.65    6.70
  -5  -6 -15   65.80    4.87
  -5  -6 -15   62.50    5.13
   5   6  16    4.29    1.84
  -5  -6 -16    3.88    1.28
   5   6  17  115.09    9.18
  -5  -6 -17  110.69    7.50
   5   6  18    1.36    1.56
  -5  -6 -18    0.36    0.85
   5   6  19   41.35    4.28
  -5  -6 -19   37.10    3.45
   5   6  20    4.35    1.24
  -5  -6 -20    6.61    1.31
  -5  -6 -20    6.27    1.52
  -5  -6 -21   68.61    4.38
  -5  -6 -21   52.14    4.50
  -5  -6 -22    2.73    0.72
  -5  -6 -23   20.34    1.60
   5   7 -16    0.47    0.37
   5   7 -16   -0.18    0.42
   5   7 -15   -0.24    0.53
   5   7 -15    0.98    0.72
   5   7 -14   25.18    2.52
   5   7 -14   30.44    2.40
   5   7 -14   28.98    2.45
   5   7 -13    4.81    1.22
   5   7 -13    5.06    1.20
   5   7 -13    6.04    1.17
   5   7 -12   35.24    3.09
   5   7 -12   34.78    2.95
   5   7 -12   28.64    2.78
   5   7 -12   32.17    3.05
   5   7 -11    4.34    1.34
   5   7 -11    6.97    1.40
   5   7 -11    4.92    1.09
   5   7 -11    5.47    1.29
   5   7 -11    7.59    1.52
   5   7 -10   46.16    3.98
   5   7 -10   49.05    3.98
   5   7 -10   43.45    3.83
   5   7 -10   51.19    3.69
   5   7 -10   47.10    3.84
   5   7 -10   56.15    4.52
   5   7  -9    0.63    0.96
   5   7  -9    0.16    0.95
   5   7  -9    0.83    0.76
   5   7  -9   -0.18    0.66
   5   7  -9   -0.32    0.67
   5   7  -9    0.25    0.65
   5   7  -9    0.33    0.81
   5   7  -9    0.15    0.76
   5   7  -8    0.46    0.82
   5   7  -8    0.33    0.79
   5   7  -8    1.76    0.95
   5   7  -8    0.78    0.75
   5   7  -8    0.75    0.72
   5   7  -8    1.57    0.83
   5   7  -8    1.33    0.83
   5   7  -8    1.06    1.01
   5   7  -7   25.16    2.66
   5   7  -7   27.38    2.83
   5   7  -7   28.17    3.08
   5   7  -7   26.42    3.17
   5   7  -7   28.88    2.65
   5   7  -7   22.86    2.82
   5   7  -7   25.26    2.68
   5   7  -7   27.95    2.76
   5   7  -7   25.93    3.18
   5   7  -6   26.10    2.56
   5   7  -6   22.59    2.97
   5   7  -6   23.46    2.68
   5   7  -6   29.43    3.15
   5   7  -6   27.72    2.53
   5   7  -6   23.58    2.96
   5   7  -6   24.91    2.59
   5   7  -6   25.75    2.59
   5   7  -6   30.84    3.35
   5   7  -6   27.13    2.75
   5   7  -5   56.25    4.07
   5   7  -5   53.85    4.25
   5   7  -5   54.96    4.79
   5   7  -5   47.66    4.15
   5   7  -5   55.46    3.95
   5   7  -5   65.19    5.11
   5   7  -5   47.14    3.84
   5   7  -5   58.15    4.88
   5   7  -5   61.03    3.92
   5   7  -5   52.45    4.18
  -5  -7   4    2.40    0.81
   5   7  -4    1.36    0.75
   5   7  -4    3.05    1.00
   5   7  -4    2.15    0.87
   5   7  -4    1.35    1.01
   5   7  -4    3.18    1.24
   5   7  -4    1.20    0.74
   5   7  -4    1.73    1.08
   5   7  -4    3.13    0.91
   5   7  -4    0.98    0.65
   5   7  -4    2.75    0.73
   5   7  -3   25.82    3.02
   5   7  -3   28.33    2.41
   5   7  -3   24.32    2.52
  -5  -7   3   28.78    2.67
   5   7  -3   25.48    3.05
   5   7  -3   24.17    2.79
   5   7  -3   27.73    2.38
   5   7  -3   26.88    3.12
   5   7  -3   25.30    2.27
   5   7  -3   26.78    3.01
   5   7  -3   25.05    2.19
   5   7  -3   26.36    2.52
   5   7  -2   43.18    3.38
  -5  -7   2   42.89    3.43
   5   7  -2   50.03    4.28
   5   7  -2   45.92    4.04
   5   7  -2   34.91    3.59
   5   7  -2   35.33    2.94
   5   7  -2   42.61    3.91
   5   7  -1   56.30    4.77
  -5  -7   1   58.52    4.24
   5   7  -1   58.66    4.74
   5   7  -1   56.76    4.68
   5   7  -1   60.65    4.86
  -5  -7   0  150.35    8.49
   5   7   0  143.40    9.03
   5   7   0  137.31    8.82
   5   7   0  143.38    9.14
  -5  -7  -1  112.06    6.77
   5   7   1  114.28    7.71
   5   7   1  106.60    7.31
   5   7   1  100.98    7.27
  -5  -7  -2   40.18    3.24
   5   7   2   39.74    3.95
   5   7   2   32.90    3.53
  -5  -7  -3   95.84    6.02
   5   7   3   89.02    6.79
   5   7   3   94.27    6.64
  -5  -7  -4    7.50    1.35
  -5  -7  -4    6.46    0.96
   5   7   4    7.90    1.62
   5   7   4    5.70    1.56
  -5  -7  -5   47.52    3.28
   5   7   5   48.10    4.30
   5   7   5   45.28    4.40
   5   7   5   49.63    4.38
  -5  -7  -6   15.38    1.86
  -5  -7  -6   15.81    1.65
   5   7   6   12.64    2.11
   5   7   6   12.34    2.19
   5   7   6   16.11    2.33
   5   7   7  155.46   10.08
  -5  -7  -7  181.17    9.58
  -5  -7  -7  162.85    9.02
   5   7   7  163.05   10.34
   5   7   7  161.81   10.44
   5   7   8   17.75    2.51
  -5  -7  -8   19.86    2.14
  -5  -7  -8   17.52    1.87
   5   7   8   18.73    2.59
   5   7   9   55.11    4.93
  -5  -7  -9   54.82    4.05
  -5  -7  -9   55.46    3.85
   5   7   9   48.64    4.72
  -5  -7 -10   10.10    1.50
   5   7  10    8.53    1.90
  -5  -7 -10    9.38    1.43
   5   7  11    7.20    1.83
  -5  -7 -11    6.54    1.24
  -5  -7 -11    4.89    1.07
   5   7  11    3.19    1.33
   5   7  12   11.98    2.54
  -5  -7 -12   14.06    1.78
  -5  -7 -12   14.23    1.84
   5   7  13  198.83   13.40
  -5  -7 -13  206.04   11.42
  -5  -7 -13  197.24   11.48
   5   7  14   20.31    3.52
  -5  -7 -14   20.80    2.46
  -5  -7 -14   22.90    2.56
   5   7  15   47.39    5.52
  -5  -7 -15   38.51    3.69
  -5  -7 -15   45.87    3.91
   5   7  16   30.39    4.47
  -5  -7 -16   27.14    3.09
  -5  -7 -16   31.93    3.20
   5   7  17   12.94    2.77
  -5  -7 -17    6.67    1.51
   5   7  18  161.03   11.10
  -5  -7 -18  160.74    9.65
   5   7  19    3.10    1.28
  -5  -7 -19    2.66    0.98
   5   7  20   69.64    5.24
  -5  -7 -20   74.66    4.96
  -5  -7 -21    0.30    0.48
  -5  -7 -21    0.83    0.72
  -5  -7 -22    9.97    1.18
  -5  -7 -22    8.43    1.25
   5   8 -15   15.58    1.43
   5   8 -14    0.42    0.53
   5   8 -14    0.82    0.46
   5   8 -13   30.56    2.73
   5   8 -13   39.73    2.88
   5   8 -13   37.60    2.86
   5   8 -12   20.02    2.17
   5   8 -12   25.76    2.37
   5   8 -12   24.71    2.36
   5   8 -12   23.97    2.40
   5   8 -11    4.03    1.03
   5   8 -11    2.66    1.05
   5   8 -11    1.38    0.83
   5   8 -11    1.32    0.87
   5   8 -10   12.05    1.73
   5   8 -10   13.56    1.90
   5   8 -10   12.32    1.69
   5   8 -10   15.35    2.15
   5   8 -10   12.14    1.80
   5   8 -10    8.44    1.55
   5   8  -9    4.84    1.25
   5   8  -9    8.21    1.58
   5   8  -9    6.22    1.30
   5   8  -9    3.80    1.05
   5   8  -9    7.14    1.38
   5   8  -9    5.84    1.27
   5   8  -8   14.85    1.96
   5   8  -8   15.69    2.18
   5   8  -8   17.40    2.26
   5   8  -8   15.46    2.32
   5   8  -8   12.95    1.55
   5   8  -8   15.79    2.16
   5   8  -8   13.94    1.90
   5   8  -8   15.01    2.03
   5   8  -7   26.83    2.66
   5   8  -7   29.07    3.03
   5   8  -7   29.75    3.19
   5   8  -7   30.76    3.39
   5   8  -7   25.51    3.04
   5   8  -7   28.16    2.68
   5   8  -7   34.25    3.66
   5   8  -6   28.67    2.70
   5   8  -6   29.70    3.07
   5   8  -6   30.09    3.33
   5   8  -6   28.97    3.28
   5   8  -6   26.92    2.62
   5   8  -6   36.94    3.76
   5   8  -6   29.04    3.52
   5   8  -5  112.34    7.04
   5   8  -5  120.55    7.73
   5   8  -5  123.69    8.30
   5   8  -5  128.76    8.51
   5   8  -5  114.34    7.02
   5   8  -5  134.30    8.63
   5   8  -4    0.21    0.56
   5   8  -4    0.98    0.89
  -5  -8   4    0.49    0.73
   5   8  -4    0.71    0.88
   5   8  -4   -0.19    0.72
   5   8  -4    0.49    0.90
   5   8  -4    0.73    0.70
   5   8  -4   -0.24    0.84
   5   8  -3   12.41    1.92
  -5  -8   3   15.88    2.11
   5   8  -3   17.03    2.57
   5   8  -3   15.93    2.40
   5   8  -3   15.17    2.27
   5   8  -3   14.99    1.64
   5   8  -3   20.28    2.67
   5   8  -2   26.98    2.67
  -5  -8   2   21.53    2.50
   5   8  -2   29.62    3.40
   5   8  -2   22.14    2.91
   5   8  -2   22.23    2.81
   5   8  -2   31.97    3.36
   5   8  -2   28.59    3.18
  -5  -8   1   14.66    1.92
   5   8  -1   14.68    2.26
   5   8  -1   13.97    2.27
   5   8  -1   13.69    2.28
   5   8  -1   14.42    2.17
   5   8  -1   11.25    2.03
   5   8   0   99.60    7.24
   5   8   0  106.90    7.61
   5   8   0   99.25    7.18
   5   8   0   96.52    7.03
  -5  -8   0   97.19    6.48
   5   8   0  107.30    7.42
  -5  -8  -1  222.03   12.11
   5   8   1  219.17   12.94
   5   8   1  213.59   12.89
   5   8   1  203.96   12.60
   5   8   1  222.05   13.06
  -5  -8  -2    7.79    1.44
   5   8   2   11.75    2.03
   5   8   2    9.90    2.00
   5   8   2   10.94    1.85
  -5  -8  -3   94.19    6.14
   5   8   3   92.24    7.22
   5   8   4    0.54    0.69
   5   8   4    0.25    0.67
   5   8   4   -0.26    0.82
  -5  -8  -4    0.73    0.77
   5   8   5   47.72    4.23
   5   8   5   46.32    4.80
   5   8   5   48.25    4.64
   5   8   5   50.74    4.79
   5   8   6   14.70    2.24
  -5  -8  -6   12.66    1.80
  -5  -8  -6   14.15    1.58
   5   8   6   13.05    2.33
   5   8   6   12.28    2.29
   5   8   6   10.69    2.35
   5   8   7   10.69    2.04
  -5  -8  -7   12.37    1.78
   5   8   7   10.81    2.23
   5   8   7   10.43    2.15
  -5  -8  -7   10.28    1.40
   5   8   8    3.55    1.33
  -5  -8  -8    2.14    0.97
  -5  -8  -8    2.84    0.90
   5   8   8    2.52    1.26
   5   8   8    2.65    1.29
   5   8   9    2.50    1.46
  -5  -8  -9    2.79    0.97
  -5  -8  -9    1.17    0.87
   5   8   9    1.17    1.08
   5   8   9    0.55    1.19
  -5  -8 -10  103.87    7.01
  -5  -8 -10  115.52    7.00
   5   8  10  110.09    8.33
  -5  -8 -11    6.32    1.42
   5   8  11    9.04    2.06
  -5  -8 -11    9.20    1.56
  -5  -8 -12  173.04   10.73
  -5  -8 -12  198.29   11.06
   5   8  13    1.15    1.60
  -5  -8 -13    2.17    1.00
  -5  -8 -14   37.78    3.68
  -5  -8 -14   43.87    3.77
   5   8  15   84.35    7.47
  -5  -8 -15   65.76    5.30
  -5  -8 -15   78.33    5.47
   5   8  16    7.38    2.19
  -5  -8 -16    4.33    1.18
   5   8  17   42.39    4.81
  -5  -8 -17   41.13    3.64
   5   8  18   18.03    2.86
  -5  -8 -18   16.69    2.06
   5   8  19  112.92    7.72
  -5  -8 -19  108.01    6.79
   5   8  20    6.08    1.37
  -5  -8 -20    5.12    1.03
  -5  -8 -21    0.16    0.38
  -5  -8 -21    0.25    0.60
  -5  -8 -22   15.66    1.65
   5   9 -14   16.87    1.51
   5   9 -13    1.74    0.53
   5   9 -13    2.96    0.79
   5   9 -13    2.61    0.65
   5   9 -12    1.58    0.65
   5   9 -12    2.99    0.87
   5   9 -12    3.90    0.85
   5   9 -11    5.56    1.03
   5   9 -11    8.03    1.36
   5   9 -11    6.05    1.27
   5   9 -10   51.82    3.80
   5   9 -10   46.38    3.40
   5   9 -10   48.80    3.98
   5   9  -9    4.80    0.98
   5   9  -9    5.56    1.44
   5   9  -9    3.83    1.02
   5   9  -9    3.55    0.94
   5   9  -8   36.64    3.07
   5   9  -8   39.51    3.55
   5   9  -8   36.78    3.38
   5   9  -8   35.76    3.02
   5   9  -7  119.29    7.95
   5   9  -7  153.12    9.01
   5   9  -7  155.13    9.21
   5   9  -7  148.10    9.10
   5   9  -7  139.65    8.12
   5   9  -7  175.70   10.00
   5   9  -6   15.44    1.83
   5   9  -6   20.63    2.51
   5   9  -6   19.02    2.70
   5   9  -6   20.28    2.60
   5   9  -6   16.22    2.41
   5   9  -6   14.47    1.76
   5   9  -6   20.85    2.87
   5   9  -5   17.25    2.48
   5   9  -5   20.54    2.75
   5   9  -5   22.51    2.94
   5   9  -5   18.29    1.93
   5   9  -5   24.19    3.11
   5   9  -4   19.77    2.43
   5   9  -4   13.65    2.42
   5   9  -4   16.79    2.42
   5   9  -4   21.52    2.91
   5   9  -4   20.77    2.93
   5   9  -3   31.32    3.11
   5   9  -3   41.72    4.09
  -5  -9   3   32.61    3.22
   5   9  -3   26.65    3.23
   5   9  -3   34.12    3.86
   5   9  -2    0.28    0.73
  -5  -9   2   -0.53    0.81
   5   9  -2    0.25    0.87
   5   9  -2    0.51    0.90
   5   9  -2    0.27    0.85
   5   9  -2    0.23    0.89
   5   9  -2    0.25    0.85
   5   9  -1    6.90    1.84
   5   9  -1    7.66    1.75
  -5  -9   1    3.78    1.23
   5   9  -1    4.82    1.52
   5   9  -1    6.73    1.68
   5   9  -1    5.74    1.67
  -5  -9   0   17.27    2.34
   5   9   0   20.60    3.12
   5   9   0   23.73    3.15
   5   9   0   18.20    2.76
   5   9   0   23.37    3.05
   5   9   0   21.89    3.06
   5   9   1   11.66    2.26
  -5  -9  -1   10.38    1.74
   5   9   1    6.84    1.85
   5   9   1   14.70    2.56
   5   9   1   10.51    2.14
   5   9   1   11.59    2.17
   5   9   2   36.17    4.08
  -5  -9  -2   33.19    3.28
   5   9   2   33.81    3.94
   5   9   2   30.24    3.56
   5   9   3   20.09    2.64
  -5  -9  -3   25.34    2.75
   5   9   3   25.16    3.10
   5   9   4  190.37   11.87
   5   9   4  171.04   10.73
  -5  -9  -4  168.97   10.25
   5   9   5   13.23    2.26
   5   9   5   16.30    2.81
   5   9   5   18.58    3.19
   5   9   6   73.01    6.42
   5   9   6   64.89    5.62
   5   9   6   60.68    6.39
   5   9   7   17.61    2.80
  -5  -9  -7   16.62    2.26
   5   9   7   19.10    3.17
   5   9   7   17.78    2.92
   5   9   7   10.81    2.66
   5   9   8   -0.30    1.04
  -5  -9  -8    0.36    0.79
   5   9   8    0.32    1.07
   5   9   8    0.31    0.97
   5   9   9   47.63    4.92
   5   9   9   40.58    4.63
  -5  -9  -9   39.20    3.80
   5   9   9   43.19    4.87
   5   9  10   34.04    4.50
  -5  -9 -10   43.02    3.88
  -5  -9 -10   47.71    3.63
   5   9  10   48.62    4.86
   5   9  10   42.10    4.84
  -5  -9 -11  174.48   10.43
   5   9  11  168.85   11.54
  -5  -9 -11  182.86   10.19
   5   9  12    5.79    1.84
  -5  -9 -12    4.96    1.21
  -5  -9 -12    4.91    1.21
   5   9  13   24.35    3.70
  -5  -9 -13   19.68    2.39
   5   9  14   87.81    7.44
  -5  -9 -14   73.51    5.56
  -5  -9 -14   85.38    5.75
   5   9  15    8.51    2.32
  -5  -9 -15   10.41    1.67
   5   9  16   41.54    4.51
  -5  -9 -16   33.32    3.19
   5   9  17    6.87    1.85
  -5  -9 -17    8.51    1.44
   5   9  18   67.04    5.64
  -5  -9 -18   66.89    4.71
   5   9  19   45.79    3.82
  -5  -9 -19   37.12    2.88
   5   9  20    7.94    1.38
  -5  -9 -21   36.49    3.07
  -5  -9 -22    0.47    0.38
   5  10 -13   -0.05    0.37
   5  10 -12    2.24    0.72
   5  10 -12    2.37    0.63
   5  10 -11    6.69    1.15
   5  10 -11    6.68    1.18
   5  10 -10    3.82    1.00
   5  10 -10    4.23    1.09
   5  10  -9   41.75    3.43
   5  10  -8   14.31    1.87
   5  10  -8    8.29    1.20
   5  10  -7    3.16    1.13
   5  10  -7    1.75    0.83
   5  10  -7    2.08    0.95
   5  10  -7    0.96    0.63
   5  10  -7    4.14    1.41
   5  10  -6    4.74    1.30
   5  10  -6    4.28    1.30
   5  10  -6    4.59    1.33
   5  10  -6    4.56    0.93
   5  10  -6    4.24    1.54
   5  10  -5    1.97    0.97
   5  10  -5    1.38    0.96
   5  10  -5    0.71    0.84
   5  10  -5    0.79    1.06
   5  10  -4   93.64    6.11
   5  10  -4   87.88    7.01
   5  10  -4   81.33    6.95
   5  10  -3   19.79    2.20
   5  10  -3   17.08    2.78
   5  10  -3   16.23    2.49
   5  10  -3   16.32    2.77
  -5 -10   2   18.61    2.44
   5  10  -2   24.25    3.41
   5  10  -2   24.54    3.31
   5  10  -2   20.43    2.98
   5  10  -2   28.43    3.64
   5  10  -2   23.43    3.29
  -5 -10   1    3.35    1.12
   5  10  -1    3.81    1.47
   5  10  -1    5.48    1.70
   5  10  -1    3.16    1.44
   5  10  -1    1.36    1.06
   5  10  -1    3.98    1.56
  -5 -10   0   39.58    3.72
   5  10   0   36.72    4.49
   5  10   0   50.35    4.90
   5  10   0   35.94    4.34
   5  10   0   34.49    4.27
   5  10   0   42.98    4.65
   5  10   1   11.69    2.71
   5  10   1   14.06    2.62
   5  10   1   14.80    2.75
  -5 -10  -1   12.45    2.06
   5  10   1   16.89    2.90
   5  10   1   13.64    2.53
  -5 -10  -2   13.31    2.05
   5  10   2   13.54    2.68
   5  10   2   13.02    2.75
   5  10   2   11.87    2.67
   5  10   2   10.09    2.25
   5  10   3  132.73    9.12
  -5 -10  -3  153.06    9.17
   5  10   3  158.03   10.76
   5  10   3  150.36   10.93
   5  10   3  121.37    9.50
   5  10   4   18.44    2.64
  -5 -10  -4   17.94    2.50
   5  10   4   17.20    3.23
   5  10   4   18.70    2.78
   5  10   5   54.50    5.79
   5  10   5   62.12    5.51
   5  10   6   -0.33    1.36
   5  10   6    1.08    1.20
   5  10   6    1.18    1.38
   5  10   7    9.97    2.25
  -5 -10  -7    9.72    1.83
   5  10   7    8.59    2.17
   5  10   7   10.00    2.65
   5  10   8   36.51    4.29
  -5 -10  -8   39.41    3.81
   5  10   8   39.53    4.57
   5  10   8   41.43    5.13
   5  10   8   45.63    4.84
   5  10   9   38.96    4.28
  -5 -10  -9   34.64    3.37
   5  10   9   26.78    3.73
   5  10   9   30.39    4.03
   5  10  10  165.54   11.47
  -5 -10 -10  176.54   10.35
   5  10  10  155.86   11.18
   5  10  10  183.18   11.78
  -5 -10 -11   16.28    2.15
   5  10  11   15.90    2.67
  -5 -10 -12   20.72    2.41
   5  10  13  118.61    8.49
  -5 -10 -13   93.22    6.42
   5  10  14    0.60    1.16
  -5 -10 -14    1.14    0.71
   5  10  15   91.31    7.16
  -5 -10 -15   80.84    5.63
   5  10  16    9.58    2.18
  -5 -10 -16    5.51    1.19
   5  10  17   10.50    2.13
  -5 -10 -17    7.66    1.31
   5  10  18    5.08    1.41
   5  10  18    2.45    1.08
   5  10  19    4.83    1.26
   5  10  19    1.93    0.85
   5  10  20  183.60   10.15
  -5 -10 -21    4.64    0.95
   5  11 -11    0.05    0.32
   5  11 -11    0.16    0.40
   5  11 -10   13.62    1.36
   5  11 -10   11.77    1.60
   5  11  -9   11.22    1.33
   5  11  -8    4.53    1.02
   5  11  -7   16.13    1.85
   5  11  -7   18.00    2.52
   5  11  -6    2.02    0.81
   5  11  -6    2.93    1.05
   5  11  -6    2.63    1.22
   5  11  -5   72.80    4.51
   5  11  -5   54.72    4.98
   5  11  -5   55.90    5.14
   5  11  -5   61.74    5.61
   5  11  -4    1.14    0.62
   5  11  -4    1.46    1.05
   5  11  -4   -0.26    0.75
   5  11  -4    0.28    1.04
   5  11  -3   70.75    6.21
   5  11  -3   66.12    6.18
   5  11  -3   74.94    6.47
   5  11  -2   11.14    2.42
   5  11  -2   13.13    2.70
  -5 -11   1    9.14    1.58
   5  11  -1    8.11    2.18
   5  11  -1    7.15    1.99
   5  11  -1    9.18    2.31
   5  11  -1    7.16    2.00
   5  11  -1    7.48    1.97
  -5 -11   0   73.16    5.94
   5  11   0  101.30    8.18
   5  11   0   88.70    7.56
   5  11   0   72.97    7.11
   5  11   0   94.96    7.70
   5  11   0   85.00    7.55
  -5 -11  -1    9.68    1.78
   5  11   1   11.60    2.72
   5  11   1   10.27    2.44
   5  11   1    8.33    2.46
   5  11   1    9.80    2.31
   5  11   1    8.82    2.27
  -5 -11  -2  129.80    8.44
   5  11   2  147.39   10.70
   5  11   2  138.87   10.85
   5  11   2  118.06    9.68
   5  11   2  119.57    9.41
   5  11   2  141.93   10.30
   5  11   3    8.83    2.01
  -5 -11  -3   13.73    2.10
   5  11   3   12.22    2.86
   5  11   3   18.62    3.58
   5  11   3   17.17    2.89
   5  11   4   11.55    2.65
   5  11   4   12.73    2.85
   5  11   4   10.63    2.86
  -5 -11  -4    9.87    1.88
   5  11   4   11.61    2.16
   5  11   4    9.68    2.18
   5  11   5  162.24   10.77
   5  11   5  131.75    9.49
  -5 -11  -5  135.59    8.92
   5  11   5  152.14   11.34
   5  11   6   15.06    2.88
   5  11   6   17.45    2.68
   5  11   7  149.46   10.12
  -5 -11  -7  150.88    9.45
   5  11   7  152.27   10.75
   5  11   8   27.05    3.41
  -5 -11  -8   21.17    2.74
   5  11   8   23.66    3.46
   5  11   8   28.06    4.08
   5  11   8   22.99    3.36
   5  11   9  138.42    9.52
  -5 -11  -9  120.43    8.43
   5  11   9  120.63    9.40
   5  11   9  163.22   10.76
   5  11   9  154.51   10.03
   5  11  10   43.86    4.78
   5  11  10   46.11    4.53
  -5 -11 -10   32.09    3.39
   5  11  10   32.17    4.02
   5  11  10   39.67    4.40
   5  11  11   21.58    3.19
  -5 -11 -11   17.48    2.33
   5  11  13    1.09    1.21
  -5 -11 -13    0.13    0.59
   5  11  14  195.07   11.11
  -5 -11 -14  143.28    8.95
   5  11  15    4.73    1.55
  -5 -11 -15    2.19    0.72
   5  11  16   38.92    4.07
   5  11  17   34.97    3.55
   5  11  17   28.58    3.30
   5  11  18   11.29    1.85
   5  11  18   10.27    1.77
   5  11  19   24.14    2.34
   5  11  19   11.53    1.76
   5  11  20    4.69    0.89
   5  12  -9    1.00    0.36
   5  12  -8   10.24    1.06
   5  12  -7    1.16    0.53
   5  12  -7    0.92    0.94
   5  12  -6   11.76    1.29
   5  12  -6   13.35    2.25
   5  12  -5   23.63    1.96
   5  12  -5   22.66    2.78
   5  12  -5   24.67    3.21
   5  12  -4   23.23    3.08
   5  12  -4   18.34    3.01
   5  12  -3   51.98    4.69
   5  12  -3   49.89    5.06
   5  12  -3   48.24    5.13
   5  12  -2    2.84    1.26
   5  12  -2    2.30    1.40
   5  12  -1   49.34    5.19
   5  12  -1   55.98    5.40
   5  12  -1   46.97    5.15
   5  12   0    1.86    1.30
   5  12   0    2.57    1.57
   5  12   0    3.10    1.48
   5  12   1   41.26    4.99
   5  12   1   39.80    4.43
   5  12   1   41.29    4.74
   5  12   2    3.43    1.63
   5  12   2    0.35    1.11
   5  12   2    1.82    1.39
  -5 -12  -3   74.73    5.61
   5  12   3   82.97    7.50
   5  12   3   69.47    6.21
   5  12   4   40.77    4.30
  -5 -12  -4   51.76    4.40
   5  12   4   58.28    5.62
   5  12   4   58.17    5.97
   5  12   4   43.72    4.52
   5  12   5    3.04    1.29
   5  12   5    5.94    1.78
   5  12   5    3.27    1.63
  -5 -12  -5    3.05    1.03
   5  12   5    1.87    1.10
   5  12   6  172.05   11.47
   5  12   6  194.31   12.61
   5  12   6  189.79   12.97
   5  12   6  208.71   12.74
   5  12   7   38.62    3.95
  -5 -12  -7   29.57    3.33
   5  12   7   38.92    4.64
   5  12   7   42.12    4.55
   5  12   8    0.24    0.99
   5  12   8   -0.27    1.01
   5  12   9   23.99    3.21
   5  12   9   23.40    3.29
   5  12  10    5.88    1.73
   5  12  10    7.72    1.89
   5  12  10    6.17    1.82
   5  12  11   80.94    6.86
   5  12  11   78.84    6.47
   5  12  12   -0.53    1.33
  -5 -12 -12    0.66    0.53
   5  12  13   71.57    6.14
   5  12  14    0.67    0.94
   5  12  14    0.93    0.93
   5  12  15   33.62    3.51
   5  12  15   27.34    3.34
   5  12  16   27.61    2.93
   5  12  16   15.98    2.50
   5  12  17    0.65    0.78
   5  12  17    0.32    0.66
   5  12  18   54.06    3.87
   5  12  18   38.21    3.52
   5  12  19    0.44    0.42
   5  12  19   -0.08    0.38
   5  13  -7   68.25    4.47
   5  13  -6    0.25    0.68
   5  13  -5   35.67    3.30
   5  13  -4   16.16    2.17
   5  13  -4   19.54    2.46
   5  13  -3    0.20    0.71
   5  13  -3   -0.58    0.98
   5  13  -2   47.37    4.64
   5  13  -2   47.20    4.40
   5  13  -1   -0.18    0.62
   5  13  -1    0.42    0.85
   5  13   0    2.69    1.18
   5  13   0    2.98    1.31
   5  13   1    1.76    1.02
   5  13   1    3.03    1.28
   5  13   1    1.90    1.13
   5  13   2   10.55    2.25
   5  13   2   10.36    2.17
   5  13   2    8.21    1.88
   5  13   3   57.77    5.52
   5  13   3   47.91    4.59
   5  13   3   53.51    5.34
   5  13   4    0.27    1.15
   5  13   4    0.18    0.77
   5  13   5   96.96    6.99
   5  13   5  143.76    9.00
   5  13   5  122.68    8.29
   5  13   6   36.61    3.69
   5  13   6   48.28    4.86
   5  13   6   39.44    4.38
   5  13   7   23.46    2.86
   5  13   7   26.56    3.65
   5  13   7   25.59    3.41
   5  13   8   37.25    3.74
   5  13   8   33.71    4.21
   5  13   8   41.77    4.29
   5  13   9    5.94    1.49
   5  13   9    6.87    1.81
   5  13  10   58.31    5.01
   5  13  11    1.43    0.94
   5  13  12   67.22    5.43
   5  13  12   69.31    5.85
   5  13  13    1.69    1.08
   5  13  14   41.00    4.01
   5  13  15   33.83    3.24
   5  13  15   27.86    3.22
   5  13  16    0.85    0.74
   5  13  16    0.15    0.73
   5  13  17   25.49    2.35
   5  13  17   17.55    2.21
   5  13  18    0.24    0.41
   5  13  18   -0.08    0.33
   5  14  -5   11.30    1.29
   5  14  -4    0.64    0.52
   5  14  -3   32.44    2.79
   5  14  -2    4.66    1.16
   5  14  -2    5.32    1.13
   5  14  -1   53.48    4.20
   5  14  -1   46.50    3.89
  -5 -14   0   -0.11    0.58
   5  14   0    1.07    0.72
   5  14   0    1.12    0.78
   5  14   1    6.03    1.33
   5  14   2   52.47    4.17
   5  14   2   44.65    3.95
   5  14   3    3.81    1.32
   5  14   3    4.98    1.26
   5  14   3    4.42    1.07
   5  14   4   54.52    4.40
   5  14   4   36.17    3.42
   5  14   5    1.65    1.00
   5  14   5   -0.20    0.73
   5  14   6   77.26    6.39
   5  14   6   87.51    6.44
   5  14   7   16.44    2.21
   5  14   7   25.59    3.10
   5  14   7   24.46    3.00
   5  14   8   59.13    4.62
   5  14   8   59.06    5.22
   5  14   9   19.76    2.39
   5  14   9   20.32    2.74
   5  14  10    1.72    0.82
   5  14  10    0.39    0.76
   5  14  11   68.21    4.82
  -5 -14 -11   53.54    4.15
   5  14  12    0.74    0.80
   5  14  13   11.19    1.73
   5  14  14   22.57    2.63
   5  14  15   -0.99    0.76
   5  14  15   -0.23    0.43
   5  14  16   29.41    2.32
   5  14  16   16.47    2.06
   5  15  -1    1.88    0.57
   5  15   0    1.58    0.57
   5  15   0    0.76    0.48
   5  15   1   16.35    1.85
   5  15   1   12.75    1.44
   5  15   2    2.12    0.82
   5  15   2    1.04    0.53
   5  15   3   17.63    1.70
  -5 -15  -4   -0.60    0.54
  -5 -15  -5    6.89    1.28
  -5 -15  -6    1.97    0.75
   5  15   6    4.62    1.02
   5  15   7    0.61    0.56
  -5 -15  -8   47.84    3.99
   5  15   8   69.44    4.56
   5  15   9    0.28    0.46
   5  15   9    1.25    0.67
   5  15  10   16.49    1.82
   5  15  10   17.88    2.06
   5  15  11    3.83    0.94
   5  15  11    5.43    1.14
   5  15  12    0.97    0.61
   5  15  12    1.94    0.73
   5  15  13   22.03    1.94
   5  15  13   17.74    1.98
   5  16   5    3.77    0.79
   5  16   6    0.82    0.41
   5  16   7   29.36    2.35
  -6  10   3   19.62    1.63
  -6  10   2   -0.06    0.33
  -6  10   1   24.40    1.98
  -6  10  -1    8.31    0.98
  -6   9   6   29.22    2.24
   6  -9  -6   29.63    2.10
  -6   9   5    0.83    0.49
  -6   9   4   86.87    5.36
   6  -9  -4   89.16    5.10
   6  -9  -3    2.31    0.86
   6  -9  -3    3.12    0.73
  -6   9   3    2.18    0.71
  -6   9   2   28.89    2.51
   6  -9  -2   28.64    2.29
  -6   9   1   27.49    2.39
   6  -9  -1   23.12    2.03
   6  -9   0    2.61    0.73
   6  -9   0    3.75    1.01
   6  -9   0    3.78    0.77
  -6   9   0    2.41    0.87
   6  -9   1  133.82    6.84
   6  -9   1  123.31    6.85
   6  -9   2    4.92    0.85
   6  -9   2    2.73    1.04
   6  -9   2    4.18    0.83
  -6   9  -2    5.95    1.05
  -6   9  -3   45.00    3.45
   6  -9   3   56.74    3.33
   6  -9   3   50.57    3.37
   6  -9   4    2.51    0.68
   6  -9   4    3.26    0.67
  -6   9  -4    3.08    0.75
  -6   9  -5    4.01    0.77
   6  -9   5    5.54    0.80
   6  -9   6   11.15    1.07
   6  -9   7    0.05    0.24
   6  -9   7    0.52    0.29
   6  -8 -10   25.86    2.24
   6  -8  -9   13.05    1.49
   6  -8  -9   10.17    1.12
   6  -8  -8    8.07    1.10
  -6   8   7   56.95    3.88
   6  -8  -7   61.42    3.97
   6  -8  -6    0.45    0.67
  -6   8   6    0.41    0.51
  -6   8   5   45.03    3.49
   6  -8  -5   41.36    3.96
   6  -8  -5   46.23    3.37
   6  -8  -4    7.28    1.65
   6  -8  -4    7.81    1.26
  -6   8   4    7.32    1.31
  -6   8   3   66.55    4.62
   6  -8  -3   60.85    5.29
   6  -8  -3   62.69    4.31
  -6   8   2   50.55    3.95
   6  -8  -2   52.31    3.66
   6  -8  -2   48.84    3.67
  -6   8   1    0.41    0.60
   6  -8  -1   -0.65    0.72
   6  -8  -1   -0.21    0.63
  -6   8   0  118.57    7.46
   6  -8   0  129.34    7.15
   6  -8   0  117.95    7.13
   6  -8   1    0.86    0.62
   6  -8   1    0.81    0.58
   6  -8   2   14.47    2.26
   6  -8   2   11.96    1.54
  -6   8  -2   12.44    1.74
  -6   8  -3   15.00    1.81
   6  -8   3   12.02    2.10
  -6   8  -3    9.53    1.24
   6  -8   3   13.78    1.61
   6  -8   4    8.12    1.18
   6  -8   4    4.75    1.37
  -6   8  -4    5.37    0.86
  -6   8  -4    5.81    1.19
  -6   8  -5   59.22    4.00
  -6   8  -5   53.84    3.44
   6  -8   5   47.53    4.54
  -6   8  -6    0.32    0.43
  -6   8  -6   -0.37    0.54
  -6   8  -7   14.76    1.40
   6  -8   7   15.02    1.62
   6  -8   8    1.43    0.51
  -6   8  -8    1.27    0.44
   6  -8   9    3.06    0.60
  -6   8  -9    2.60    0.51
   6  -8  10   14.69    1.25
   6  -7 -13   15.90    1.69
   6  -7 -12    2.57    0.76
   6  -7 -11   19.52    2.09
   6  -7 -10   16.53    2.01
   6  -7 -10   14.52    1.57
   6  -7  -9    1.61    0.85
   6  -7  -9    1.99    0.67
   6  -7  -8  116.43    7.08
   6  -7  -8  119.21    6.57
   6  -7  -7    0.97    0.77
   6  -7  -7    2.48    0.91
  -6   7   7    2.37    0.78
  -6   7   6    3.44    1.00
   6  -7  -6    1.57    0.91
   6  -7  -6    4.08    1.26
  -6   7   5    3.88    1.00
   6  -7  -5    1.77    1.11
   6  -7  -5    2.91    1.04
   6  -7  -5    2.50    0.91
  -6   7   4    2.20    0.87
   6  -7  -4    1.27    0.78
  -6   7   3  123.37    7.55
   6  -7  -3  123.89    7.22
   6  -7  -3  107.70    6.93
   6  -7  -2    0.48    0.57
  -6   7   2    0.16    0.60
   6  -7  -2   -0.26    0.73
  -6   7   1  140.89    8.67
   6  -7  -1  148.74    8.34
   6  -7  -1  136.85    8.23
   6  -7   0   -0.13    0.60
   6  -7   1   75.84    5.13
   6  -7   2    5.85    1.25
  -6   7  -3    2.88    1.00
   6  -7   3    4.08    1.01
  -6   7  -4   88.47    5.99
   6  -7   4   87.09    7.29
   6  -7   4   89.80    5.85
  -6   7  -5    8.43    1.49
   6  -7   5    6.84    1.35
   6  -7   5    6.52    1.85
  -6   7  -5    8.61    1.36
  -6   7  -6   83.99    5.76
   6  -7   6   86.71    7.02
  -6   7  -6   95.32    5.69
   6  -7   7    4.43    1.24
  -6   7  -7    3.41    0.96
  -6   7  -7    2.84    0.82
  -6   7  -8   57.21    3.94
   6  -7   8   57.90    4.09
  -6   7  -9   48.77    3.39
   6  -7   9   48.60    3.52
  -6   7 -10   11.01    1.31
   6  -7  10    9.87    1.28
  -6   7 -11   29.69    2.28
   6  -7  11   31.86    2.31
   6  -7  12    0.60    0.37
  -6   7 -12    0.37    0.46
  -6   7 -12    0.55    0.39
   6  -6 -14   60.56    4.11
   6  -6 -13    0.12    0.56
   6  -6 -12   32.59    2.88
   6  -6 -12   27.52    2.17
   6  -6 -11   57.44    4.28
   6  -6 -11   50.61    3.54
   6  -6 -10    0.61    0.54
   6  -6 -10    0.56    0.72
   6  -6  -9   50.23    3.62
   6  -6  -9   56.97    4.69
   6  -6  -9   61.75    4.22
   6  -6  -8   -0.60    0.61
   6  -6  -8   -0.16    0.60
   6  -6  -8    0.40    0.90
  -6   6   8    0.44    0.51
   6  -6  -7  145.53    8.17
   6  -6  -7  126.48    9.19
  -6   6   7  146.82    8.66
   6  -6  -7  169.28    9.81
   6  -6  -7  162.43    8.90
  -6   6   6    5.02    1.20
   6  -6  -6    3.86    0.83
   6  -6  -6    3.01    1.22
   6  -6  -6    1.67    1.00
   6  -6  -6    5.78    1.26
   6  -6  -5    5.86    1.02
   6  -6  -5    5.40    1.62
   6  -6  -5    5.37    1.48
   6  -6  -5    7.57    1.42
   6  -6  -4   82.57    4.97
   6  -6  -4   80.34    6.12
   6  -6  -4   91.66    5.71
   6  -6  -4   73.63    5.24
   6  -6  -3   -0.12    0.54
   6  -6  -3    0.97    0.89
   6  -6  -3    1.42    0.85
   6  -6  -2  108.48    6.51
   6  -6  -2   91.90    6.15
   6  -6  -1    3.81    1.05
   6  -6   0   91.54    6.02
   6  -6   1    4.37    1.13
   6  -6   2    0.81    0.79
   6  -6   3   51.00    4.21
   6  -6   4   18.96    2.32
   6  -6   5   16.94    2.15
  -6   6  -6    1.80    0.81
   6  -6   6    1.99    0.95
   6  -6   6    1.87    1.25
  -6   6  -7   12.39    1.81
   6  -6   7   13.44    2.48
  -6   6  -8   21.48    2.38
   6  -6   8   21.86    3.09
   6  -6   9    4.93    1.12
  -6   6  -9    6.60    1.32
  -6   6 -10  108.99    6.46
   6  -6  10   98.26    6.28
   6  -6  11    8.31    1.31
  -6   6 -11    6.85    1.56
  -6   6 -11   10.45    1.47
  -6   6 -12   29.26    2.29
  -6   6 -12   35.05    2.70
  -6   6 -12   29.22    2.95
   6  -6  12   36.86    2.68
   6  -6  13    6.25    0.93
  -6   6 -13    4.47    0.91
   6  -6  14    1.41    0.44
  -6   6 -14    0.87    0.48
   6  -5 -14    3.72    0.75
   6  -5 -13   23.38    2.16
   6  -5 -13   27.02    2.29
   6  -5 -12   64.73    4.25
   6  -5 -12   69.61    5.21
   6  -5 -12   62.70    4.38
   6  -5 -11    1.59    0.82
   6  -5 -11   -0.48    0.51
   6  -5 -11    0.20    0.81
   6  -5 -10   77.30    5.04
   6  -5 -10   80.32    6.18
   6  -5 -10   81.43    5.44
   6  -5  -9    2.10    0.80
   6  -5  -9    3.28    1.31
   6  -5  -9    1.31    0.90
   6  -5  -8  114.05    6.23
   6  -5  -8  109.46    7.67
   6  -5  -7    1.98    1.20
   6  -5  -7    1.60    0.77
   6  -5  -7    0.46    0.70
   6  -5  -7    1.80    1.00
   6  -5  -6   28.91    2.48
   6  -5  -6   24.04    3.28
   6  -5  -6   26.99    3.42
   6  -5  -6   28.42    2.91
   6  -5  -5   93.69    5.74
   6  -5  -5   99.40    7.24
   6  -5  -5   99.89    7.67
   6  -5  -5   92.73    7.50
  -6   5   5   77.32    6.21
   6  -5  -5  102.17    6.32
   6  -5  -4    1.36    0.62
   6  -5  -4    0.53    0.67
   6  -5  -4   -0.47    0.88
   6  -5  -4    0.31    0.90
   6  -5  -4   -0.15    0.88
  -6   5   4   -0.18    0.60
   6  -5  -3   60.24    3.95
   6  -5  -3   46.30    4.74
   6  -5  -3   59.52    5.84
   6  -5  -3   64.96    4.48
  -6   5   3   47.70    4.48
   6  -5  -3   53.40    4.00
   6  -5  -2    1.35    0.64
   6  -5  -2    2.25    0.74
   6  -5  -2    1.95    1.06
   6  -5  -2    2.37    1.31
   6  -5  -2    2.14    0.93
  -6   5   2    2.30    0.98
   6  -5  -1    6.32    1.18
   6  -5  -1    6.48    1.12
  -6   5   1    4.49    1.30
   6  -5   0   21.55    2.08
  -6   5   0   20.28    2.62
   6  -5   0   19.26    2.28
   6  -5   1    1.82    0.92
   6  -5   1    1.63    0.69
   6  -5   1    0.38    1.27
   6  -5   2   66.92    4.55
   6  -5   2   82.43    7.41
   6  -5   2   82.77    5.49
   6  -5   3    7.72    1.42
   6  -5   3    7.97    2.20
  -6   5  -3    5.18    1.39
   6  -5   4   40.46    3.48
   6  -5   4   35.54    4.55
  -6   5  -4   34.69    3.56
   6  -5   5    4.31    1.12
   6  -5   5    1.66    1.23
  -6   5  -5    1.26    0.90
   6  -5   6   40.01    3.52
   6  -5   6   36.95    4.54
   6  -5   6   39.90    4.59
   6  -5   7   59.94    5.60
   6  -5   8   24.21    3.19
  -6   5  -9    3.38    0.97
   6  -5   9    5.68    1.24
   6  -5  10    8.22    1.51
  -6   5 -10   14.38    2.00
   6  -5  11   16.93    1.99
  -6   5 -11   15.63    2.11
   6  -5  12   21.33    2.13
  -6   5 -12   14.92    2.25
  -6   5 -12   21.85    2.36
   6  -5  13    0.31    0.51
  -6   5 -13    1.14    0.86
  -6   5 -13    1.37    0.84
  -6   5 -14   31.17    2.52
   6  -5  14   36.54    2.65
  -6   5 -15   10.22    1.24
   6  -5  15   15.22    1.37
  -6   5 -16    4.28    0.65
   6  -4 -16   24.73    2.18
   6  -4 -15    6.69    1.01
   6  -4 -15    6.13    0.85
   6  -4 -14    6.96    1.09
   6  -4 -14    6.91    1.09
   6  -4 -13   13.55    1.60
   6  -4 -13   13.71    1.68
   6  -4 -12   14.18    1.72
   6  -4 -12   17.21    2.57
   6  -4 -12   16.26    1.95
   6  -4 -11   88.16    5.56
   6  -4 -11   87.73    6.81
   6  -4 -11   84.95    5.82
   6  -4 -10    1.58    1.35
   6  -4 -10    2.34    0.86
   6  -4 -10    1.87    0.94
   6  -4  -9   16.99    1.99
   6  -4  -9   18.80    2.94
   6  -4  -9   20.22    2.40
   6  -4  -8    0.59    0.75
   6  -4  -8    1.81    0.87
   6  -4  -8    0.57    1.23
   6  -4  -7   48.66    3.54
   6  -4  -7   43.29    4.68
   6  -4  -7   38.17    4.25
   6  -4  -7   43.90    3.78
   6  -4  -6   54.18    3.81
   6  -4  -6   59.98    5.42
   6  -4  -6   50.00    5.05
   6  -4  -6   41.85    4.77
  -6   4   6   42.29    3.99
   6  -4  -6   56.50    4.27
  -6   4   5    6.32    1.43
   6  -4  -5    8.95    1.37
   6  -4  -5    9.06    2.19
   6  -4  -5   11.62    2.40
   6  -4  -5    8.34    1.98
   6  -4  -5   11.15    1.69
   6  -4  -4   28.65    2.44
   6  -4  -4   22.04    3.21
   6  -4  -4   19.14    3.29
  -6   4   4   21.25    2.68
   6  -4  -4   25.08    2.64
  -6   4   3    0.19    0.62
   6  -4  -3    0.59    0.72
   6  -4  -3    1.24    1.00
   6  -4  -3    1.37    1.21
   6  -4  -3   -0.15    0.80
   6  -4  -2   39.60    3.07
   6  -4  -2   37.13    3.83
   6  -4  -2   39.81    4.85
   6  -4  -2   36.27    3.17
  -6   4   2   31.52    3.39
   6  -4  -2   32.33    2.91
   6  -4  -1   54.08    3.70
  -6   4   1   46.43    4.23
   6  -4  -1   42.98    3.67
   6  -4   0    2.35    0.89
   6  -4   0    1.53    0.71
  -6   4   0    2.01    0.87
   6  -4   1  192.44   12.37
   6  -4   1  163.00    9.79
   6  -4   2   10.88    1.66
   6  -4   2   14.70    2.91
   6  -4   3  225.31   12.01
   6  -4   3  212.22   13.81
  -6   4  -3  198.52   12.21
   6  -4   4   26.02    3.64
  -6   4  -4   23.20    2.76
  -6   4  -5   10.02    1.79
   6  -4   5    8.74    2.20
  -6   4  -6   15.76    2.26
   6  -4   6   15.83    2.63
   6  -4   7   12.03    2.30
   6  -4   7    9.48    2.05
  -6   4  -7    8.36    1.57
   6  -4   8   59.41    5.02
  -6   4  -8   41.44    3.97
   6  -4   9    5.14    1.36
   6  -4  10   17.22    2.05
  -6   4 -11   79.18    6.01
  -6   4 -12    7.20    1.59
  -6   4 -13   16.63    2.19
  -6   4 -14   18.63    2.14
  -6   4 -15   26.64    2.38
  -6   4 -15   23.42    2.22
  -6   4 -15   22.85    2.40
  -6   4 -16   -0.41    0.60
   6  -4  16    0.62    0.49
  -6   4 -16    0.09    0.57
  -6   4 -17    0.88    0.50
   6  -4  17    2.18    0.51
  -6   4 -17    1.78    0.58
   6  -3 -17   11.71    1.35
   6  -3 -16    7.30    1.18
   6  -3 -15   -0.25    0.49
   6  -3 -15   -0.15    0.90
   6  -3 -15    0.23    0.42
   6  -3 -14    3.79    0.94
   6  -3 -14    3.09    0.92
   6  -3 -13    3.34    0.96
   6  -3 -13    4.31    1.07
   6  -3 -12   46.72    3.58
   6  -3 -12   52.41    4.85
   6  -3 -12   44.42    3.74
   6  -3 -12   35.97    3.91
   6  -3 -11    1.74    0.91
   6  -3 -11    2.01    1.40
   6  -3 -11    4.26    1.31
   6  -3 -11    2.36    1.08
   6  -3 -10    6.84    1.35
   6  -3 -10    4.94    1.81
   6  -3 -10    8.65    1.67
   6  -3 -10    3.22    1.33
   6  -3  -9   29.22    2.66
   6  -3  -9   25.39    3.83
   6  -3  -9   29.63    3.04
   6  -3  -9   20.71    3.05
   6  -3  -8   -0.37    0.87
   6  -3  -8    1.31    1.41
   6  -3  -8    0.63    0.75
   6  -3  -7   85.69    5.25
   6  -3  -7   83.18    7.07
   6  -3  -7   70.42    6.19
   6  -3  -7   82.02    5.70
  -6   3   6    1.16    0.69
   6  -3  -6    0.97    0.79
   6  -3  -6    0.30    1.10
   6  -3  -6    0.59    0.99
   6  -3  -6   -0.58    0.92
   6  -3  -6    0.33    0.72
   6  -3  -5   88.35    5.43
   6  -3  -5   85.58    7.36
   6  -3  -5   90.09    7.08
   6  -3  -5   86.73    7.33
   6  -3  -5   79.44    5.72
  -6   3   5   72.96    5.69
   6  -3  -4    0.85    0.75
   6  -3  -4    2.97    1.37
   6  -3  -4    2.25    1.15
  -6   3   4    0.66    0.61
   6  -3  -4    2.59    1.35
   6  -3  -4    0.31    0.92
   6  -3  -3   11.13    1.55
   6  -3  -3    9.28    1.91
   6  -3  -3   11.51    2.44
  -6   3   3    9.34    1.65
   6  -3  -3   10.23    1.65
   6  -3  -2    9.72    2.20
   6  -3  -2    7.39    1.24
   6  -3  -2    4.66    1.29
  -6   3   2    5.85    1.30
   6  -3  -1    3.40    0.90
   6  -3  -1    2.20    0.80
   6  -3  -1    4.30    1.58
  -6   3   1    3.71    1.07
  -6   3   0  192.88   11.07
   6  -3   0  190.54   10.60
   6  -3   1  119.43    7.37
   6  -3   1  135.49    9.32
   6  -3   2   10.89    2.34
  -6   3  -3   27.50    2.84
   6  -3   3   28.90    3.67
   6  -3   4   36.55    3.96
  -6   3  -4   25.36    2.84
   6  -3   5  131.42    9.04
   6  -3   5  123.67    7.56
  -6   3  -5  123.53    7.90
   6  -3   6  145.42    9.38
   6  -3   6  141.38    9.23
   6  -3   6  124.63    7.77
  -6   3  -6  114.51    7.91
   6  -3   6  129.22    7.22
   6  -3   7  190.07   11.62
   6  -3   7  175.23   10.37
  -6   3  -7  163.04   10.53
   6  -3   7  180.28    9.74
   6  -3   8    1.09    0.62
  -6   3  -8    0.87    0.64
   6  -3   8    0.72    0.81
   6  -3   8    0.98    0.82
   6  -3   8    0.95    0.70
   6  -3   9   39.86    3.94
  -6   3  -9   35.09    3.51
   6  -3   9   37.91    2.90
   6  -3  10   23.48    2.14
   6  -3  11   42.15    3.60
   6  -3  11   38.46    2.95
  -6   3 -12  119.27    7.75
   6  -3  12  118.78    7.22
   6  -3  12  106.59    6.45
  -6   3 -13  112.75    7.40
   6  -3  13  109.81    6.94
   6  -3  13  104.59    6.33
  -6   3 -14   25.92    2.73
  -6   3 -14   32.13    3.00
   6  -3  14   28.67    2.65
   6  -3  14   26.68    2.17
  -6   3 -15   17.55    1.91
  -6   3 -15   14.11    1.84
   6  -3  15   13.66    1.65
   6  -3  15   12.07    1.30
  -6   3 -16    7.38    1.12
  -6   3 -16    6.60    1.22
   6  -3  16    5.93    0.79
  -6   3 -17    4.74    1.09
  -6   3 -17    3.89    0.84
   6  -3  18    9.93    1.01
  -6   3 -18    6.44    1.11
  -6   3 -18    7.66    0.90
   6  -2 -17    4.99    0.89
   6  -2 -16    6.09    1.19
   6  -2 -16    4.06    0.78
   6  -2 -15   17.77    1.91
   6  -2 -15   21.29    2.58
   6  -2 -15   18.36    1.92
   6  -2 -14   30.27    2.65
   6  -2 -14   35.64    3.62
   6  -2 -14   28.90    2.71
   6  -2 -14   25.07    2.88
   6  -2 -13   50.15    3.73
   6  -2 -13   52.07    4.07
   6  -2 -13   41.15    4.19
   6  -2 -12   -0.13    0.70
   6  -2 -12    0.67    1.01
   6  -2 -12    0.09    0.53
   6  -2 -12   -0.23    1.04
   6  -2 -11   33.52    3.01
   6  -2 -11   39.14    4.67
   6  -2 -11   41.51    3.69
   6  -2 -11   30.43    2.69
   6  -2 -11   29.79    3.74
   6  -2 -10   37.39    3.13
   6  -2 -10   39.04    4.81
   6  -2 -10   37.66    3.61
   6  -2 -10   32.88    2.82
   6  -2 -10   30.96    3.90
   6  -2  -9   28.31    2.58
   6  -2  -9   31.36    4.01
   6  -2  -9   21.64    2.77
   6  -2  -9   23.04    2.23
   6  -2  -9   22.34    3.13
   6  -2  -9   17.77    2.12
   6  -2  -8  113.90    6.70
   6  -2  -8  121.39    8.84
   6  -2  -8  111.70    7.41
   6  -2  -8  108.12    6.43
   6  -2  -8   94.05    7.55
   6  -2  -8  101.10    6.44
   6  -2  -7    4.62    1.14
   6  -2  -7    4.57    1.14
   6  -2  -7    8.36    1.96
   6  -2  -7    4.73    1.73
   6  -2  -7    4.84    1.69
   6  -2  -7    6.03    1.14
   6  -2  -7    6.06    1.53
   6  -2  -6  167.13    9.27
   6  -2  -6  170.13   11.11
   6  -2  -6  172.96   11.23
   6  -2  -6  160.24   11.05
   6  -2  -6  165.06    8.96
   6  -2  -6  167.65    9.75
   6  -2  -6  163.84    9.90
   6  -2  -6  164.05    9.15
  -6   2   6  146.98    9.46
   6  -2  -5   13.68    1.68
   6  -2  -5   11.14    2.30
   6  -2  -5   13.73    2.47
   6  -2  -5   12.60    1.81
   6  -2  -5    9.60    1.81
   6  -2  -5   14.12    2.43
   6  -2  -5   13.37    1.58
  -6   2   5   12.50    1.76
   6  -2  -4    2.15    0.67
   6  -2  -4    0.49    0.65
   6  -2  -4    1.13    1.05
  -6   2   4    1.77    0.74
   6  -2  -4    1.02    0.69
   6  -2  -4    1.43    0.92
   6  -2  -4    1.12    0.90
   6  -2  -4    1.94    1.20
  -6   2   3  121.78    7.53
   6  -2  -3  126.57    7.21
   6  -2  -3  115.92    8.02
   6  -2  -3  134.49    9.15
   6  -2  -3  123.84    8.80
   6  -2  -3  109.86    7.28
   6  -2  -3  122.69    6.90
  -6   2   2   24.46    2.47
   6  -2  -2   21.71    2.13
   6  -2  -2   22.06    2.61
   6  -2  -2   21.01    2.97
   6  -2  -2   22.23    2.31
   6  -2  -2   19.65    1.88
  -6   2   1   49.35    3.85
   6  -2  -1   53.82    4.90
   6  -2  -1   43.70    3.55
   6  -2  -1   46.39    3.20
   6  -2   0   13.98    1.61
  -6   2   0   17.26    2.01
   6  -2   0   12.42    1.68
   6  -2   0   13.99    1.47
   6  -2   1    3.04    0.73
   6  -2   1    7.26    1.75
   6  -2   2   22.98    2.96
   6  -2   2   19.78    1.82
   6  -2   3   68.77    5.59
   6  -2   3   54.81    4.17
   6  -2   3   69.02    4.11
  -6   2  -4   64.31    4.71
   6  -2   4   66.25    5.55
   6  -2   4   66.51    4.56
   6  -2   4   64.15    4.16
  -6   2  -5  117.31    7.46
   6  -2   5  123.74    8.58
   6  -2   5  137.21    8.71
   6  -2   5  117.10    7.33
   6  -2   5  120.32    6.89
  -6   2  -6   40.92    3.66
   6  -2   6   46.80    4.52
   6  -2   6   52.49    4.65
   6  -2   6   48.47    3.83
   6  -2   6   47.27    3.34
  -6   2  -7   45.36    3.76
   6  -2   7   48.12    4.49
   6  -2   7   48.80    4.56
   6  -2   7   46.46    3.98
   6  -2   7   52.31    3.98
   6  -2   7   42.09    3.28
   6  -2   8   64.33    5.40
   6  -2   8   67.54    5.45
   6  -2   8   60.93    4.90
   6  -2   8   67.65    4.95
  -6   2  -8   67.15    4.84
   6  -2   9   31.54    3.40
   6  -2   9   30.19    3.11
   6  -2   9   38.29    3.39
  -6   2  -9   28.60    2.95
   6  -2   9   31.62    3.40
  -6   2 -12  112.12    7.43
   6  -2  12  106.10    7.16
  -6   2 -13   12.65    1.90
   6  -2  13    8.28    1.55
  -6   2 -13   12.88    1.93
  -6   2 -14    0.65    0.79
   6  -2  14   -0.16    0.80
  -6   2 -14    1.24    0.88
  -6   2 -15   49.33    3.73
  -6   2 -15   45.11    3.61
   6  -2  15   42.18    3.59
  -6   2 -16    8.40    1.31
   6  -2  16    7.45    1.30
  -6   2 -16    8.90    1.34
  -6   2 -17   17.45    1.67
  -6   2 -17   13.64    1.58
   6  -2  17   15.31    1.69
   6  -2  18    4.05    0.67
  -6   2 -18    3.39    0.72
  -6   2 -19   13.05    1.40
   6  -1 -17    0.35    0.48
   6  -1 -16   27.58    2.40
   6  -1 -16   30.25    2.60
   6  -1 -15    2.17    1.12
   6  -1 -15    0.11    0.70
   6  -1 -15    1.46    0.78
   6  -1 -14  117.30    6.82
   6  -1 -14  119.49    8.37
   6  -1 -14  113.36    7.03
   6  -1 -14   92.58    7.26
   6  -1 -13    0.64    0.85
   6  -1 -13    0.17    0.92
   6  -1 -13    1.87    0.73
   6  -1 -13    0.47    0.91
   6  -1 -12    0.40    0.81
   6  -1 -12    0.38    0.92
   6  -1 -12    1.66    0.75
   6  -1 -12    0.80    0.98
   6  -1 -11    6.25    1.34
   6  -1 -11    7.75    1.76
   6  -1 -11    5.17    1.15
   6  -1 -11    7.96    1.94
   6  -1 -10    1.35    0.80
   6  -1 -10    4.91    1.90
   6  -1 -10    1.27    1.11
   6  -1 -10    1.07    0.76
   6  -1 -10    2.05    1.22
   6  -1 -10    2.45    1.00
   6  -1 -10    1.79    0.81
   6  -1  -9   13.90    1.75
   6  -1  -9   10.27    2.39
   6  -1  -9   12.73    2.21
   6  -1  -9   10.97    1.60
   6  -1  -9    9.89    2.03
   6  -1  -9   10.40    1.73
   6  -1  -9   12.96    1.70
   6  -1  -8   10.55    1.63
   6  -1  -8   13.80    1.81
   6  -1  -8   13.69    2.59
   6  -1  -8   12.82    2.28
   6  -1  -8   15.88    1.76
   6  -1  -8   13.10    2.24
   6  -1  -8   11.62    1.87
   6  -1  -7   53.94    3.91
   6  -1  -7   55.20    5.16
   6  -1  -7   50.87    4.80
   6  -1  -7   46.06    4.67
   6  -1  -7   54.73    3.76
   6  -1  -7   47.78    3.80
   6  -1  -6    0.11    0.79
   6  -1  -6    1.19    0.77
   6  -1  -6    0.97    0.90
   6  -1  -6    2.17    1.07
   6  -1  -6   -0.25    0.95
   6  -1  -6    1.13    0.69
  -6   1   6    0.53    0.53
   6  -1  -6    0.60    0.79
   6  -1  -6    0.59    0.95
  -6   1   5   15.38    1.91
   6  -1  -5   16.42    1.86
   6  -1  -5   17.55    2.53
   6  -1  -5   17.66    2.56
   6  -1  -5   14.83    1.66
   6  -1  -5   16.44    2.01
   6  -1  -5   21.58    2.88
   6  -1  -5   14.28    1.69
   6  -1  -4   59.71    3.99
  -6   1   4   48.59    3.95
   6  -1  -4   61.15    5.09
   6  -1  -4   50.73    3.53
   6  -1  -4   54.15    4.92
   6  -1  -4   52.38    3.98
   6  -1  -4   55.54    3.69
   6  -1  -3   20.71    2.14
  -6   1   3   23.48    2.44
   6  -1  -3   24.92    2.78
   6  -1  -3   24.78    3.13
   6  -1  -3   19.83    2.85
   6  -1  -3   22.04    1.96
   6  -1  -3   26.24    2.48
   6  -1  -3   22.84    2.03
   6  -1  -2   10.54    1.38
   6  -1  -2   12.63    1.85
  -6   1   2   11.71    1.65
   6  -1  -2   13.49    2.19
   6  -1  -2   15.44    2.35
   6  -1  -2   10.34    1.56
   6  -1  -2   10.48    1.66
   6  -1  -2   11.21    1.34
   6  -1  -1   15.92    1.66
   6  -1  -1   18.79    2.62
  -6   1   1   22.02    2.23
   6  -1  -1   17.89    2.56
   6  -1  -1   15.77    1.83
   6  -1  -1   15.56    2.02
   6  -1  -1   18.14    1.69
   6  -1   0   29.67    2.38
  -6   1   0   30.39    2.81
   6  -1   0   30.80    2.56
   6  -1   0   26.50    2.22
   6  -1   1   20.58    2.79
  -6   1  -1   21.32    2.30
   6  -1   1   20.92    2.05
   6  -1   1   23.95    1.96
   6  -1   2  129.52    8.42
   6  -1   2  130.47    8.36
   6  -1   2  114.66    6.72
   6  -1   3  104.59    7.33
   6  -1   3  110.71    7.39
   6  -1   3   95.96    6.40
   6  -1   3   98.73    6.09
   6  -1   3  102.26    5.88
   6  -1   4   60.05    5.05
  -6   1  -4   60.79    4.37
   6  -1   4   65.09    5.14
   6  -1   4   63.87    4.51
   6  -1   4   54.79    4.07
   6  -1   4   53.31    3.76
   6  -1   5    3.59    0.81
   6  -1   5    3.76    1.29
   6  -1   5    5.18    1.39
  -6   1  -5    3.16    0.90
   6  -1   5    1.82    0.69
  -6   1  -6   35.41    3.16
   6  -1   6   35.04    3.70
   6  -1   6   39.84    3.83
   6  -1   6   38.23    3.31
   6  -1   6   37.67    2.89
  -6   1  -7  172.14    9.97
   6  -1   7  175.31   10.87
   6  -1   7  186.19   10.90
   6  -1   7  168.99   10.15
  -6   1  -8    3.26    0.92
   6  -1   8    2.57    0.99
   6  -1   8    2.53    1.06
   6  -1   8    1.85    0.97
   6  -1   8    2.12    0.91
   6  -1   9    1.44    0.76
   6  -1   9    0.20    0.79
   6  -1   9    1.34    0.88
  -6   1  -9    0.57    0.52
   6  -1   9    0.56    0.72
   6  -1  10  128.95    8.22
   6  -1  10  143.52    8.49
  -6   1 -10  114.24    7.57
   6  -1  11   64.50    5.13
  -6   1 -12    9.41    1.72
   6  -1  12    9.96    1.74
   6  -1  12   10.50    1.82
  -6   1 -13   -0.17    0.70
  -6   1 -13    0.28    0.52
   6  -1  13    1.29    0.77
   6  -1  13    1.00    0.89
  -6   1 -13   -0.80    0.80
  -6   1 -14  165.98   10.12
  -6   1 -14  181.82   10.49
  -6   1 -14  188.81   10.46
   6  -1  14  192.65   10.97
  -6   1 -15   10.93    1.57
  -6   1 -15    9.87    1.48
   6  -1  15    8.77    1.70
  -6   1 -15    8.13    1.42
  -6   1 -16   50.98    3.97
  -6   1 -16   57.30    4.09
  -6   1 -16   56.61    3.98
   6  -1  16   62.21    4.52
  -6   1 -17    1.68    0.62
  -6   1 -17    1.72    0.71
  -6   1 -17    1.30    0.68
   6  -1  17    2.33    0.78
  -6   1 -18   20.03    1.95
  -6   1 -18   15.46    1.65
   6  -1  18   18.40    1.88
  -6   1 -19    9.18    1.16
  -6   1 -19    7.49    1.00
   6  -1  20   -0.19    0.40
  -6   1 -20   -0.19    0.40
   6   0 -17    7.07    1.13
   6   0 -17    4.84    0.81
   6   0 -16    8.88    1.61
   6   0 -16    8.41    1.40
   6   0 -15   80.74    5.07
   6   0 -15   79.91    6.11
   6   0 -15   76.23    5.11
   6   0 -15   66.00    5.37
   6   0 -14   10.63    2.40
   6   0 -14   10.77    1.75
   6   0 -14    8.32    1.87
   6   0 -13    5.27    1.48
   6   0 -13    4.88    1.88
   6   0 -13    7.69    1.65
   6   0 -13    5.46    1.11
   6   0 -13    4.16    1.49
   6   0 -12    2.83    1.23
   6   0 -12    2.56    1.37
   6   0 -12    1.94    0.86
   6   0 -12    0.51    1.06
   6   0 -11   15.27    2.55
   6   0 -11   17.37    2.02
   6   0 -11   17.27    2.15
   6   0 -11   16.87    2.60
   6   0 -11   17.45    2.14
   6   0 -10   39.84    4.45
   6   0 -10   52.01    5.18
   6   0 -10   49.04    4.68
   6   0 -10   50.26    3.76
   6   0 -10   43.66    4.45
   6   0 -10   43.49    3.78
   6   0 -10   47.01    3.68
   6   0 -10   46.76    3.69
   6   0  -9    0.37    1.01
   6   0  -9   -0.58    2.42
   6   0  -9    0.57    1.01
   6   0  -9   -0.25    1.38
   6   0  -9    0.25    0.68
   6   0  -9    1.14    0.88
   6   0  -9    0.32    0.61
   6   0  -9    0.31    1.72
   6   0  -9    0.90    0.77
   6   0  -8    0.25    0.66
   6   0  -8    0.12    0.95
   6   0  -8    2.59    2.32
   6   0  -8    1.62    1.13
   6   0  -8    0.25    1.29
   6   0  -8   -0.35    0.75
   6   0  -8    1.47    0.84
   6   0  -8    0.95    0.73
   6   0  -8    2.28    1.77
   6   0  -7    1.63    0.88
   6   0  -7    1.07    1.05
   6   0  -7    0.75    0.93
   6   0  -7    0.41    0.60
   6   0  -7    0.24    1.23
   6   0  -7    0.45    0.68
   6   0  -7    1.75    1.62
   6   0  -6   14.79    2.00
  -6   0   6   12.45    1.59
   6   0  -6   11.11    1.93
   6   0  -6   10.53    1.96
   6   0  -6   12.68    1.51
   6   0  -6    9.49    2.06
   6   0  -6   12.93    2.15
   6   0  -6   11.09    1.56
   6   0  -5   14.91    2.00
  -6   0   5   15.50    1.82
   6   0  -5   10.52    1.97
   6   0  -5   15.48    1.64
   6   0  -5   14.88    1.93
   6   0  -5   14.97    2.22
   6   0  -5   13.79    2.07
   6   0  -5   13.63    1.65
   6   0  -5   11.87    2.03
   6   0  -4  183.80   10.73
   6   0  -4  196.35   11.64
   6   0  -4  217.59   12.01
  -6   0   4  202.01   11.03
   6   0  -4  211.06   11.91
   6   0  -4  193.55   10.45
   6   0  -4  214.00   11.18
   6   0  -4  183.99   11.38
   6   0  -4  186.28   10.83
   6   0  -4  197.39   10.55
   6   0  -3   66.39    4.32
   6   0  -3   54.56    4.18
   6   0  -3   59.19    4.78
   6   0  -3   76.42    5.49
  -6   0   3   67.95    4.68
   6   0  -3   73.00    5.46
   6   0  -3   67.77    4.63
   6   0  -3   58.07    4.77
   6   0  -3   61.97    4.49
   6   0  -3   66.40    4.16
   6   0  -2   78.69    4.79
   6   0  -2   84.80    5.97
   6   0  -2   77.75    5.77
  -6   0   2   80.31    5.21
   6   0  -2   75.89    5.03
   6   0  -2   66.05    5.11
   6   0  -2   68.03    4.86
   6   0  -2   71.87    4.54
   6   0  -1   21.94    2.08
   6   0  -1   28.18    3.01
   6   0  -1   25.47    2.92
   6   0  -1   24.65    2.31
  -6   0   1   28.06    2.57
   6   0  -1   19.35    2.26
   6   0  -1   23.27    1.97
   6   0   0   19.24    2.52
   6   0   0   17.45    1.93
   6   0   0   20.30    2.07
  -6   0   0   21.36    2.27
   6   0   0   20.96    1.83
  -6   0  -1   77.02    5.04
   6   0   1   66.33    4.26
   6   0   2  215.04   12.00
   6   0   2  201.67   11.76
   6   0   2  208.25   11.07
   6   0   2  186.96   10.37
   6   0   3  271.37   14.79
   6   0   3  265.17   14.65
   6   0   3  264.24   14.00
   6   0   3  247.97   13.25
   6   0   4   44.59    4.25
   6   0   4   54.03    4.44
   6   0   4   50.79    4.08
  -6   0  -4   54.98    4.05
   6   0   4   51.16    3.47
   6   0   5    0.95    0.57
  -6   0  -5    0.43    0.46
   6   0   5    0.20    0.63
   6   0   5    0.59    0.72
   6   0   5    1.17    0.87
   6   0   5   -0.14    0.62
   6   0   6  103.90    7.21
   6   0   6   99.91    7.08
  -6   0  -6  107.09    6.67
   6   0   6  108.28    6.78
   6   0   7   51.17    4.45
  -6   0  -7   54.63    4.03
   6   0   7   47.04    4.28
   6   0   7   53.20    4.20
   6   0   8  147.98    9.75
  -6   0  -8  151.33    9.13
   6   0   8  168.63    9.92
   6   0   8  173.86    9.82
  -6   0  -9   29.95    2.75
   6   0   9   31.47    3.22
   6   0   9   28.97    3.10
   6   0   9   32.99    3.42
  -6   0 -10   59.77    4.43
   6   0  10   62.14    4.86
   6   0  10   62.70    4.87
   6   0  10   71.03    5.40
  -6   0 -11    2.40    0.96
  -6   0 -11    1.16    0.67
   6   0  11    1.74    1.03
  -6   0 -12   16.37    2.05
  -6   0 -12   16.93    2.12
   6   0  12   16.60    2.43
  -6   0 -13   16.37    2.06
  -6   0 -13   14.05    1.99
   6   0  13   16.92    2.41
   6   0  13   18.46    2.53
  -6   0 -14   26.71    2.70
  -6   0 -14   22.57    2.45
   6   0  14   22.92    2.83
  -6   0 -14   21.07    2.38
   6   0  14   24.36    3.01
  -6   0 -15  115.04    7.36
  -6   0 -15  115.45    7.11
  -6   0 -15  109.91    6.92
   6   0  15  120.01    7.88
  -6   0 -16    7.55    1.28
  -6   0 -16    7.21    1.42
  -6   0 -16    6.43    1.20
   6   0  16    5.85    1.51
  -6   0 -17   82.80    5.36
  -6   0 -17   74.22    4.81
  -6   0 -17   66.92    4.60
   6   0  17   87.28    5.74
  -6   0 -18    0.20    0.62
  -6   0 -18    1.01    0.66
   6   0  18   -0.15    0.63
  -6   0 -19   -0.16    0.52
  -6   0 -19    0.31    0.51
   6   0  19    0.35    0.58
  -6   0 -20   71.80    4.40
  -6   0 -20   80.85    4.72
   6   0  20   86.77    4.83
   6   0  21    5.22    0.80
   6   1 -17    3.57    0.81
   6   1 -17    2.94    0.67
   6   1 -16    2.86    1.05
   6   1 -16    1.94    0.81
   6   1 -15    5.74    1.43
   6   1 -15    8.56    1.37
   6   1 -15   11.77    2.13
   6   1 -15    9.76    1.56
   6   1 -15    7.73    1.59
   6   1 -14    5.81    1.38
   6   1 -14    8.42    1.41
   6   1 -14    7.55    1.85
   6   1 -14    9.94    1.76
   6   1 -14    8.34    1.30
   6   1 -14    7.60    1.77
   6   1 -13    4.45    1.16
   6   1 -13    4.52    2.50
   6   1 -13    5.42    1.33
   6   1 -13    7.80    1.93
   6   1 -13    7.09    1.71
   6   1 -13    6.83    1.23
   6   1 -13    5.03    1.53
   6   1 -13    2.82    1.06
   6   1 -12   50.52    4.68
   6   1 -12   55.84    4.25
   6   1 -12   57.55    5.48
   6   1 -12   58.69    5.13
   6   1 -12   59.47    4.10
   6   1 -12   57.70    5.03
   6   1 -12   47.80    4.00
   6   1 -12   57.85    4.70
   6   1 -12   54.57    4.47
   6   1 -12   50.89    3.97
   6   1 -11   33.25    3.04
   6   1 -11   27.74    3.65
   6   1 -11   34.96    3.16
   6   1 -11   36.07    4.06
   6   1 -11   39.62    3.16
   6   1 -11   32.33    3.67
   6   1 -11   34.62    3.12
   6   1 -11   36.12    3.50
   6   1 -10   50.32    3.99
   6   1 -10   54.66    4.48
   6   1 -10   53.62    4.07
   6   1 -10   63.52    5.52
   6   1 -10   52.14    3.99
   6   1 -10   51.50    4.74
   6   1 -10   46.49    3.99
   6   1 -10   52.32    4.01
   6   1 -10   51.11    4.42
   6   1  -9    2.09    0.93
   6   1  -9    0.28    1.68
   6   1  -9    2.71    0.92
   6   1  -9    1.63    1.18
   6   1  -9    2.33    1.42
   6   1  -9    1.27    0.75
   6   1  -9    0.87    0.84
   6   1  -9    2.08    0.90
   6   1  -9    0.16    1.56
   6   1  -9    1.32    0.86
   6   1  -8   43.29    3.66
   6   1  -8   46.06    3.67
   6   1  -8   51.61    4.88
   6   1  -8   48.66    3.65
   6   1  -8   47.60    4.28
   6   1  -8   50.41    4.06
   6   1  -8   50.32    4.13
   6   1  -8   47.37    3.76
   6   1  -7   37.68    3.23
   6   1  -7   40.96    3.23
   6   1  -7   38.32    3.12
   6   1  -7   38.15    3.39
   6   1  -7   42.71    4.15
   6   1  -7   36.44    3.55
   6   1  -7   42.68    3.57
   6   1  -7   35.92    3.41
   6   1  -7   37.68    3.22
   6   1  -6   61.35    4.14
   6   1  -6   58.26    4.40
   6   1  -6   54.70    4.88
  -6  -1   6   51.28    3.96
   6   1  -6   54.37    4.60
   6   1  -6   57.27    3.97
   6   1  -6   58.80    4.40
   6   1  -6   58.62    4.13
   6   1  -6   65.23    4.33
   6   1  -5  126.20    7.40
   6   1  -5  117.87    7.02
   6   1  -5  108.83    7.31
   6   1  -5  111.71    7.88
   6   1  -5  118.13    7.78
   6   1  -5  123.56    7.90
   6   1  -5  110.64    6.82
  -6  -1   5  117.80    7.20
   6   1  -5  128.54    7.65
   6   1  -5  119.47    7.25
   6   1  -5  129.81    7.08
   6   1  -5  124.21    7.25
   6   1  -4    4.39    0.94
   6   1  -4    5.57    1.29
   6   1  -4    4.02    1.69
   6   1  -4    6.43    1.12
   6   1  -4    2.81    1.05
   6   1  -4    3.71    1.12
   6   1  -4    4.96    1.05
   6   1  -4    5.19    1.29
  -6  -1   4    5.24    1.10
   6   1  -4    5.42    0.97
   6   1  -4    5.01    1.32
   6   1  -4    4.42    1.15
   6   1  -3   13.11    2.15
   6   1  -3   15.80    1.69
   6   1  -3   16.09    1.74
   6   1  -3   13.28    1.70
   6   1  -3   13.48    1.95
   6   1  -3   13.57    1.62
   6   1  -3   16.43    2.27
   6   1  -3   18.83    2.29
   6   1  -3   14.28    1.90
   6   1  -3   14.12    1.81
   6   1  -3   15.60    1.61
   6   1  -3   18.60    2.21
   6   1  -2   16.25    2.39
   6   1  -2   14.41    1.66
   6   1  -2   15.95    1.64
   6   1  -2   18.11    2.29
   6   1  -2   16.36    2.19
   6   1  -2   14.90    1.86
   6   1  -2   16.03    1.86
   6   1  -2   15.70    1.60
   6   1  -1   48.50    3.36
   6   1  -1   55.15    4.42
   6   1  -1   49.63    3.54
   6   1  -1   51.97    3.41
   6   1  -1   51.15    4.31
   6   1   0   44.83    3.91
   6   1   0   48.73    3.97
   6   1   0   38.21    2.77
   6   1   1   34.51    2.46
   6   1   1   44.93    3.15
   6   1   2   11.60    1.88
   6   1   2   16.38    2.15
   6   1   2   13.63    1.77
   6   1   3    4.05    1.19
   6   1   3    3.06    1.03
   6   1   3    3.03    0.99
   6   1   4   48.15    4.22
   6   1   4   53.78    4.37
   6   1   4   54.23    4.17
   6   1   5    8.52    1.61
   6   1   5    9.64    1.68
   6   1   5    9.12    1.59
   6   1   5    8.97    1.20
   6   1   6    7.13    1.41
   6   1   6    7.24    1.48
   6   1   6    8.95    1.61
   6   1   7  145.68    9.33
   6   1   7  160.64    9.46
   6   1   8   81.18    6.00
   6   1   8   85.90    6.11
   6   1   8   91.87    6.37
  -6  -1  -8   88.94    5.82
  -6  -1  -9   28.14    2.53
   6   1   9   26.14    2.79
   6   1   9   23.48    2.69
  -6  -1  -9   25.75    2.53
   6   1  10    3.60    0.97
   6   1  10    4.09    1.28
  -6  -1 -10    4.24    1.05
  -6  -1 -10    3.12    0.90
  -6  -1 -11   -0.13    0.48
   6   1  11    0.45    1.04
  -6  -1 -11    1.39    0.75
  -6  -1 -12  221.49   12.81
   6   1  12  239.67   13.69
  -6  -1 -13    0.55    0.72
  -6  -1 -13    0.53    0.71
   6   1  13    0.47    0.91
  -6  -1 -14   68.60    4.94
  -6  -1 -14   51.03    4.06
   6   1  14   56.38    4.99
  -6  -1 -14   56.84    4.16
  -6  -1 -15    7.00    1.24
  -6  -1 -15    7.15    1.53
   6   1  15    7.48    1.65
  -6  -1 -15    6.44    1.22
  -6  -1 -15    5.45    1.36
  -6  -1 -16    1.23    0.69
  -6  -1 -16    2.23    1.04
  -6  -1 -16    1.59    0.67
  -6  -1 -17   86.28    5.86
  -6  -1 -17   73.48    4.91
   6   1  17   82.07    6.07
  -6  -1 -18    0.65    0.91
   6   1  18    0.37    0.84
  -6  -1 -19   62.71    4.15
  -6  -1 -19   69.45    4.90
   6   1  19   78.68    5.14
  -6  -1 -20    0.12    0.40
  -6  -1 -20   -0.12    0.54
   6   1  20   -0.12    0.58
  -6  -1 -21   39.82    3.02
   6   1  21   46.29    3.06
   6   2 -17    0.19    0.37
   6   2 -16    1.03    0.94
   6   2 -16    2.01    0.93
   6   2 -16    1.34    0.73
   6   2 -15    5.71    1.14
   6   2 -15    6.45    1.67
   6   2 -15    7.59    1.60
   6   2 -15    5.63    1.08
   6   2 -14   19.05    2.83
   6   2 -14   16.44    2.09
   6   2 -14   19.34    2.77
   6   2 -14   23.00    2.69
   6   2 -14   17.98    1.90
   6   2 -14   18.87    2.54
   6   2 -14   17.25    2.14
   6   2 -14   21.21    2.09
   6   2 -13   20.54    2.14
   6   2 -13   14.66    2.67
   6   2 -13   19.59    2.29
   6   2 -13   19.91    2.87
   6   2 -13   20.10    2.82
   6   2 -13   20.99    2.08
   6   2 -13   15.57    1.85
   6   2 -13   17.11    2.47
   6   2 -13   19.70    2.75
   6   2 -13   19.95    2.45
   6   2 -12    0.51    0.77
   6   2 -12   -0.13    1.61
   6   2 -12    1.39    0.79
   6   2 -12    2.11    1.44
   6   2 -12    0.25    1.13
   6   2 -12    0.12    0.81
   6   2 -12   -0.22    1.06
   6   2 -12   -0.25    0.56
   6   2 -12   -0.15    1.73
   6   2 -12   -0.57    0.73
   6   2 -11   53.82    3.98
   6   2 -11   45.02    3.93
   6   2 -11   43.58    3.84
   6   2 -11   58.94    5.12
   6   2 -11   51.91    3.83
   6   2 -11   45.56    4.34
   6   2 -11   40.59    3.62
   6   2 -11   49.40    4.31
   6   2 -10   33.09    3.00
   6   2 -10   26.96    2.86
   6   2 -10   30.44    3.66
   6   2 -10   27.88    2.83
   6   2 -10   30.01    2.80
   6   2 -10   26.58    3.18
   6   2 -10   28.57    2.85
   6   2 -10   29.93    2.85
   6   2 -10   29.68    3.14
   6   2  -9   22.84    2.45
   6   2  -9   23.89    2.50
   6   2  -9   23.84    3.22
   6   2  -9   21.58    2.39
   6   2  -9   21.96    2.79
   6   2  -9   22.35    2.55
   6   2  -9   24.91    2.73
   6   2  -9   23.76    2.50
   6   2  -9   21.07    2.60
   6   2  -8  100.22    6.54
   6   2  -8   97.06    6.39
   6   2  -8  100.33    6.78
   6   2  -8  103.57    7.60
   6   2  -8   98.65    6.32
   6   2  -8  100.76    7.03
   6   2  -8  113.04    6.98
   6   2  -8  100.55    6.71
   6   2  -8  105.96    6.59
   6   2  -8  105.34    6.84
   6   2  -7   26.89    2.60
   6   2  -7   26.05    2.49
   6   2  -7   21.35    2.58
   6   2  -7   29.96    3.34
   6   2  -7   26.78    3.09
   6   2  -7   22.88    2.32
   6   2  -7   19.28    2.53
   6   2  -7   24.38    2.64
   6   2  -7   28.61    2.66
   6   2  -7   28.63    2.70
   6   2  -6   15.00    1.92
   6   2  -6   17.55    1.91
   6   2  -6   14.24    2.01
   6   2  -6   17.99    2.50
   6   2  -6   15.45    2.01
   6   2  -6   15.55    2.11
   6   2  -6   19.39    2.43
   6   2  -6   18.14    1.86
   6   2  -6   15.99    1.99
   6   2  -6   15.80    1.91
   6   2  -5    7.58    1.48
   6   2  -5   10.11    1.42
   6   2  -5   12.36    1.98
   6   2  -5    9.64    1.64
   6   2  -5    7.51    1.46
   6   2  -5   11.38    1.82
   6   2  -5   10.06    1.39
   6   2  -5   14.42    1.86
   6   2  -5   11.00    1.57
   6   2  -5   12.67    1.54
   6   2  -4   -0.21    0.54
   6   2  -4    0.12    0.73
   6   2  -4    0.65    0.60
   6   2  -4   -0.14    0.54
   6   2  -4    0.56    0.77
   6   2  -4    1.10    0.68
   6   2  -4    1.37    0.76
   6   2  -4    0.60    0.71
   6   2  -4    0.10    0.55
   6   2  -4   -0.52    0.60
   6   2  -3  141.32    8.28
   6   2  -3  139.04    8.08
   6   2  -3  153.54    8.27
   6   2  -3  136.18    8.75
   6   2  -3  151.42    8.51
   6   2  -3  148.36    8.97
   6   2  -3  129.08    8.46
   6   2  -3  153.54    8.39
   6   2  -3  149.70    8.03
   6   2  -2    3.62    0.77
   6   2  -2    2.42    1.03
   6   2  -2    4.39    1.24
   6   2  -2    3.60    0.79
   6   2  -2    3.04    0.76
   6   2  -2    1.11    0.52
   6   2  -2    1.54    0.74
   6   2  -2   -0.34    0.75
   6   2  -1  253.47   13.34
   6   2  -1  262.32   14.12
   6   2  -1  275.78   14.18
   6   2  -1  244.11   13.16
   6   2  -1  242.32   12.92
   6   2  -1  258.51   13.67
   6   2   0   24.95    2.25
   6   2   0   24.70    2.72
   6   2   0   26.21    2.76
   6   2   0   26.62    2.18
   6   2   1    1.10    0.59
   6   2   1    0.77    0.44
   6   2   2   15.92    2.08
   6   2   2   14.36    2.02
   6   2   2   12.72    1.70
   6   2   2   14.62    1.47
   6   2   3   77.41    5.69
   6   2   3   89.44    5.88
   6   2   3   80.26    5.45
   6   2   4  344.45   19.45
   6   2   4  381.51   19.62
   6   2   4  386.19   19.42
   6   2   5    3.61    1.11
   6   2   5    2.05    0.90
   6   2   5    2.76    1.06
   6   2   6  523.80   29.56
   6   2   6  596.86   29.83
   6   2   6  612.74   29.88
   6   2   6  630.90   29.98
   6   2   7    0.37    0.58
   6   2   7   -0.17    0.71
   6   2   7   -0.17    0.69
   6   2   7   -0.19    0.92
  -6  -2  -8  142.14    8.34
   6   2   8  152.29    9.01
   6   2   9   59.34    4.80
  -6  -2  -9   54.76    4.13
   6   2   9   58.65    4.50
   6   2  10    9.50    1.84
   6   2  10   13.20    1.80
  -6  -2 -10    9.58    1.54
  -6  -2 -10   10.21    1.55
   6   2  11    3.83    1.27
   6   2  11    6.25    1.58
  -6  -2 -11    4.40    1.14
  -6  -2 -11    4.27    0.99
   6   2  12  108.07    7.92
  -6  -2 -12  114.45    7.52
   6   2  12  122.31    8.26
   6   2  13  469.09   25.66
  -6  -2 -13  495.47   25.29
   6   2  13  485.34   25.90
   6   2  14   18.97    2.74
  -6  -2 -14   14.79    1.84
  -6  -2 -15   65.73    5.07
   6   2  15   62.36    5.20
  -6  -2 -16  171.48   10.68
  -6  -2 -17    1.90    1.11
  -6  -2 -18  136.60    8.86
  -6  -2 -19    6.60    1.02
  -6  -2 -19    6.86    1.57
   6   2  19    8.33    1.63
  -6  -2 -20   32.84    3.24
   6   2  20   39.45    3.40
  -6  -2 -21   14.57    1.81
   6   2  21   16.08    1.83
  -6  -2 -22    7.97    1.08
   6   3 -16   58.22    4.02
   6   3 -16   53.43    3.52
   6   3 -16   57.17    3.59
   6   3 -15   19.81    2.62
   6   3 -15   24.92    2.71
   6   3 -15   25.39    2.52
   6   3 -15   20.26    2.12
   6   3 -15   18.61    2.00
   6   3 -14    4.20    1.00
   6   3 -14    4.34    1.78
   6   3 -14    3.04    1.16
   6   3 -14    4.00    1.27
   6   3 -14    4.69    1.25
   6   3 -14    1.82    1.63
   6   3 -14    2.26    0.98
   6   3 -13    6.41    1.26
   6   3 -13    4.85    1.55
   6   3 -13    6.62    1.44
   6   3 -13    6.50    1.63
   6   3 -13    7.90    1.90
   6   3 -13    5.22    1.38
   6   3 -13    7.90    1.95
   6   3 -13    7.33    1.48
   6   3 -12    4.34    1.15
   6   3 -12    3.55    1.25
   6   3 -12    4.05    1.24
   6   3 -12    6.79    1.79
   6   3 -12    5.23    1.70
   6   3 -12    5.80    1.41
   6   3 -12    3.64    0.92
   6   3 -12    4.83    1.59
   6   3 -12    5.47    1.37
   6   3 -11   12.09    1.99
   6   3 -11   13.92    2.44
   6   3 -11   15.32    2.25
   6   3 -11   12.53    1.75
   6   3 -11   14.96    2.15
   6   3 -10    8.14    1.59
   6   3 -10   10.77    1.84
   6   3 -10    7.75    1.46
   6   3 -10    7.05    1.58
   6   3  -9   62.63    5.03
   6   3  -9   68.88    5.35
   6   3  -9   67.70    5.41
   6   3  -9   74.99    5.36
   6   3  -9   75.15    5.36
   6   3  -9   75.80    5.41
   6   3  -8    0.27    0.75
   6   3  -8   -0.30    0.79
   6   3  -8    0.49    0.98
   6   3  -8    0.18    0.71
   6   3  -8    1.03    1.03
   6   3  -8    0.38    0.67
   6   3  -8    0.35    0.80
   6   3  -8   -0.17    0.77
   6   3  -8   -0.36    0.66
   6   3  -7   82.11    5.52
   6   3  -7   83.17    5.60
   6   3  -7   77.78    5.95
   6   3  -7   87.80    6.52
   6   3  -7   83.08    5.98
   6   3  -7   83.41    6.16
   6   3  -7   89.08    5.49
   6   3  -7   79.07    5.83
   6   3  -7   84.91    5.91
   6   3  -7   88.21    5.81
   6   3  -6    4.03    1.13
   6   3  -6    2.03    0.93
   6   3  -6    2.04    0.86
   6   3  -6    2.30    0.87
   6   3  -6    2.39    0.92
   6   3  -6    4.34    1.31
   6   3  -6    3.00    1.05
   6   3  -6    3.06    0.91
   6   3  -6    2.73    0.90
   6   3  -6    2.11    0.95
   6   3  -6    1.56    0.75
   6   3  -5  122.16    7.34
   6   3  -5  109.51    7.01
   6   3  -5  117.08    6.98
   6   3  -5  111.59    7.76
   6   3  -5  130.11    7.71
   6   3  -5  112.48    7.26
   6   3  -5  110.99    7.35
   6   3  -5  120.15    6.86
   6   3  -5  122.77    7.38
   6   3  -5  114.95    7.01
   6   3  -5  111.15    7.50
   6   3  -4   21.57    2.23
   6   3  -4   18.00    1.99
   6   3  -4   14.27    1.78
   6   3  -4   17.75    2.22
   6   3  -4   16.57    2.22
   6   3  -4   18.65    2.23
   6   3  -4   17.79    2.17
   6   3  -4   15.23    1.99
   6   3  -4   19.08    1.86
   6   3  -4   18.72    2.10
   6   3  -3   49.38    3.77
   6   3  -3   50.97    3.53
   6   3  -3   40.78    3.35
   6   3  -3   51.04    3.53
   6   3  -3   45.16    3.91
   6   3  -3   45.84    3.92
   6   3  -3   48.44    3.87
   6   3  -3   44.66    3.59
   6   3  -3   44.71    3.83
   6   3  -3   44.10    3.79
   6   3  -3   44.97    3.59
   6   3  -2  177.34    9.50
   6   3  -2  167.36    9.44
   6   3  -2  159.65   10.01
   6   3  -2  186.19   10.07
   6   3  -2  178.11   10.14
   6   3  -2  159.65    9.89
   6   3  -2  177.84    9.87
   6   3  -1    2.23    1.10
   6   3  -1    4.02    0.91
   6   3  -1    1.63    0.87
   6   3  -1    1.68    0.78
   6   3  -1    0.91    0.61
   6   3   0  102.48    6.79
   6   3   0  107.63    6.04
   6   3   0  102.79    6.72
   6   3   1   10.74    1.41
   6   3   2  276.18   14.55
   6   3   3  383.22   20.03
   6   3   3  406.07   20.92
   6   3   3  421.05   20.63
   6   3   4   96.62    5.94
   6   3   4  104.34    6.72
   6   3   4  111.66    6.72
   6   3   4  103.28    6.63
   6   3   5  306.33   16.54
   6   3   5  358.26   17.72
   6   3   5  356.57   17.70
   6   3   5  325.19   17.39
   6   3   6   12.71    1.36
   6   3   6   14.02    1.91
   6   3   6   12.91    1.83
   6   3   7  187.06   11.25
   6   3   7  200.82   11.14
   6   3   7  190.22   10.92
   6   3   8   64.87    5.23
   6   3   8   72.17    5.09
   6   3   9   12.50    1.84
   6   3  10  242.34   14.48
  -6  -3 -10  252.40   13.90
   6   3  10  257.98   13.76
   6   3  11    8.89    1.87
   6   3  11    7.17    1.30
  -6  -3 -11   10.54    1.72
   6   3  12  215.68   13.82
  -6  -3 -12  253.47   13.33
  -6  -3 -12  238.77   13.60
   6   3  12  231.48   14.12
   6   3  13   31.35    3.70
  -6  -3 -13   38.20    3.42
  -6  -3 -13   33.79    3.62
   6   3  13   35.31    3.96
   6   3  14   97.74    7.29
  -6  -3 -14   97.77    7.09
  -6  -3 -14   94.47    6.40
   6   3  14   87.26    7.20
   6   3  15  303.55   17.51
  -6  -3 -15  326.37   17.65
   6   3  15  291.35   17.63
  -6  -3 -16    7.39    1.85
  -6  -3 -17  205.18   12.64
  -6  -3 -18    3.52    1.42
  -6  -3 -19   44.88    4.24
  -6  -3 -20   11.34    1.83
   6   3  20   10.77    1.90
  -6  -3 -21    2.35    0.85
   6   3  21    3.80    1.20
  -6  -3 -22  122.16    7.05
   6   3  22  133.13    7.09
   6   4 -16   14.99    1.48
   6   4 -16   16.17    1.61
   6   4 -15   45.11    3.37
   6   4 -15   44.98    3.40
   6   4 -15   38.60    3.16
   6   4 -15   44.44    3.36
   6   4 -14    0.50    1.05
   6   4 -14    0.84    0.79
   6   4 -14    0.57    0.55
   6   4 -14   -1.06    1.42
   6   4 -14    0.27    0.61
   6   4 -13    2.67    1.05
   6   4 -13    2.94    1.09
   6   4 -13    0.64    0.72
   6   4 -13    3.27    1.05
   6   4 -13    3.10    1.39
   6   4 -13    1.88    0.88
   6   4 -12    2.77    1.05
   6   4 -12    1.97    1.10
   6   4 -12    3.63    1.03
   6   4 -12    4.50    1.18
   6   4 -12    1.94    0.71
   6   4 -12    2.40    1.01
   6   4 -12    4.08    1.14
   6   4 -11    3.87    1.23
   6   4 -11    5.44    1.28
   6   4 -11    4.95    1.36
   6   4 -11    4.17    1.05
   6   4 -11    5.14    1.33
   6   4 -11    6.78    1.68
   6   4 -10   42.52    3.77
   6   4 -10   37.04    3.61
   6   4 -10   43.72    4.35
   6   4 -10   45.61    3.63
   6   4 -10   43.85    3.99
   6   4 -10   45.95    3.76
   6   4 -10   46.63    3.97
   6   4  -9   11.83    1.80
   6   4  -9    9.64    1.65
   6   4  -9    6.99    1.51
   6   4  -9    7.18    1.80
   6   4  -9   10.27    1.62
   6   4  -9    9.41    1.73
   6   4  -9    9.84    1.77
   6   4  -9   10.70    1.70
   6   4  -9   12.86    1.82
   6   4  -8   27.98    2.87
   6   4  -8   27.33    2.76
   6   4  -8   25.71    2.69
   6   4  -8   22.28    2.78
   6   4  -8   24.90    3.02
   6   4  -8   29.23    2.72
   6   4  -8   27.25    2.92
   6   4  -8   31.78    3.15
   6   4  -8   24.50    2.75
   6   4  -8   30.95    2.97
   6   4  -7    0.15    0.95
   6   4  -7    1.70    0.97
   6   4  -7    0.27    0.75
   6   4  -7    0.57    0.63
   6   4  -7    0.91    0.99
   6   4  -7    0.79    0.83
   6   4  -7    1.18    0.88
   6   4  -7    1.30    1.00
   6   4  -7    0.69    0.70
   6   4  -7    1.47    0.94
   6   4  -7    1.11    0.73
   6   4  -6    1.63    0.89
   6   4  -6    0.91    0.79
   6   4  -6    1.57    0.88
   6   4  -6    0.40    0.75
   6   4  -6    0.86    0.87
   6   4  -6    1.18    0.73
   6   4  -6    0.59    0.73
   6   4  -6    0.69    0.86
   6   4  -6    1.48    0.88
   6   4  -6    0.95    0.66
   6   4  -6    1.59    0.93
   6   4  -6    0.88    0.66
   6   4  -5  119.02    7.36
   6   4  -5  113.24    6.95
   6   4  -5  114.57    7.00
   6   4  -5  117.66    7.72
   6   4  -5  107.57    7.58
   6   4  -5  111.49    7.55
   6   4  -5  113.89    7.29
   6   4  -5  120.48    7.67
   6   4  -5  113.89    7.09
   6   4  -5  119.34    7.41
   6   4  -5  111.64    7.06
   6   4  -5  113.96    7.02
   6   4  -4    2.84    0.98
   6   4  -4    3.06    1.22
   6   4  -4    2.47    0.91
   6   4  -4    1.87    0.83
   6   4  -4    1.49    0.84
   6   4  -4    1.69    0.89
   6   4  -4    2.33    0.95
   6   4  -4    1.74    0.86
   6   4  -4    3.34    1.01
   6   4  -4    2.19    0.67
   6   4  -3   63.57    4.40
   6   4  -3   55.11    3.90
   6   4  -3   51.22    3.89
   6   4  -3   50.96    4.29
   6   4  -3   58.52    4.66
   6   4  -3   51.61    4.15
   6   4  -3   60.42    4.16
   6   4  -3   56.17    4.32
   6   4  -3   58.96    4.58
   6   4  -3   50.84    4.11
   6   4  -3   52.35    3.83
   6   4  -2   -0.31    0.54
   6   4  -2    1.32    0.86
   6   4  -2    0.43    0.60
   6   4  -2    0.47    0.68
   6   4  -2    0.19    0.62
   6   4  -2    0.46    0.61
   6   4  -2   -0.16    0.70
   6   4  -2   -0.18    0.52
   6   4  -2    1.77    0.68
   6   4  -1   33.68    3.31
   6   4  -1   32.97    3.11
   6   4  -1   39.25    3.39
   6   4  -1   36.76    3.36
   6   4  -1   33.47    2.70
   6   4  -1   38.80    3.16
   6   4   0  103.03    6.52
   6   4   0   99.39    5.67
   6   4   0   94.35    6.51
   6   4   1    7.64    1.49
   6   4   1    9.57    1.26
   6   4   1    7.73    1.34
   6   4   2  475.72   24.48
   6   4   2  494.11   24.36
  -6  -4  -3    9.00    1.06
   6   4   3   10.01    1.43
   6   4   3    9.02    1.59
   6   4   3   11.34    1.60
  -6  -4  -4  155.30    8.26
   6   4   4  154.54    8.79
   6   4   4  155.16    9.14
   6   4   4  149.46    9.19
   6   4   5   45.95    3.42
   6   4   5   40.04    3.60
   6   4   5   47.81    3.86
   6   4   6    6.89    1.14
   6   4   6    8.26    1.47
   6   4   6    7.18    1.42
   6   4   7  177.17   10.58
   6   4   7  161.69    9.60
   6   4   7  185.12   10.32
   6   4   7  191.17   10.49
   6   4   8    1.00    0.74
  -6  -4  -8   -0.49    0.72
   6   4   8    0.15    0.51
   6   4   8    0.50    0.67
   6   4   9  419.69   22.30
   6   4   9  424.51   22.51
  -6  -4  -9  459.82   22.21
   6   4  10    4.32    1.35
  -6  -4 -10    3.91    1.10
   6   4  11   70.02    5.91
  -6  -4 -11   76.26    5.23
  -6  -4 -11   80.12    5.87
   6   4  12   26.69    3.28
  -6  -4 -12   22.16    2.88
  -6  -4 -12   21.41    2.41
   6   4  13   18.33    2.79
  -6  -4 -13   17.60    2.21
  -6  -4 -13   17.19    2.68
   6   4  14  417.38   23.09
  -6  -4 -14  418.22   22.96
  -6  -4 -14  418.61   21.68
   6   4  15    3.60    1.46
  -6  -4 -15    4.95    1.31
   6   4  15    4.95    1.70
  -6  -4 -15    4.54    1.59
   6   4  16   60.42    5.55
  -6  -4 -16   62.50    5.57
   6   4  16   58.50    5.63
   6   4  17   32.39    3.70
  -6  -4 -17   28.59    3.54
  -6  -4 -18   61.04    5.25
  -6  -4 -19   41.94    3.95
  -6  -4 -20    0.16    0.73
  -6  -4 -21  107.12    6.83
   6   4  21  124.98    7.76
  -6  -4 -22    7.81    1.10
   6   4  22    7.43    1.18
   6   5 -16   25.35    2.13
   6   5 -15    8.05    1.40
   6   5 -15    6.75    1.36
   6   5 -15    6.33    1.04
   6   5 -14   15.28    1.74
   6   5 -14   15.31    1.73
   6   5 -14   13.72    1.89
   6   5 -14   13.73    1.73
   6   5 -13    7.15    1.29
   6   5 -13    6.68    1.45
   6   5 -13    4.08    1.03
   6   5 -13    5.75    1.22
   6   5 -13    4.40    1.21
   6   5 -13    4.25    1.11
   6   5 -12    2.66    1.03
   6   5 -12    2.27    1.08
   6   5 -12    3.78    1.03
   6   5 -12    2.19    0.90
   6   5 -12    1.76    0.98
   6   5 -12    2.29    0.89
   6   5 -11  180.64    9.69
   6   5 -11  172.63    9.49
   6   5 -11  182.42   10.43
   6   5 -11  181.96   10.12
   6   5 -11  167.05    9.41
   6   5 -11  161.06    9.71
   6   5 -11  160.26    9.20
   6   5 -11  178.53    9.84
   6   5 -10    5.34    1.43
   6   5 -10    4.13    1.29
   6   5 -10    3.77    1.01
   6   5 -10    4.44    1.42
   6   5 -10    6.42    1.34
   6   5 -10    4.34    1.49
   6   5 -10    5.77    1.41
   6   5 -10    4.81    1.29
   6   5 -10    4.40    1.26
   6   5  -9  105.08    6.85
   6   5  -9  107.86    6.64
   6   5  -9   87.66    6.17
   6   5  -9  102.74    6.64
   6   5  -9   89.32    6.80
   6   5  -9  108.83    7.10
   6   5  -9  104.05    6.88
   6   5  -9  106.71    7.09
   6   5  -9  104.95    6.86
   6   5  -9  103.41    6.94
   6   5  -8    0.50    0.91
   6   5  -8    1.31    0.89
   6   5  -8    1.33    0.68
   6   5  -8   -0.19    0.86
   6   5  -8    2.16    0.82
   6   5  -8    2.98    0.98
   6   5  -8    1.39    0.89
   6   5  -8    1.50    0.79
   6   5  -8    0.34    0.82
   6   5  -7   19.51    2.43
   6   5  -7   16.93    2.21
   6   5  -7   18.53    2.00
   6   5  -7   21.66    2.79
   6   5  -7   17.76    2.37
   6   5  -7   17.05    2.11
   6   5  -7   16.42    2.29
   6   5  -7   19.54    2.30
   6   5  -7   21.82    2.65
   6   5  -7   18.21    2.39
   6   5  -7   21.57    2.34
   6   5  -6  103.63    6.97
   6   5  -6  112.94    6.84
   6   5  -6  102.31    6.39
   6   5  -6  113.02    7.50
   6   5  -6  105.92    7.42
   6   5  -6  105.28    7.03
   6   5  -6  116.22    6.75
   6   5  -6  114.32    7.45
   6   5  -6   99.31    6.76
   6   5  -6  112.89    7.35
   6   5  -6  105.73    7.05
   6   5  -6  104.17    6.82
   6   5  -5   -0.64    0.89
   6   5  -5    0.31    0.72
   6   5  -5    0.13    0.69
   6   5  -5    0.10    0.53
   6   5  -5   -0.20    0.77
   6   5  -5    0.21    0.75
   6   5  -5    0.63    0.74
   6   5  -5    1.41    0.76
   6   5  -5   -0.15    0.65
   6   5  -5   -0.61    0.79
   6   5  -5    0.37    0.72
   6   5  -5    0.28    0.57
   6   5  -5    0.19    0.72
   6   5  -5    0.56    0.56
   6   5  -4  410.91   21.38
   6   5  -4  438.17   21.16
   6   5  -4  396.88   20.68
   6   5  -4  408.45   21.78
   6   5  -4  456.89   22.40
   6   5  -4  421.07   21.32
   6   5  -4  403.45   21.51
   6   5  -4  417.44   22.06
   6   5  -4  414.57   20.97
   6   5  -4  386.87   21.00
   6   5  -4  442.08   21.82
   6   5  -4  410.93   21.41
   6   5  -4  410.92   21.10
   6   5  -3   11.43    1.70
   6   5  -3   13.89    1.68
   6   5  -3   12.82    1.93
   6   5  -3   12.51    1.70
   6   5  -3   11.45    1.98
   6   5  -3   14.29    2.03
   6   5  -3   11.76    1.85
   6   5  -3   13.33    1.81
   6   5  -3   13.01    1.56
   6   5  -2  272.50   14.32
   6   5  -2  279.86   14.12
   6   5  -2  274.97   14.19
   6   5  -2  248.08   14.43
   6   5  -2  289.32   15.30
   6   5  -2  238.01   13.96
   6   5  -2  278.56   14.88
   6   5  -2  273.87   15.08
   6   5  -2  269.06   14.56
   6   5  -2  259.94   13.93
   6   5  -2  283.92   14.27
   6   5  -1  321.44   17.00
   6   5  -1  330.39   16.96
   6   5  -1  351.79   18.09
   6   5  -1  328.00   17.69
   6   5  -1  322.75   17.80
   6   5  -1  327.76   17.24
   6   5  -1  324.32   16.86
   6   5   0  139.11    8.21
   6   5   0  146.17    9.16
   6   5   0  155.80    8.95
   6   5   0  144.93    8.59
   6   5   0  146.84    8.98
   6   5   0  141.84    8.96
   6   5   0  142.29    8.10
   6   5   1   48.28    3.62
   6   5   1   51.45    4.08
   6   5   1   48.80    3.91
   6   5   1   51.34    3.48
   6   5   1   48.41    4.19
   6   5   1   49.75    4.18
   6   5   2    1.12    0.67
   6   5   3  127.01    7.63
   6   5   3  116.85    7.45
  -6  -5  -4    0.66    0.46
   6   5   4    1.19    0.69
   6   5   4    0.90    0.73
   6   5   4   -0.15    0.60
   6   5   5   50.82    3.94
   6   5   5   49.77    3.96
   6   5   5   54.84    4.34
  -6  -5  -5   49.27    3.27
  -6  -5  -6  171.45    9.13
   6   5   6  164.22    9.79
   6   5   6  177.62   10.32
   6   5   7    1.35    0.65
   6   5   7    3.10    1.04
  -6  -5  -7    0.88    0.61
   6   5   7    1.91    0.81
   6   5   7    1.84    0.99
   6   5   8  368.30   21.48
  -6  -5  -8  422.18   20.46
   6   5   8  414.35   21.45
   6   5   9    7.30    1.66
  -6  -5  -9    7.32    1.26
   6   5   9   10.45    1.76
  -6  -5 -10  183.56    9.98
   6   5  10  170.60   10.58
   6   5  11  113.37    8.49
  -6  -5 -11  135.23    7.55
   6   5  11  116.09    7.83
   6   5  12    4.80    1.51
  -6  -5 -12    4.27    1.04
  -6  -5 -12    5.63    1.21
  -6  -5 -12    6.81    1.63
   6   5  13   22.20    3.17
  -6  -5 -13   21.56    2.36
  -6  -5 -13   23.94    3.03
   6   5  14   17.28    2.91
  -6  -5 -14   19.08    2.76
  -6  -5 -14   23.51    2.45
   6   5  15  175.04   11.69
  -6  -5 -15  166.78   10.02
  -6  -5 -15  185.69   11.24
   6   5  16   36.44    4.18
  -6  -5 -16   30.02    2.88
  -6  -5 -16   27.53    3.44
   6   5  17   19.70    3.08
  -6  -5 -17   15.46    2.47
   6   5  18  257.13   16.03
  -6  -5 -18  281.40   15.41
  -6  -5 -19    4.63    1.33
   6   5  22   35.15    2.62
   6   5  22   20.83    1.69
   6   6 -16    2.51    0.72
   6   6 -15    4.37    0.93
   6   6 -15    6.88    1.16
   6   6 -15    5.43    1.13
   6   6 -14   44.98    3.24
   6   6 -14   41.03    3.09
   6   6 -13    0.76    0.80
   6   6 -13    0.44    0.59
   6   6 -13    1.03    0.65
   6   6 -12   54.98    4.30
   6   6 -12   69.37    4.40
   6   6 -12   59.94    4.25
   6   6 -12   58.84    4.37
   6   6 -12   55.26    4.28
   6   6 -11   12.95    1.84
   6   6 -11   12.62    1.76
   6   6 -11   11.81    1.78
   6   6 -11   11.51    1.65
   6   6 -11    8.78    1.35
   6   6 -11   10.71    1.66
   6   6 -10   59.27    4.64
   6   6 -10   66.44    4.56
   6   6 -10   58.24    4.59
   6   6 -10   60.92    4.95
   6   6 -10   57.90    4.50
   6   6 -10   59.69    4.54
   6   6 -10   58.23    4.54
   6   6  -9   64.32    4.86
   6   6  -9   64.73    4.55
   6   6  -9   55.80    4.62
   6   6  -9   50.67    4.62
   6   6  -9   51.42    4.61
   6   6  -9   59.20    4.58
   6   6  -9   57.74    4.49
   6   6  -9   67.71    5.10
   6   6  -9   56.22    4.47
   6   6  -8   33.21    3.23
   6   6  -8   31.11    2.95
   6   6  -8   30.81    3.23
   6   6  -8   28.14    3.17
   6   6  -8   23.27    2.81
   6   6  -8   30.11    3.00
   6   6  -8   27.75    2.89
   6   6  -8   34.20    3.45
   6   6  -8   30.63    2.96
   6   6  -7   31.45    3.21
   6   6  -7   35.51    3.15
   6   6  -7   32.52    3.41
   6   6  -7   32.98    3.50
   6   6  -7   32.03    3.12
   6   6  -7   31.94    3.13
   6   6  -7   33.52    3.42
   6   6  -7   28.20    2.90
   6   6  -7   34.38    3.14
   6   6  -7   33.99    3.50
   6   6  -7   33.02    3.20
   6   6  -7   27.42    2.91
   6   6  -6   53.29    4.27
   6   6  -6   60.73    4.31
   6   6  -6   49.80    4.44
   6   6  -6   49.19    4.13
   6   6  -6   52.34    4.10
   6   6  -6   50.34    4.52
   6   6  -6   47.25    3.95
   6   6  -6   53.65    4.57
   6   6  -6   61.76    4.46
   6   6  -6   53.22    4.18
   6   6  -5  303.35   15.39
   6   6  -5  310.57   15.35
   6   6  -5  287.30   15.81
   6   6  -5  263.61   15.15
   6   6  -5  249.08   15.16
   6   6  -5  281.55   15.15
   6   6  -5  302.56   16.24
   6   6  -5  273.67   15.10
   6   6  -5  312.31   16.11
   6   6  -5  290.45   15.39
   6   6  -5  276.60   15.17
   6   6  -4    0.15    0.72
   6   6  -4    0.55    0.82
   6   6  -4    1.08    0.77
   6   6  -4    0.37    0.79
   6   6  -4    0.22    0.83
   6   6  -4    0.66    0.85
   6   6  -4    0.28    0.80
   6   6  -4    0.88    0.78
   6   6  -4    1.71    0.85
   6   6  -4    0.75    0.62
  -6  -6   4    0.72    0.67
   6   6  -4   -0.20    0.79
   6   6  -4    0.40    0.58
   6   6  -3  180.31   10.29
   6   6  -3  187.98   10.30
  -6  -6   3  191.59   10.57
   6   6  -3  164.43   10.53
   6   6  -3  200.41   11.52
   6   6  -3  169.58   10.16
   6   6  -3  187.40   10.92
   6   6  -3  184.62   10.24
   6   6  -3  189.27   10.94
   6   6  -3  202.30   10.50
   6   6  -3  175.35   10.15
   6   6  -2  218.36   11.98
   6   6  -2  233.70   12.11
   6   6  -2  236.42   12.32
   6   6  -2  202.18   12.33
   6   6  -2  237.69   13.31
   6   6  -2  192.24   11.73
   6   6  -2  233.05   12.91
   6   6  -2  219.77   13.08
   6   6  -2  242.20   12.80
   6   6  -2  231.50   12.08
   6   6  -1    1.44    0.70
   6   6  -1    0.11    0.64
   6   6  -1    1.51    0.74
   6   6  -1    1.06    0.66
   6   6  -1    1.74    0.74
   6   6  -1    1.37    0.85
   6   6  -1    1.11    0.89
   6   6  -1    1.36    0.79
   6   6  -1    1.07    0.86
   6   6  -1    0.66    0.61
   6   6   0  417.16   21.13
   6   6   0  438.87   22.32
   6   6   0  422.19   21.90
   6   6   0  399.21   21.82
   6   6   0  423.90   22.12
   6   6   0  403.11   21.33
   6   6   0  404.63   20.70
   6   6   0  410.64   20.73
   6   6   1   79.62    5.47
   6   6   1   90.96    6.42
   6   6   1   88.06    6.10
   6   6   1   82.90    6.06
   6   6   1   78.88    6.07
   6   6   2   18.59    2.17
   6   6   2   23.01    2.60
   6   6   2   22.82    2.76
   6   6   2   20.38    2.58
   6   6   3   50.67    4.26
   6   6   3   54.15    4.60
   6   6   3   49.72    4.37
   6   6   3   54.61    4.45
   6   6   4  133.82    8.45
   6   6   4  137.30    8.85
   6   6   4  135.01    8.72
  -6  -6  -5  103.39    5.75
   6   6   5  102.60    7.20
   6   6   5  102.18    7.17
   6   6   6   11.37    1.86
  -6  -6  -6   12.31    1.35
   6   6   6   13.28    2.13
   6   6   6   13.62    2.10
   6   6   7  437.64   23.73
  -6  -6  -7  447.16   22.34
   6   6   7  424.43   23.81
   6   6   7  474.91   23.97
   6   6   7  465.55   22.52
   6   6   8    3.45    0.88
   6   6   8    2.17    1.04
  -6  -6  -8    4.84    0.90
   6   6   8    2.55    1.04
   6   6   8    2.09    1.13
   6   6   9  140.03    9.39
  -6  -6  -9  151.88    8.12
   6   6   9  122.93    8.99
   6   6   9  148.97    9.29
  -6  -6 -10  298.56   15.73
  -6  -6 -10  287.87   15.30
   6   6  10  301.21   16.56
  -6  -6 -11   13.22    1.73
  -6  -6 -11   10.15    1.53
   6   6  11   12.46    2.10
   6   6  12  160.07   10.32
  -6  -6 -12  131.87    8.40
  -6  -6 -12  155.03    8.58
   6   6  13   47.40    4.94
  -6  -6 -13   49.35    3.78
  -6  -6 -13   42.49    4.09
   6   6  14  240.39   14.71
  -6  -6 -14  224.32   12.64
  -6  -6 -14  231.87   13.45
   6   6  15   41.04    4.77
  -6  -6 -15   36.26    3.32
  -6  -6 -15   40.56    3.95
   6   6  16    1.35    1.31
  -6  -6 -16    2.48    0.97
   6   6  17  328.44   19.50
   6   6  18   11.94    2.55
   6   6  19   61.25    5.47
  -6  -6 -21   98.90    6.03
  -6  -6 -22    4.93    0.85
   6   7 -15   22.73    1.95
   6   7 -14    0.98    0.60
   6   7 -14    0.86    0.82
   6   7 -13   63.41    4.39
   6   7 -13   67.40    4.26
   6   7 -13   64.87    4.23
   6   7 -12    5.37    1.26
   6   7 -12    7.09    1.25
   6   7 -12    6.65    1.20
   6   7 -11    6.71    1.41
   6   7 -11    6.49    1.31
   6   7 -11    7.61    1.24
   6   7 -11    6.92    1.26
   6   7 -10   14.60    2.09
   6   7 -10   19.46    2.14
   6   7 -10   16.15    1.99
   6   7 -10   11.68    1.81
   6   7 -10   14.73    1.90
   6   7  -9   -0.30    0.87
   6   7  -9    0.44    0.78
   6   7  -9    0.34    0.66
   6   7  -9    0.55    0.79
   6   7  -9    0.19    0.81
   6   7  -9    0.59    0.74
   6   7  -8   87.36    6.47
   6   7  -8  109.40    6.69
   6   7  -8  101.19    6.94
   6   7  -8   93.29    6.95
   6   7  -8   97.94    6.54
   6   7  -8   98.56    6.70
   6   7  -8  114.50    7.35
   6   7  -8  100.20    6.51
   6   7  -7   26.18    2.77
   6   7  -7   30.52    2.94
   6   7  -7   26.84    3.07
   6   7  -7   25.82    3.13
   6   7  -7   31.59    2.93
   6   7  -7   29.57    3.19
   6   7  -7   28.08    2.90
   6   7  -7   28.59    3.23
   6   7  -7   23.67    2.60
   6   7  -6   37.01    3.23
   6   7  -6   36.44    3.28
   6   7  -6   38.06    3.76
   6   7  -6   37.63    3.83
   6   7  -6   32.47    3.12
   6   7  -6   32.59    3.52
   6   7  -6   30.72    3.09
   6   7  -6   36.14    3.72
   6   7  -6   31.51    2.94
   6   7  -6   31.33    3.04
   6   7  -5   34.79    3.04
   6   7  -5   37.05    3.23
   6   7  -5   33.55    3.66
   6   7  -5   34.62    3.62
   6   7  -5   29.38    2.87
   6   7  -5   30.91    3.01
   6   7  -5   36.23    3.71
   6   7  -5   35.33    3.62
   6   7  -5   30.53    2.83
   6   7  -5   30.17    2.90
   6   7  -4    2.57    0.86
   6   7  -4    2.66    0.94
   6   7  -4    4.14    1.11
  -6  -7   4    2.12    0.89
   6   7  -4    1.72    0.84
   6   7  -4    3.17    1.07
   6   7  -4    5.43    1.45
   6   7  -4    3.33    1.01
   6   7  -4    4.51    1.40
   6   7  -4    1.78    0.82
   6   7  -3  140.07    8.81
   6   7  -3  163.70    9.21
  -6  -7   3  160.06    9.36
   6   7  -3  142.81    8.79
   6   7  -3  148.53    9.68
   6   7  -3  165.65    9.18
   6   7  -3  174.30   10.44
   6   7  -3  169.09   10.01
   6   7  -3  167.18    9.03
   6   7  -2   18.27    1.96
   6   7  -2   18.53    2.12
  -6  -7   2   19.70    2.27
   6   7  -2   20.30    2.77
   6   7  -2   13.72    2.26
   6   7  -2   18.32    2.10
   6   7  -2   20.62    2.56
   6   7  -2   17.62    1.92
   6   7  -1  305.76   16.89
   6   7  -1  336.42   17.29
  -6  -7   1  339.12   17.63
   6   7  -1  346.12   17.60
   6   7  -1  343.10   18.76
   6   7  -1  327.01   18.32
   6   7  -1  327.69   18.27
   6   7  -1  342.59   18.67
   6   7  -1  332.30   18.01
   6   7  -1  339.85   16.96
  -6  -7   0   47.94    3.86
   6   7   0   43.79    3.67
   6   7   0   52.75    4.66
   6   7   0   47.68    4.33
   6   7   0   47.78    4.30
   6   7   0   43.58    4.30
   6   7   0   38.91    3.72
   6   7   0   48.71    3.28
   6   7   1  182.84   10.37
  -6  -7  -1  189.78   10.56
   6   7   1  196.33   11.68
   6   7   1  188.50   11.16
   6   7   1  177.56   11.12
   6   7   1  177.79   10.55
   6   7   1  173.30    9.61
   6   7   2    6.21    0.97
   6   7   2    6.86    1.35
   6   7   2    8.32    1.64
   6   7   2    5.53    1.59
   6   7   3    1.01    0.79
   6   7   3   -0.20    0.64
   6   7   3    0.72    0.80
   6   7   4  323.47   16.73
   6   7   4  320.68   17.20
   6   7   5   21.39    2.57
   6   7   5   20.23    2.83
   6   7   5   18.83    2.66
   6   7   6  187.52   11.43
  -6  -7  -6  189.59   10.24
   6   7   6  192.60   12.10
   6   7   6  192.31   11.82
   6   7   6  195.70   10.10
   6   7   7    8.68    1.78
  -6  -7  -7    8.23    1.20
   6   7   7    5.41    1.62
   6   7   7    9.32    1.93
  -6  -7  -7    9.49    1.56
   6   7   7    7.82    1.07
   6   7   8   10.74    2.05
  -6  -7  -8   10.39    1.70
  -6  -7  -8   10.09    1.36
   6   7   8    9.48    1.98
   6   7   8   12.42    2.23
   6   7   8    9.56    1.25
   6   7   9  323.21   18.44
  -6  -7  -9  343.04   17.43
  -6  -7  -9  329.02   16.82
   6   7   9  310.95   18.48
   6   7   9  353.93   18.68
   6   7   9  314.52   16.50
   6   7  10    5.64    0.99
   6   7  10    4.87    1.55
  -6  -7 -10    5.04    1.23
   6   7  10    4.51    1.49
   6   7  10    2.08    1.28
  -6  -7 -10    4.43    1.05
  -6  -7 -11  241.28   13.04
  -6  -7 -11  257.53   12.91
   6   7  11  231.93   14.20
   6   7  12    2.50    1.44
  -6  -7 -12    2.72    0.94
  -6  -7 -12    3.56    1.04
   6   7  12    1.08    1.05
   6   7  13  182.98   11.66
  -6  -7 -13  164.16    9.39
   6   7  14    0.35    1.30
  -6  -7 -14   -0.31    0.84
   6   7  15   84.75    7.30
  -6  -7 -15   63.90    5.03
   6   7  16  344.22   20.73
   6   7  17   -0.37    1.53
  -6  -7 -17   -0.54    0.90
   6   7  18   97.74    7.68
  -6  -7 -18   88.71    6.22
   6   7  19   -0.24    1.02
  -6  -7 -19    0.15    0.57
   6   7  20   22.42    2.45
  -6  -7 -20   20.44    2.13
  -6  -7 -20   14.43    1.96
  -6  -7 -21   13.43    1.57
  -6  -7 -22    5.62    0.91
   6   8 -14   31.60    2.23
   6   8 -14   28.37    2.29
   6   8 -13    1.38    0.57
   6   8 -13    0.37    0.55
   6   8 -13    0.75    0.49
   6   8 -12   19.04    1.85
   6   8 -12   19.03    1.87
   6   8 -11   32.05    2.94
   6   8 -11   45.90    3.24
   6   8 -10    0.92    0.78
   6   8 -10    1.91    0.96
   6   8 -10    2.52    0.79
   6   8  -9  174.93   10.06
   6   8  -9  190.48   10.38
   6   8  -9  181.92   10.41
   6   8  -9  162.87    9.58
   6   8  -8    0.89    0.83
   6   8  -8    2.42    1.13
   6   8  -8    1.97    0.89
   6   8  -8    1.31    0.73
   6   8  -8    2.38    0.80
   6   8  -8    2.24    1.16
   6   8  -7  137.12    8.58
   6   8  -7  152.74    9.02
   6   8  -7  148.79    9.39
   6   8  -7  142.13    9.55
   6   8  -7  151.11    8.51
   6   8  -7  152.20    9.37
   6   8  -7  164.68    9.82
   6   8  -6    4.65    1.22
   6   8  -6    2.88    1.15
   6   8  -6    5.91    1.48
   6   8  -6    5.42    1.38
   6   8  -6    6.02    1.18
   6   8  -6    7.95    1.82
   6   8  -5    3.65    1.04
   6   8  -5    5.30    1.37
   6   8  -5    3.77    1.39
   6   8  -5    5.38    1.46
   6   8  -5    3.99    1.37
   6   8  -5    3.70    1.02
   6   8  -5    5.78    1.64
   6   8  -4  136.34    8.21
   6   8  -4  152.94    8.82
   6   8  -4  149.31    9.60
   6   8  -4  128.39    8.83
   6   8  -4  148.89    8.24
   6   8  -4  166.56    9.96
   6   8  -4  145.59    9.45
   6   8  -4  134.95    7.96
   6   8  -3    1.09    0.66
   6   8  -3    0.76    0.83
  -6  -8   3    0.50    0.78
   6   8  -3    2.52    1.19
   6   8  -3    0.85    0.85
   6   8  -3    1.01    0.98
   6   8  -3    1.86    0.75
   6   8  -3    0.23    0.91
   6   8  -2   36.04    3.26
  -6  -8   2   33.81    3.32
   6   8  -2   43.86    4.07
   6   8  -2   35.72    2.96
   6   8  -2   44.41    4.06
  -6  -8   1    2.30    0.99
   6   8  -1    0.69    0.90
   6   8  -1    1.26    0.69
   6   8  -1    1.28    0.89
  -6  -8   0  199.74   11.52
   6   8   0  203.42   12.69
   6   8   0  198.11   12.30
   6   8   0  206.62   12.05
  -6  -8  -1  276.13   15.06
   6   8   1  274.46   14.52
   6   8   1  298.25   16.53
   6   8   1  278.72   15.97
   6   8   1  262.34   15.39
  -6  -8  -2   16.06    2.11
   6   8   2   18.68    1.98
   6   8   2   16.10    2.43
   6   8   2   16.36    2.70
   6   8   2   14.11    2.43
  -6  -8  -3   72.63    5.28
   6   8   3   70.34    4.88
   6   8   3   76.43    6.01
   6   8   3   76.53    6.33
   6   8   4    9.12    1.65
   6   8   4   11.13    1.57
  -6  -8  -4   11.33    1.81
   6   8   4   10.33    1.99
   6   8   4   16.68    2.65
   6   8   5   52.73    4.63
   6   8   5   53.72    5.23
   6   8   5   60.46    5.28
   6   8   6    6.81    1.59
   6   8   6    8.47    2.00
   6   8   6    8.36    1.90
   6   8   7    4.04    1.28
  -6  -8  -7    4.30    1.18
  -6  -8  -7    3.04    0.85
   6   8   7    4.62    1.62
   6   8   7    2.69    1.25
   6   8   8   69.97    5.91
  -6  -8  -8   76.21    5.27
  -6  -8  -8   65.23    4.76
   6   8   8   63.41    6.17
   6   8   8   72.45    6.18
   6   8   9    0.83    0.98
  -6  -8  -9   -0.50    0.74
  -6  -8  -9   -0.14    0.69
   6   8   9    0.30    0.96
   6   8   9    1.72    1.20
   6   8  10  421.85   23.24
  -6  -8 -10  409.51   21.54
  -6  -8 -10  427.92   21.34
   6   8  10  379.97   23.17
   6   8  10  412.54   23.18
  -6  -8 -11    5.38    1.25
  -6  -8 -11    4.18    1.19
   6   8  11    3.92    1.70
   6   8  11    5.09    1.71
  -6  -8 -12   55.31    4.44
  -6  -8 -12   62.12    4.62
   6   8  12   55.24    5.89
   6   8  13   14.81    3.05
  -6  -8 -13   12.94    2.03
   6   8  13   16.58    2.88
   6   8  14   45.73    5.41
  -6  -8 -14   33.34    3.45
  -6  -8 -14   38.24    3.52
   6   8  14   34.63    4.29
   6   8  15   27.69    4.20
  -6  -8 -15   24.74    2.78
  -6  -8 -15   27.47    2.85
   6   8  15   18.63    3.05
   6   8  16   -0.36    1.52
  -6  -8 -16    1.03    0.92
   6   8  17  455.56   24.54
  -6  -8 -17  420.03   22.35
   6   8  18   16.24    2.69
  -6  -8 -18   14.98    2.03
   6   8  19   13.76    2.19
  -6  -8 -19   10.74    1.59
  -6  -8 -20   20.26    2.06
  -6  -8 -20   16.44    2.11
  -6  -8 -21    1.86    0.62
  -6  -8 -22   55.91    3.38
   6   9 -13    6.06    0.94
   6   9 -13    6.08    0.89
   6   9 -12   41.27    2.69
   6   9 -12   40.95    2.68
   6   9 -11    1.89    0.67
   6   9 -11    5.58    1.07
   6   9 -10   60.28    4.39
   6   9 -10   94.50    5.13
   6   9  -9    0.91    0.63
   6   9  -9    0.78    0.77
   6   9  -9    0.91    0.65
   6   9  -9    1.00    0.79
   6   9  -8  177.07    9.57
   6   9  -8  178.53    9.71
   6   9  -8  163.57    9.38
   6   9  -8  185.94   10.22
   6   9  -7   60.17    4.50
   6   9  -7   66.71    4.85
   6   9  -7   59.41    4.59
   6   9  -7   63.14    5.02
   6   9  -6    0.31    0.67
   6   9  -6    0.48    0.80
   6   9  -6    0.42    0.77
   6   9  -6    0.62    0.73
   6   9  -6    1.13    1.01
   6   9  -5   39.20    3.32
   6   9  -5   49.07    4.06
   6   9  -5   50.89    4.58
   6   9  -5   54.09    4.85
   6   9  -5   52.53    4.62
   6   9  -5   48.60    4.59
   6   9  -4   14.53    2.01
   6   9  -4   18.98    2.71
   6   9  -4   12.26    2.29
   6   9  -4   22.03    2.85
   6   9  -3   82.22    5.55
   6   9  -3   85.51    6.69
   6   9  -3   69.12    5.95
   6   9  -3   81.61    6.62
   6   9  -3   93.08    6.72
   6   9  -2    9.26    1.48
   6   9  -2    9.49    2.07
   6   9  -2    7.36    1.75
   6   9  -2   13.07    2.37
  -6  -9   2    7.14    1.55
   6   9  -2   12.33    2.13
  -6  -9   1   43.26    3.92
   6   9  -1   52.35    4.94
   6   9  -1   49.44    4.65
   6   9  -1   39.16    4.34
   6   9  -1   44.13    4.40
  -6  -9   0   53.23    4.56
   6   9   0   60.94    5.33
   6   9   0   55.64    5.19
   6   9   0   57.79    5.07
  -6  -9  -1    8.80    1.66
   6   9   1    8.25    1.97
   6   9   1   10.50    1.96
  -6  -9  -2  256.72   13.89
   6   9   2  255.49   15.42
   6   9   2  229.74   14.75
   6   9   2  239.02   14.22
  -6  -9  -3   41.69    3.85
   6   9   3   51.27    5.13
   6   9   4   88.85    6.67
  -6  -9  -4   99.08    6.65
   6   9   4   95.89    7.51
   6   9   4  101.11    7.94
   6   9   5   31.23    3.49
   6   9   5   31.69    4.13
   6   9   5   32.73    4.12
   6   9   6  177.23   10.98
   6   9   6  164.44   11.95
   6   9   6  165.52   11.53
   6   9   7   11.94    2.32
  -6  -9  -7   17.18    2.28
   6   9   7   19.21    3.27
   6   9   7   13.76    2.68
   6   9   8   11.19    2.37
  -6  -9  -8   10.53    1.85
   6   9   8   11.62    2.71
   6   9   8   12.59    2.57
   6   9   9  220.19   13.77
  -6  -9  -9  204.45   12.23
  -6  -9  -9  211.36   11.66
   6   9   9  209.05   14.44
   6   9   9  225.66   14.22
   6   9  10    5.36    1.85
  -6  -9 -10    5.85    1.41
  -6  -9 -10    6.90    1.33
   6   9  10    5.91    1.99
   6   9  10    4.33    1.72
   6   9  11  113.67    8.95
  -6  -9 -11  106.02    7.20
  -6  -9 -11  110.84    6.82
   6   9  11  108.85    8.95
   6   9  11   88.47    8.04
  -6  -9 -12   33.23    3.28
  -6  -9 -12   35.99    3.22
   6   9  12   28.26    4.09
   6   9  13    5.60    2.13
  -6  -9 -13    5.16    1.22
   6   9  13    3.76    1.72
   6   9  14  124.99    9.26
  -6  -9 -14  103.34    6.89
  -6  -9 -14  104.81    6.93
   6   9  14   95.85    7.96
   6   9  15    2.06    1.67
   6   9  15    1.06    1.07
  -6  -9 -15    0.49    0.74
   6   9  16   63.75    5.86
  -6  -9 -16   54.21    4.25
   6   9  17   25.15    3.42
  -6  -9 -17   24.12    2.55
   6   9  17   19.12    2.67
   6   9  18   16.03    2.45
  -6  -9 -18    8.51    1.45
   6   9  19   82.80    5.73
  -6  -9 -19   67.96    4.75
   6   9  20   -0.39    0.85
  -6  -9 -20   -0.09    0.50
  -6  -9 -21    9.28    1.09
  -6  -9 -21    7.39    1.14
   6  10 -12    0.74    0.42
   6  10 -12    0.21    0.29
   6  10 -11   46.38    3.09
   6  10 -11   44.12    3.13
   6  10 -10    0.88    0.61
   6  10  -9   30.85    2.65
   6  10  -9   33.62    3.00
   6  10  -8   63.29    4.25
   6  10  -8   51.21    4.15
   6  10  -8   62.81    4.71
   6  10  -7    0.37    0.78
   6  10  -7   -0.32    0.54
   6  10  -7    0.30    0.65
   6  10  -7   -0.20    1.00
   6  10  -6   44.43    3.55
   6  10  -6   41.62    3.92
   6  10  -6   43.44    3.95
   6  10  -6   47.40    4.32
   6  10  -5    2.20    0.88
   6  10  -5    3.69    1.24
   6  10  -5    4.58    1.45
   6  10  -5    3.51    1.39
   6  10  -4   62.35    4.49
   6  10  -4   57.36    5.25
   6  10  -4   65.01    5.51
   6  10  -4   71.14    5.70
   6  10  -3   22.10    2.26
   6  10  -3   24.31    3.23
   6  10  -3   23.05    3.19
   6  10  -3   20.11    3.04
  -6 -10   2   58.57    4.90
   6  10  -2   78.58    6.22
   6  10  -2   53.77    5.34
   6  10  -2   68.94    5.97
   6  10  -2   67.29    5.81
  -6 -10   1  122.05    8.26
   6  10  -1  135.14    9.49
   6  10  -1  127.75    9.13
   6  10  -1  110.60    8.88
   6  10  -1  146.97    9.38
  -6 -10   0   30.70    3.39
   6  10   0   34.15    4.26
   6  10   0   38.06    4.15
   6  10   0   24.27    3.60
   6  10   0   39.71    4.13
  -6 -10  -1  162.42   10.56
   6  10   1  195.33   12.31
   6  10   1  181.51   11.83
   6  10   1  167.61   11.61
   6  10   1  172.80   11.30
  -6 -10  -2    0.20    0.83
   6  10   2    0.93    1.04
   6  10   2    0.92    1.03
   6  10   2   -0.25    0.91
  -6 -10  -3   94.88    6.71
   6  10   3   95.29    7.88
   6  10   3   89.13    7.07
   6  10   4    1.10    0.88
  -6 -10  -4    1.19    1.02
   6  10   4    2.55    1.57
   6  10   5   11.72    2.19
  -6 -10  -5   15.36    2.26
   6  10   5   18.81    3.23
   6  10   5   12.42    3.01
   6  10   6  132.98    9.75
   6  10   6  165.12   11.73
   6  10   6  132.37   10.52
   6  10   6  170.30   11.46
   6  10   7   11.10    2.41
  -6 -10  -7   10.88    1.98
   6  10   7   13.26    3.05
   6  10   7   12.92    2.78
   6  10   8  201.16   12.68
  -6 -10  -8  187.34   11.36
   6  10   8  178.55   13.48
   6  10   8  174.82   12.58
   6  10   9    0.98    1.21
  -6 -10  -9    2.05    0.97
   6  10   9    1.13    1.27
   6  10   9    1.95    1.36
   6  10  10   17.62    3.18
  -6 -10 -10   19.18    2.58
   6  10  10   23.28    3.64
   6  10  10   17.73    3.07
   6  10  11   83.90    7.29
  -6 -10 -11   68.82    5.61
   6  10  11   93.00    7.71
   6  10  11   77.21    6.77
  -6 -10 -12    1.77    0.79
   6  10  12    3.20    1.38
   6  10  13   98.62    7.95
   6  10  14    3.12    1.60
   6  10  14    0.83    1.02
  -6 -10 -14    1.50    0.82
   6  10  15   57.27    5.52
  -6 -10 -15   56.02    4.26
   6  10  15   45.76    4.79
   6  10  16   10.11    2.13
  -6 -10 -16    6.33    1.22
   6  10  17    0.94    1.01
  -6 -10 -17   -0.25    0.65
   6  10  17    0.19    0.72
   6  10  18   91.21    6.03
  -6 -10 -18   78.29    4.92
   6  10  19    2.18    0.92
  -6 -10 -19    1.97    0.63
   6  10  20   19.49    2.06
   6  11 -10    2.19    0.52
   6  11  -9   66.40    4.08
   6  11  -9   75.43    4.78
   6  11  -8    3.55    0.78
   6  11  -8    3.03    0.99
   6  11  -7   49.47    3.48
   6  11  -7   57.80    4.47
   6  11  -6    0.44    0.57
   6  11  -6    1.46    0.77
   6  11  -6    0.63    0.66
   6  11  -6    0.40    0.86
   6  11  -5   32.84    2.72
   6  11  -5   29.97    3.36
   6  11  -5   34.37    3.49
   6  11  -4    5.57    1.05
   6  11  -4    6.80    1.61
   6  11  -4    8.00    1.76
   6  11  -4    8.91    1.92
   6  11  -3   23.05    3.06
   6  11  -3   19.06    2.89
   6  11  -3   16.85    2.78
   6  11  -2   86.18    7.19
   6  11  -2   90.15    7.32
   6  11  -2   92.83    7.23
   6  11  -1   10.45    2.39
   6  11  -1   11.24    2.44
   6  11  -1   16.07    2.66
   6  11   0  184.50   11.63
   6  11   0  163.57   11.08
   6  11   0  177.76   10.93
  -6 -11  -1    2.44    1.05
   6  11   1    2.70    1.25
   6  11   1    3.88    1.85
   6  11   1    2.24    1.39
   6  11   1    1.92    1.34
  -6 -11  -2   75.84    5.90
   6  11   2   97.93    8.01
   6  11   2   89.25    7.51
   6  11   2   68.88    6.86
   6  11   2   72.10    6.54
  -6 -11  -3  144.22    9.33
   6  11   3  136.41   10.70
   6  11   3  133.79    9.77
   6  11   4    0.68    0.76
  -6 -11  -4    0.61    0.81
   6  11   4    2.29    1.48
   6  11   5    8.77    2.02
  -6 -11  -5    8.76    1.80
   6  11   5    9.97    2.61
   6  11   5   13.51    2.90
   6  11   6   21.02    3.12
   6  11   6   22.15    3.52
   6  11   6   22.35    3.80
   6  11   6   18.10    3.23
   6  11   7  225.72   14.15
  -6 -11  -7  225.24   13.31
   6  11   7  259.74   15.96
   6  11   7  212.29   14.56
   6  11   8   11.49    2.44
  -6 -11  -8   11.94    2.01
   6  11   8   12.98    2.89
   6  11   8   11.87    2.53
   6  11   9    7.86    2.08
  -6 -11  -9    6.81    1.53
   6  11   9    6.71    2.18
   6  11   9    6.88    2.00
   6  11  10   45.35    4.71
  -6 -11 -10   32.62    3.51
   6  11  10   43.84    5.03
   6  11  11    2.91    1.52
   6  11  11    0.32    1.17
   6  11  12  135.51    9.48
   6  11  12  122.94    9.49
   6  11  13    0.55    0.97
  -6 -11 -13    0.68    0.61
  -6 -11 -14   20.04    2.27
   6  11  14   23.78    3.22
   6  11  15    4.92    1.57
   6  11  15    5.01    1.65
  -6 -11 -15    5.97    1.19
   6  11  16   11.36    2.11
  -6 -11 -16   11.71    1.57
   6  11  16    8.17    1.84
   6  11  17   14.97    2.21
  -6 -11 -17   11.98    1.50
   6  11  18    4.03    1.10
   6  11  18    1.27    0.73
   6  11  19   92.64    5.97
   6  11  20    0.69    0.41
   6  12  -8  100.25    6.05
   6  12  -7    2.14    0.97
   6  12  -6   20.69    2.51
   6  12  -5   36.13    3.52
   6  12  -5   47.16    4.17
   6  12  -4    8.76    1.73
   6  12  -4    9.09    1.87
   6  12  -4   10.85    2.05
   6  12  -3   47.54    4.61
   6  12  -3   56.12    4.91
   6  12  -2   22.71    3.20
   6  12  -2   14.11    2.73
   6  12  -2   21.04    2.98
   6  12  -1   76.27    6.74
   6  12  -1   77.15    6.76
   6  12  -1   72.93    6.21
   6  12   0    5.90    1.94
   6  12   0    2.93    1.29
   6  12   1   11.52    2.59
   6  12   1    9.24    2.00
   6  12   2   19.53    3.27
   6  12   2   12.39    2.28
   6  12   3    0.37    0.92
   6  12   3    1.05    0.81
   6  12   4  248.34   16.29
   6  12   5    1.73    1.05
   6  12   6   17.67    2.66
   6  12   7   -0.24    0.80
   6  12   8   11.22    2.20
   6  12   8   14.38    2.86
   6  12   9    0.74    0.95
   6  12   9    0.63    1.21
   6  12  10   15.07    2.59
   6  12  10   19.91    3.15
   6  12  11   60.93    5.53
   6  12  11   61.37    5.86
   6  12  12    8.14    1.96
   6  12  12    7.38    2.00
   6  12  13    3.92    1.49
   6  12  13    6.36    1.65
  -6 -12 -13    3.97    1.01
   6  12  14    4.23    1.37
  -6 -12 -14    3.70    0.88
   6  12  15    9.43    1.87
   6  12  15    9.27    1.83
  -6 -12 -15    7.90    1.24
   6  12  16   10.57    1.85
   6  12  16    6.44    1.54
   6  12  17    0.15    0.76
   6  12  17    1.92    0.72
   6  12  18   25.72    2.31
   6  12  18   11.76    1.74
   6  12  19    7.58    1.14
   6  13  -7   42.86    2.88
   6  13  -6   21.28    1.99
   6  13  -5    4.29    1.01
   6  13  -4   48.50    4.04
   6  13  -4   64.74    4.43
   6  13  -3    0.36    0.80
   6  13  -3    1.39    0.84
   6  13  -2   18.95    2.35
   6  13  -2   27.28    3.09
   6  13  -2   21.35    2.61
   6  13  -1    3.99    1.27
   6  13  -1    5.32    1.68
   6  13  -1    6.62    1.45
   6  13   0   12.31    2.07
   6  13   0   10.44    2.22
   6  13   0    6.54    1.60
   6  13   1    7.58    1.72
   6  13   1    5.23    1.38
   6  13   2   -0.26    0.95
   6  13   2    1.35    0.75
   6  13   3   87.97    6.75
   6  13   3   62.48    5.12
   6  13   4    8.01    2.05
   6  13   5   29.61    3.91
   6  13   6    2.78    1.49
   6  13   7   -0.18    0.68
   6  13   8    6.32    1.51
   6  13   9   11.75    2.05
   6  13   9   20.03    2.95
   6  13  10   57.56    4.80
   6  13  10   54.69    5.19
   6  13  11    1.17    1.00
   6  13  11    1.18    0.98
   6  13  12    4.37    1.29
   6  13  12    3.95    1.50
   6  13  13   28.84    3.05
   6  13  13   21.33    2.94
   6  13  14    0.36    0.75
   6  13  15    5.48    1.34
   6  13  16   16.37    1.96
   6  13  16   10.47    1.66
   6  13  17   13.03    1.61
   6  13  17   10.06    1.46
   6  13  18    0.68    0.42
   6  14  -4    1.05    0.44
   6  14  -3   13.62    1.46
   6  14  -3   16.13    1.63
   6  14  -2    2.17    0.72
   6  14  -2    0.55    0.58
   6  14  -1    5.26    1.16
   6  14  -1    5.58    1.03
   6  14   0    5.33    1.32
   6  14   0    3.97    0.98
   6  14   1    5.41    1.18
   6  14   1    5.54    1.44
   6  14   1    4.92    1.00
   6  14   2   26.36    2.78
   6  14   2   20.77    2.17
   6  14   3    2.06    1.00
   6  14   3    1.41    0.62
   6  14   4   29.69    3.28
   6  14   5   36.88    3.79
   6  14   7    0.81    1.06
   6  14   8    9.05    1.87
   6  14   9   11.45    1.75
   6  14  10    0.84    0.65
   6  14  11    5.45    1.20
   6  14  11    4.79    1.36
   6  14  12    9.06    1.56
   6  14  12    8.52    1.74
   6  14  13    9.15    1.48
   6  14  13    6.48    1.45
   6  14  14   20.61    2.07
   6  14  14   13.06    1.98
   6  14  15    0.42    0.48
   6  14  16   -0.31    0.40
   6  15   0    0.66    0.40
   6  15   1    1.89    0.69
   6  15   4    2.19    0.74
   6  15   4    1.52    0.82
   6  15   5    9.95    1.42
   6  15   5    9.18    1.55
   6  15   6   39.42    3.25
   6  15   6   39.04    3.35
   6  15   7    5.40    1.27
   6  15   7    3.93    1.09
   6  15   8    2.61    0.94
   6  15   8    3.42    0.94
   6  15   9    0.49    0.53
   6  15   9    0.10    0.48
   6  15  10    9.64    1.43
   6  15  10    5.42    1.02
   6  15  11    3.70    0.80
   6  15  12    8.30    1.15
   7  -8  -5    1.24    0.49
  -7   8   5    0.51    0.35
  -7   8   4    2.70    0.70
   7  -8  -3    0.07    0.46
  -7   8   3    0.24    0.44
  -7   8   2   13.45    1.52
   7  -8  -2   14.49    1.49
  -7   8   1   36.10    2.72
   7  -8  -1   32.23    2.56
   7  -8   0   12.49    1.33
  -7   8   0   10.03    1.36
   7  -8   1   13.14    1.43
   7  -8   1   14.77    1.38
   7  -8   2    0.92    0.48
   7  -8   2    1.09    0.51
  -7   8  -2    0.85    0.58
   7  -8   3    1.07    0.42
   7  -8   3    1.60    0.56
  -7   8  -3    0.87    0.50
  -7   8  -4   22.18    1.94
   7  -8   4   24.38    1.86
   7  -8   4   22.87    1.80
   7  -8   5    3.11    0.57
  -7   8  -5    1.65    0.47
   7  -8   6   12.01    1.12
   7  -7  -8   19.74    1.74
   7  -7  -7    2.95    0.73
   7  -7  -6    0.34    0.54
  -7   7   6    0.08    0.35
   7  -7  -5    1.35    0.82
  -7   7   5    3.47    0.80
  -7   7   4   45.16    3.37
   7  -7  -4   50.10    3.38
  -7   7   3   25.05    2.41
   7  -7  -3   20.67    2.68
   7  -7  -3   26.19    2.35
  -7   7   2   12.72    1.77
   7  -7  -2   13.76    2.18
   7  -7  -2   17.63    1.81
  -7   7   1    2.85    0.86
   7  -7  -1    1.54    0.77
   7  -7   0    2.02    0.64
  -7   7   0    2.52    0.89
   7  -7   0    3.25    1.18
   7  -7   0    3.56    0.87
   7  -7   1   14.33    2.31
   7  -7   1   17.80    1.84
   7  -7   1   16.66    1.70
   7  -7   2    0.43    0.44
   7  -7   2    0.20    0.71
   7  -7   2    0.77    0.62
  -7   7  -3   19.60    2.15
   7  -7   3   21.53    2.73
  -7   7  -3   20.98    1.82
   7  -7   3   22.93    2.01
   7  -7   3   18.82    1.86
  -7   7  -4   24.55    2.27
   7  -7   4   23.40    2.81
  -7   7  -4   20.54    1.88
   7  -7   4   24.53    2.06
  -7   7  -5   20.53    2.00
  -7   7  -5   20.44    1.78
   7  -7   5   21.36    1.85
   7  -7   6    0.86    0.45
  -7   7  -6    0.13    0.45
  -7   7  -6    0.08    0.37
   7  -7   7    0.50    0.41
  -7   7  -7    0.42    0.40
  -7   7  -8   12.56    1.27
   7  -7   8   15.33    1.40
   7  -7   9    2.73    0.52
  -7   7  -9    2.53    0.54
   7  -6 -10   14.51    1.75
   7  -6 -10   21.66    1.78
   7  -6  -9   11.31    1.42
   7  -6  -8   10.01    1.41
   7  -6  -7   11.54    1.48
  -7   6   7    6.80    1.08
  -7   6   6   -0.41    0.59
   7  -6  -6   -0.31    0.70
  -7   6   5   46.72    3.60
   7  -6  -5   39.95    4.01
   7  -6  -5   53.38    3.74
  -7   6   4    9.36    1.42
   7  -6  -4    9.95    1.91
   7  -6  -4    9.37    1.50
   7  -6  -3   25.76    3.27
   7  -6  -3   30.11    2.73
   7  -6  -2    1.22    1.02
   7  -6  -2    0.13    0.73
   7  -6  -1   -0.13    0.74
   7  -6   0   23.02    3.21
   7  -6   0   22.48    2.24
   7  -6   0   16.28    1.83
   7  -6   1    2.42    0.77
   7  -6   1    2.74    1.30
   7  -6   1    1.57    0.81
   7  -6   2  114.07    8.41
   7  -6   2  104.50    6.41
   7  -6   3   29.71    3.73
   7  -6   3   24.08    2.34
   7  -6   4   11.18    1.57
   7  -6   4   11.06    2.33
  -7   6  -5    0.89    0.70
   7  -6   5    1.91    0.74
  -7   6  -6    2.71    0.83
   7  -6   6    4.38    0.96
   7  -6   6    2.15    1.23
  -7   6  -7   18.82    2.12
   7  -6   7   19.93    2.81
  -7   6  -7   27.51    2.36
   7  -6   7   26.23    2.33
   7  -6   8    5.17    1.01
  -7   6  -8    3.66    0.95
  -7   6  -9  119.37    6.79
  -7   6 -10    2.26    0.50
  -7   6 -10    3.30    0.80
  -7   6 -11   34.05    2.56
   7  -6  11   38.54    2.58
  -7   6 -12   15.09    1.46
   7  -6  12   18.66    1.43
   7  -5 -12    0.94    0.42
   7  -5 -12    0.87    0.47
   7  -5 -11    6.66    1.01
   7  -5 -11    7.96    1.33
   7  -5 -11    9.55    1.25
   7  -5 -10    3.14    0.71
   7  -5 -10    2.79    0.89
   7  -5 -10    3.51    0.87
   7  -5  -9   -0.08    0.49
   7  -5  -9    0.45    0.60
   7  -5  -9    0.45    0.59
   7  -5  -8    9.26    1.25
   7  -5  -8    7.94    1.57
   7  -5  -8   11.03    1.57
   7  -5  -7   10.68    1.40
  -7   5   7   12.59    1.53
   7  -5  -7   10.25    1.84
   7  -5  -7    8.02    1.51
   7  -5  -7   12.50    1.74
   7  -5  -6    9.61    1.28
   7  -5  -6    7.54    1.67
   7  -5  -6    6.63    1.60
   7  -5  -6    9.96    1.57
   7  -5  -5   42.48    3.15
   7  -5  -5   40.87    4.21
   7  -5  -5   49.84    3.83
   7  -5  -4   19.50    1.88
   7  -5  -4   19.78    2.87
   7  -5  -4   16.96    2.16
   7  -5  -3    1.30    0.65
   7  -5  -3    0.55    0.87
   7  -5  -3    1.86    0.94
   7  -5  -2    7.68    1.20
   7  -5  -2    6.40    1.37
   7  -5  -1   54.02    3.59
   7  -5  -1   60.81    4.24
   7  -5   0   14.31    1.63
   7  -5   0   18.04    2.13
   7  -5   0   13.22    1.66
   7  -5   1   89.07    5.34
   7  -5   1   79.26    5.49
   7  -5   2    2.14    0.76
   7  -5   2    1.50    0.67
   7  -5   2    0.34    1.27
   7  -5   3    4.23    1.13
   7  -5   3    3.73    0.83
   7  -5   3    4.54    1.71
   7  -5   4   14.99    1.53
   7  -5   4   15.21    2.99
   7  -5   4   17.61    2.10
   7  -5   5    4.89    1.13
   7  -5   5    2.81    0.70
   7  -5   5    3.15    1.62
   7  -5   6  114.41    8.19
   7  -5   6   94.89    6.34
   7  -5   7    0.93    0.68
   7  -5   7   -0.25    0.75
  -7   5  -8   69.42    5.12
   7  -5   8   81.25    6.27
   7  -5   9    0.60    0.62
  -7   5  -9    0.77    0.74
  -7   5 -10   56.89    4.13
  -7   5 -11  129.61    7.51
   7  -5  12    2.37    0.69
  -7   5 -12    2.03    0.78
  -7   5 -13   45.40    2.98
   7  -5  13   48.37    2.89
   7  -5  14    0.98    0.42
   7  -4 -14    9.72    1.26
   7  -4 -13    0.17    0.40
   7  -4 -13    0.40    0.54
   7  -4 -13    0.30    0.44
   7  -4 -12   35.25    2.73
   7  -4 -12   42.66    3.31
   7  -4 -12   36.36    2.84
   7  -4 -11   11.55    1.38
   7  -4 -11   10.16    1.71
   7  -4 -11   12.49    1.56
   7  -4 -10    8.21    1.24
   7  -4 -10    7.77    1.59
   7  -4 -10   10.65    1.49
   7  -4  -9   12.38    1.55
   7  -4  -9   14.50    2.17
   7  -4  -9   13.43    1.82
   7  -4  -8   12.66    1.56
   7  -4  -8   12.45    2.14
   7  -4  -8   13.11    1.85
   7  -4  -7    9.27    1.39
   7  -4  -7    4.80    1.38
   7  -4  -7   10.18    1.96
   7  -4  -6    2.47    0.82
   7  -4  -6    1.81    0.98
   7  -4  -6    0.88    0.98
   7  -4  -6    1.08    0.94
   7  -4  -5   24.77    2.31
   7  -4  -5   22.43    3.07
   7  -4  -5   21.28    3.09
   7  -4  -5   24.45    2.64
   7  -4  -4    3.32    0.95
   7  -4  -4    3.77    1.34
   7  -4  -4    1.15    1.16
   7  -4  -4    2.96    1.06
   7  -4  -3    2.36    0.88
   7  -4  -3    1.57    1.27
   7  -4  -3    2.78    1.01
   7  -4  -2   51.17    3.75
   7  -4  -2   59.74    5.85
   7  -4  -2   49.01    5.45
   7  -4  -2   49.54    4.06
   7  -4  -1    2.28    0.72
  -7   4   1    3.50    1.11
   7  -4  -1    4.87    1.09
   7  -4  -1    3.93    1.74
   7  -4  -1    2.48    1.48
   7  -4   0   49.73    3.50
  -7   4   0   42.67    4.10
   7  -4   0   38.87    3.31
   7  -4   1    2.58    0.89
   7  -4   1    2.47    0.84
   7  -4   1    4.09    1.71
   7  -4   1    1.47    1.30
   7  -4   2   46.55    3.55
   7  -4   2   49.16    5.61
   7  -4   2   51.88    4.03
   7  -4   3    1.32    0.76
  -7   4  -3    3.33    1.05
   7  -4   3    2.10    1.35
   7  -4   3    3.82    1.50
   7  -4   4    1.91    0.85
   7  -4   4    3.68    1.63
   7  -4   4    1.00    0.99
   7  -4   5    2.50    0.93
   7  -4   5    0.32    1.12
   7  -4   6   25.01    2.51
   7  -4   6   19.12    3.19
   7  -4   7  118.33    7.41
   7  -4   7  123.05    8.75
   7  -4   8    6.92    1.31
   7  -4   8    7.12    1.66
   7  -4   9   36.14    2.98
   7  -4   9   24.17    3.01
  -7   4 -11    0.91    0.85
   7  -4  12   31.43    2.64
   7  -4  13    0.69    0.58
   7  -4  14   46.44    3.16
  -7   4 -15    4.27    0.78
   7  -4  15    5.29    0.80
  -7   4 -15    3.96    0.91
   7  -3 -15   12.36    1.43
   7  -3 -14   -0.48    0.49
   7  -3 -14    0.39    0.52
   7  -3 -14    0.06    0.36
   7  -3 -13   24.78    2.10
   7  -3 -13   25.68    2.53
   7  -3 -13   23.01    2.14
   7  -3 -12   16.11    1.75
   7  -3 -12   13.73    2.14
   7  -3 -12   18.53    1.94
   7  -3 -11   12.95    1.66
   7  -3 -11   15.72    2.31
   7  -3 -11   16.60    1.93
   7  -3 -10   19.13    1.99
   7  -3 -10   19.44    2.73
   7  -3 -10   16.65    2.16
   7  -3  -9   15.29    1.84
   7  -3  -9   17.25    2.71
   7  -3  -9   19.14    2.27
   7  -3  -8  108.94    6.71
   7  -3  -8  112.04    8.24
   7  -3  -8  115.75    7.31
   7  -3  -7    0.35    0.69
   7  -3  -7    0.27    1.00
   7  -3  -7    0.59    0.73
   7  -3  -7   -0.34    0.88
   7  -3  -6   47.61    3.45
   7  -3  -6   43.15    4.56
   7  -3  -6   35.56    4.14
   7  -3  -6   39.14    3.69
   7  -3  -5   53.35    3.74
   7  -3  -5   45.07    4.70
   7  -3  -5   43.10    4.81
   7  -3  -5   40.58    4.73
   7  -3  -5   45.27    3.96
   7  -3  -4   -0.12    0.73
   7  -3  -4    0.74    1.03
   7  -3  -4    0.32    1.01
   7  -3  -4    0.63    1.06
   7  -3  -4    0.99    0.92
   7  -3  -3   75.93    4.82
   7  -3  -3   64.25    5.51
   7  -3  -3   70.05    6.79
   7  -3  -3   68.34    6.59
  -7   3   3   61.09    5.08
   7  -3  -2   15.98    1.96
  -7   3   2   12.13    1.98
   7  -3  -2   18.63    3.24
   7  -3  -2   15.24    2.96
   7  -3  -1   73.90    4.76
   7  -3  -1   80.26    7.10
   7  -3  -1   69.51    6.67
  -7   3   1   55.33    4.96
   7  -3   0   10.50    1.55
   7  -3   0   15.11    1.78
   7  -3   0   11.78    1.84
  -7   3   0   15.80    2.10
   7  -3   1   93.05    7.56
   7  -3   1   91.82    7.47
  -7   3  -1   72.90    5.69
   7  -3   1   72.07    5.20
   7  -3   2  179.83   12.57
   7  -3   2  176.42   10.41
   7  -3   3   34.47    3.11
   7  -3   3   45.83    4.83
   7  -3   3   35.62    4.37
  -7   3  -3   33.68    3.46
   7  -3   4  432.74   21.69
   7  -3   4  487.00   24.28
   7  -3   4  455.55   23.97
  -7   3  -5    7.37    1.51
   7  -3   5    7.52    2.02
   7  -3   5    9.53    2.08
  -7   3  -6    5.16    1.31
   7  -3   6    6.57    1.76
   7  -3   6    5.39    1.66
  -7   3  -7    8.07    1.63
   7  -3   7    8.85    1.96
   7  -3   7    8.86    2.01
   7  -3   7    9.52    1.22
   7  -3   8   20.69    2.89
   7  -3   8   21.25    1.92
   7  -3   9  165.82   10.04
   7  -3   9  155.21    8.98
   7  -3   9  150.11    8.33
   7  -3  10    0.57    0.51
   7  -3  10    1.04    0.71
   7  -3  11  311.02   15.61
   7  -3  12    0.84    0.49
  -7   3 -13   43.36    3.61
   7  -3  13   34.50    2.42
  -7   3 -14   39.45    3.35
  -7   3 -15    1.82    0.75
  -7   3 -16   39.40    3.15
  -7   3 -16   42.37    3.09
  -7   3 -17    0.11    0.35
   7  -3  17    0.48    0.30
   7  -2 -15    2.34    0.58
   7  -2 -14    2.52    0.68
   7  -2 -14    2.39    0.67
   7  -2 -13   14.96    1.70
   7  -2 -13   17.77    2.29
   7  -2 -13   19.10    1.93
   7  -2 -12   15.26    1.72
   7  -2 -12   13.41    2.33
   7  -2 -12   14.82    1.90
   7  -2 -11   76.13    4.59
   7  -2 -11   68.23    5.63
   7  -2 -11   76.23    5.02
   7  -2 -10    1.86    0.85
   7  -2 -10    2.40    1.30
   7  -2 -10    0.16    0.83
   7  -2 -10    1.15    0.58
   7  -2  -9  135.68    7.61
   7  -2  -9  134.99    9.52
   7  -2  -9  137.60    8.29
   7  -2  -9  115.25    7.05
   7  -2  -8    0.37    0.83
   7  -2  -8    0.91    1.17
   7  -2  -8    2.00    1.11
   7  -2  -8    0.55    0.62
   7  -2  -8    0.40    0.61
   7  -2  -7   47.47    3.52
   7  -2  -7   48.78    4.93
   7  -2  -7   37.32    3.97
   7  -2  -7   51.62    4.20
   7  -2  -7   39.09    3.12
   7  -2  -7   40.54    3.27
   7  -2  -6   20.41    2.17
   7  -2  -6   20.20    3.05
   7  -2  -6   18.88    2.87
   7  -2  -6   15.93    2.78
   7  -2  -6   20.72    2.10
   7  -2  -5   12.42    1.70
  -7   2   5   10.39    1.75
   7  -2  -5   14.46    2.48
   7  -2  -5   14.90    2.74
   7  -2  -5    8.71    2.30
   7  -2  -5   14.80    2.11
   7  -2  -5   13.28    1.71
   7  -2  -4  221.23   11.43
   7  -2  -4  196.26   12.59
   7  -2  -4  235.15   13.93
   7  -2  -4  199.50   13.46
   7  -2  -4  203.32   11.11
  -7   2   4  189.69   11.71
   7  -2  -3    7.36    1.25
   7  -2  -3    8.54    1.47
   7  -2  -3    6.45    1.60
   7  -2  -3   10.99    2.47
   7  -2  -3    9.26    2.23
  -7   2   3    7.83    1.46
  -7   2   2   61.80    5.25
   7  -2  -2   81.25    5.15
   7  -2  -2   90.94    7.27
   7  -2  -2   74.40    6.77
   7  -2  -2   74.50    4.75
   7  -2  -1    1.17    0.69
   7  -2  -1    1.11    0.79
   7  -2  -1    2.54    1.33
   7  -2  -1    0.31    0.99
   7  -2  -1    1.92    0.98
  -7   2   1    2.02    0.86
  -7   2   0   51.99    4.13
   7  -2   0   45.14    3.86
   7  -2   0   46.08    3.33
  -7   2  -1  102.43    6.79
   7  -2   1  100.41    6.58
   7  -2   1  103.85    5.98
   7  -2   1   96.17    6.19
   7  -2   2    0.66    0.63
   7  -2   2    0.24    0.51
   7  -2   2    0.30    1.00
   7  -2   2    0.30    0.81
   7  -2   3  992.82   44.31
   7  -2   3  913.07   43.88
  -7   2  -4   24.74    2.74
   7  -2   4   27.90    3.60
   7  -2   4   22.09    3.23
   7  -2   4   25.50    2.24
  -7   2  -5  102.48    6.82
   7  -2   5  103.55    7.89
   7  -2   5  116.76    8.09
   7  -2   5   97.77    6.28
   7  -2   5   98.04    5.99
   7  -2   6   89.18    6.76
   7  -2   6   78.49    6.38
   7  -2   6   76.93    5.12
   7  -2   6   71.03    4.68
  -7   2  -6   67.31    5.28
   7  -2   7   40.94    4.24
   7  -2   7   36.31    4.01
   7  -2   7   35.58    3.18
  -7   2  -7   34.18    3.44
   7  -2   7   38.62    2.92
   7  -2   8    8.62    1.30
  -7   2  -8   11.51    1.76
   7  -2   8   13.52    2.29
   7  -2   8   12.06    2.18
   7  -2   8   10.24    1.62
  -7   2  -9   12.92    2.03
   7  -2   9   13.97    2.36
   7  -2   9   18.33    2.13
   7  -2   9   15.99    1.76
   7  -2  10  297.13   16.51
   7  -2  10  311.06   16.12
   7  -2  10  292.53   15.37
   7  -2  11    0.82    0.68
   7  -2  11    1.21    0.79
   7  -2  12  110.89    6.44
  -7   2 -13   99.36    6.27
   7  -2  13   82.36    5.20
   7  -2  14    5.29    0.89
   7  -2  14    4.14    1.02
  -7   2 -14    4.25    1.16
  -7   2 -15   74.07    4.84
   7  -2  15   78.43    4.76
   7  -2  15   66.56    4.19
   7  -2  16    0.45    0.39
   7  -2  16    1.22    0.55
  -7   2 -16    0.69    0.53
  -7   2 -17   73.72    4.42
   7  -2  17   77.94    4.14
   7  -2  18    7.29    0.89
   7  -1 -16    0.44    0.37
   7  -1 -15   13.61    1.43
   7  -1 -14    0.99    0.52
   7  -1 -14    0.46    0.57
   7  -1 -13    1.27    0.67
   7  -1 -13    0.38    0.77
   7  -1 -13    0.24    0.63
   7  -1 -12   20.62    2.07
   7  -1 -12   18.19    2.20
   7  -1 -12   15.12    1.66
   7  -1 -11    0.35    0.70
   7  -1 -11   -0.84    1.35
   7  -1 -11    1.67    1.02
   7  -1 -11    0.09    0.60
   7  -1 -10   71.60    4.75
   7  -1 -10   75.01    6.47
   7  -1 -10   70.66    5.29
   7  -1 -10   61.33    4.37
   7  -1  -9    2.13    0.91
   7  -1  -9    2.99    1.49
   7  -1  -9    2.74    1.18
   7  -1  -9    1.07    0.69
   7  -1  -9    2.75    0.88
   7  -1  -8   76.33    5.04
   7  -1  -8   79.95    6.68
   7  -1  -8   74.96    5.78
   7  -1  -8   70.43    4.82
   7  -1  -8   72.03    4.92
   7  -1  -7   73.34    4.85
   7  -1  -7   75.31    6.30
   7  -1  -7   70.09    5.64
   7  -1  -7   64.25    4.52
   7  -1  -7   69.70    5.23
   7  -1  -7   67.81    4.73
   7  -1  -6    0.61    0.75
   7  -1  -6    0.25    0.73
   7  -1  -6   -0.26    0.93
   7  -1  -6    0.27    0.80
   7  -1  -6    0.83    0.69
   7  -1  -6   -0.21    0.63
   7  -1  -6    0.81    0.83
  -7   1   5   20.53    2.41
   7  -1  -5   23.40    2.36
   7  -1  -5   22.92    3.06
   7  -1  -5   25.88    3.45
   7  -1  -5   22.98    3.34
   7  -1  -5   25.86    2.25
   7  -1  -5   18.45    2.37
   7  -1  -5   25.16    2.38
   7  -1  -4    1.02    0.69
   7  -1  -4   -0.13    0.73
   7  -1  -4    0.22    0.83
   7  -1  -4   -0.57    0.90
   7  -1  -4    0.57    0.95
   7  -1  -4    0.20    0.55
   7  -1  -4    0.15    0.67
  -7   1   4    0.31    0.52
  -7   1   3   94.90    6.45
   7  -1  -3  105.97    6.25
   7  -1  -3   96.89    6.87
   7  -1  -3  113.76    8.01
   7  -1  -3   97.11    7.61
   7  -1  -3   87.69    5.64
   7  -1  -3   91.71    6.23
   7  -1  -3   90.89    6.64
   7  -1  -3   98.07    5.89
  -7   1   2   17.70    2.26
   7  -1  -2   19.92    2.10
   7  -1  -2   23.73    3.18
   7  -1  -2   20.09    3.05
   7  -1  -2   16.64    1.79
   7  -1  -2   17.27    2.13
   7  -1  -2   19.94    2.45
   7  -1  -2   19.84    1.98
   7  -1  -1   28.90    2.60
  -7   1   1   28.94    2.89
   7  -1  -1   35.74    3.95
   7  -1  -1   26.65    3.52
   7  -1  -1   25.95    2.59
   7  -1  -1   25.59    2.82
   7  -1  -1   24.79    2.28
   7  -1   0   46.57    3.50
  -7   1   0   51.76    4.14
   7  -1   0   48.36    3.77
   7  -1   0   45.49    3.98
   7  -1   0   49.89    3.49
   7  -1   1   10.04    1.36
  -7   1  -1    9.72    1.65
   7  -1   1   10.06    1.39
   7  -1   1   10.55    1.51
   7  -1   1    7.68    1.57
   7  -1   2  283.93   15.18
   7  -1   2  266.78   14.95
   7  -1   2  221.95   12.69
   7  -1   2  240.93   12.64
   7  -1   3    4.77    0.99
   7  -1   3    5.34    1.67
   7  -1   3    5.76    1.56
  -7   1  -4   87.22    5.97
   7  -1   4   94.72    7.09
   7  -1   4   96.02    7.01
   7  -1   4   84.72    5.43
   7  -1   4   78.21    5.19
  -7   1  -5   97.64    6.83
   7  -1   5  113.20    7.96
   7  -1   5  107.17    6.61
   7  -1   5  102.53    6.30
  -7   1  -6   15.61    2.03
   7  -1   6   16.86    2.55
   7  -1   6   16.92    2.56
   7  -1   6   15.81    1.95
   7  -1   6   13.95    1.71
  -7   1  -7   13.69    1.89
   7  -1   7   13.68    2.34
   7  -1   7   10.14    2.02
   7  -1   7   12.22    1.76
   7  -1   7   12.67    1.58
   7  -1   8    0.23    0.68
   7  -1   8    0.72    0.70
   7  -1   8    0.24    0.70
   7  -1   8    0.33    0.71
  -7   1  -8    0.16    0.51
   7  -1   9  240.50   14.11
   7  -1   9  245.00   14.16
   7  -1   9  246.87   13.72
   7  -1   9  246.24   13.52
   7  -1   9  246.54   12.88
  -7   1  -9  223.81   13.29
   7  -1  10   46.26    4.21
   7  -1  10   45.47    4.06
   7  -1  10   48.28    4.03
   7  -1  10   48.14    3.59
   7  -1  11    3.34    0.92
   7  -1  11    2.70    1.05
   7  -1  11    4.02    1.13
   7  -1  12  144.97    8.29
   7  -1  13    3.71    0.92
  -7   1 -13    2.50    1.11
  -7   1 -14   74.69    5.10
   7  -1  14   72.91    5.18
   7  -1  14   71.37    4.70
   7  -1  15    1.74    0.73
   7  -1  15    2.07    0.86
  -7   1 -15    1.87    0.73
  -7   1 -16   46.93    3.46
   7  -1  16   54.61    3.79
   7  -1  16   49.87    3.37
  -7   1 -17   10.91    1.28
   7  -1  17   13.58    1.36
  -7   1 -18   13.61    1.46
   7  -1  18   13.58    1.37
   7  -1  18   13.10    1.23
  -7   1 -19   22.75    1.78
   7   0 -16   33.31    2.49
   7   0 -15   15.07    1.78
   7   0 -15   12.84    1.45
   7   0 -14   17.16    1.91
   7   0 -13   31.94    2.95
   7   0 -12    0.27    1.31
   7   0 -12    0.16    1.03
   7   0 -12    0.09    0.59
   7   0 -11  123.33    8.89
   7   0 -11  127.71    8.02
   7   0 -11  112.37    6.85
   7   0 -10    5.44    1.85
   7   0 -10    6.71    1.67
   7   0 -10    4.48    1.09
   7   0 -10    3.96    1.08
   7   0  -9   10.80    2.31
   7   0  -9    8.75    1.94
   7   0  -9    7.85    1.39
   7   0  -9    8.57    1.55
   7   0  -9    6.14    1.28
   7   0  -8   60.78    5.59
   7   0  -8   63.98    5.35
   7   0  -8   60.78    4.25
   7   0  -8   54.30    4.23
   7   0  -7    4.61    1.16
   7   0  -7    3.43    1.59
   7   0  -7    3.39    1.03
   7   0  -6  292.69   16.49
   7   0  -6  292.35   14.83
   7   0  -6  297.98   15.47
   7   0  -6  284.79   15.04
  -7   0   5   13.91    1.87
   7   0  -5   15.51    2.48
   7   0  -5   16.72    2.54
   7   0  -5   16.52    2.58
   7   0  -5   13.60    1.70
   7   0  -5   17.03    2.13
   7   0  -5   14.94    1.86
   7   0  -4  214.73   11.36
  -7   0   4  200.60   11.51
   7   0  -4  190.71   12.15
   7   0  -4  222.15   12.86
   7   0  -4  207.02   12.77
   7   0  -4  205.45   11.04
   7   0  -4  206.12   11.62
   7   0  -4  182.59   12.19
   7   0  -4  215.07   11.23
   7   0  -3   35.62    2.94
   7   0  -3   26.50    3.08
  -7   0   3   30.95    2.98
   7   0  -3   30.30    3.57
   7   0  -3   29.97    3.55
   7   0  -3   30.14    2.54
   7   0  -3   30.96    2.90
   7   0  -3   30.67    3.31
   7   0  -3   30.97    2.63
   7   0  -2    9.01    1.32
   7   0  -2    9.67    1.48
   7   0  -2    9.51    2.05
   7   0  -2    7.95    1.89
   7   0  -2   11.71    1.64
   7   0  -2   10.35    1.89
  -7   0   2   11.40    1.70
   7   0  -1  111.90    6.79
   7   0  -1  127.97    8.41
   7   0  -1  124.61    8.36
  -7   0   1  117.17    7.36
   7   0  -1  112.32    7.02
   7   0  -1  102.55    7.29
   7   0  -1  114.39    6.66
   7   0   0    1.19    0.64
  -7   0   0    1.65    0.76
   7   0   0    1.61    0.67
   7   0   0    1.24    0.88
   7   0   0    1.47    0.95
   7   0   0    1.42    0.68
   7   0   0    1.46    0.96
   7   0   1  172.32    9.72
  -7   0  -1  180.47   10.42
   7   0   1  174.43    9.82
   7   0   1  180.52   10.21
   7   0   1  174.55    9.52
   7   0   2   29.37    2.56
   7   0   2   34.87    3.73
   7   0   2   33.85    3.58
   7   0   2   25.69    2.42
   7   0   2   25.90    2.59
   7   0   2   25.60    2.32
   7   0   3   80.63    5.38
   7   0   3   92.58    6.80
   7   0   3   87.08    6.61
   7   0   3   84.71    5.24
   7   0   4  210.10   12.36
   7   0   4  197.87   12.15
   7   0   4  199.82   11.31
   7   0   4  194.24   10.75
   7   0   4  193.77   10.58
  -7   0  -5    0.33    0.59
   7   0   5    0.33    0.61
   7   0   5   -0.24    0.71
   7   0   5   -0.24    0.96
   7   0   5    0.17    0.79
   7   0   5    0.67    0.54
   7   0   6  378.64   18.93
  -7   0  -6  324.51   17.59
   7   0   6  345.11   18.59
   7   0   6  337.97   17.93
   7   0   6  316.22   17.36
   7   0   6  317.94   16.94
   7   0   7   10.78    2.01
   7   0   7   10.52    1.99
   7   0   7   10.13    1.82
  -7   0  -7   10.78    1.66
   7   0   7    7.76    1.50
   7   0   7   11.99    1.53
  -7   0  -8   18.09    2.24
   7   0   8   20.47    2.71
   7   0   8   18.50    2.61
   7   0   8   23.80    2.58
   7   0   8   21.49    2.16
  -7   0  -9   15.29    2.00
   7   0   9   16.87    2.36
   7   0   9   14.23    2.21
   7   0   9   16.86    2.19
   7   0   9   15.15    1.82
  -7   0 -10   32.87    3.07
   7   0  10   31.69    3.39
   7   0  10   33.56    3.35
   7   0  11  212.08   12.56
   7   0  11  216.01   12.46
   7   0  12    0.20    0.78
   7   0  12   -0.20    0.79
  -7   0 -14    2.74    0.80
  -7   0 -14    1.21    0.81
  -7   0 -15   67.99    4.67
  -7   0 -15   70.26    4.75
   7   0  15   75.62    5.32
  -7   0 -16   46.88    3.55
  -7   0 -16   50.26    3.54
  -7   0 -17    8.04    1.14
   7   0  17   12.49    1.61
  -7   0 -18  136.82    7.42
  -7   0 -18  121.19    7.14
   7   0  18  150.79    7.76
   7   0  18  135.79    7.40
   7   0  19    1.56    0.57
  -7   0 -19    1.21    0.52
   7   0  19    1.83    0.60
   7   0  20   49.46    2.95
   7   1 -16    8.48    1.13
   7   1 -15    0.24    0.62
   7   1 -14   57.31    4.09
   7   1 -14   66.21    4.40
   7   1 -13    3.94    1.06
   7   1 -13    4.61    1.28
   7   1 -13    5.68    1.04
   7   1 -12  102.53    6.73
   7   1 -12  120.19    7.69
   7   1 -12  119.03    6.66
   7   1 -11   68.83    4.55
   7   1 -11   70.36    5.83
   7   1 -11   59.65    5.22
   7   1 -11   63.33    4.30
   7   1 -11   52.06    4.30
   7   1 -10   31.70    2.80
   7   1 -10   32.80    3.79
   7   1 -10   27.38    3.49
   7   1 -10   26.21    2.60
   7   1 -10   26.36    2.75
   7   1 -10   28.03    2.63
   7   1  -9   98.88    6.04
   7   1  -9   90.60    7.20
   7   1  -9   88.14    5.83
   7   1  -9   95.14    6.25
   7   1  -9   89.30    6.33
   7   1  -9   93.13    5.97
   7   1  -9   84.92    6.12
   7   1  -8   -0.13    1.82
   7   1  -8    0.13    0.65
   7   1  -8    0.26    0.97
   7   1  -8   -0.12    0.70
   7   1  -8   -0.16    0.79
   7   1  -8    1.40    1.81
   7   1  -8    0.13    0.84
   7   1  -7  257.27   13.57
   7   1  -7  255.82   14.98
   7   1  -7  264.30   13.52
   7   1  -7  233.70   13.80
   7   1  -7  251.02   13.63
   7   1  -6    6.42    1.37
   7   1  -6    7.99    1.45
   7   1  -6    9.53    2.01
   7   1  -6    8.36    1.80
   7   1  -6    7.72    1.99
   7   1  -6    8.97    1.42
   7   1  -6    8.75    1.60
   7   1  -6    7.01    1.97
   7   1  -5  179.84    9.70
   7   1  -5  189.79   10.98
  -7  -1   5  152.41    9.66
   7   1  -5  148.65   10.50
   7   1  -5  175.69   10.82
   7   1  -5  182.58    9.57
   7   1  -5  171.36   10.09
   7   1  -5  162.46    9.88
   7   1  -5  177.36    9.72
   7   1  -4  126.17    7.13
   7   1  -4  104.96    7.03
   7   1  -4  118.60    7.92
   7   1  -4  102.15    7.88
  -7  -1   4  114.54    7.30
   7   1  -4  116.87    6.86
   7   1  -4  126.16    7.57
   7   1  -4  115.52    7.27
   7   1  -4  118.63    6.96
   7   1  -3    6.54    1.16
   7   1  -3    7.42    1.52
   7   1  -3    4.95    1.08
   7   1  -3    4.48    1.44
   7   1  -3    8.62    1.80
  -7  -1   3    7.34    1.38
   7   1  -3    6.15    1.16
   7   1  -3    9.26    1.55
   7   1  -3    8.88    1.66
   7   1  -3    5.23    1.56
   7   1  -2  305.96   16.19
   7   1  -2  287.97   16.14
   7   1  -2  304.10   16.83
   7   1  -2  339.04   17.68
   7   1  -2  352.45   17.80
   7   1  -2  345.30   16.81
  -7  -1   2  321.74   16.82
   7   1  -2  307.17   16.74
   7   1  -2  285.40   16.18
   7   1  -2  314.23   16.05
  -7  -1   1    7.40    1.44
   7   1  -1    8.00    1.22
   7   1  -1    5.36    1.14
   7   1  -1    9.53    1.84
   7   1  -1    5.67    1.53
   7   1  -1    9.85    1.48
   7   1  -1    7.49    1.44
   7   1   0   37.56    3.02
   7   1   0   38.80    3.95
   7   1   0   35.85    3.79
   7   1   0   38.74    3.20
   7   1   0   39.16    3.28
  -7  -1   0   34.94    3.39
   7   1   0   34.35    2.78
   7   1   1    8.14    1.17
   7   1   1    9.39    1.38
   7   1   1   10.99    1.49
   7   1   1    7.41    1.34
   7   1   2   13.21    1.68
   7   1   2   16.26    2.41
   7   1   2   14.09    2.32
   7   1   2   13.85    1.78
   7   1   2   13.42    1.65
   7   1   2   11.10    1.58
   7   1   2   15.24    1.61
   7   1   3  127.92    7.53
   7   1   3  144.20    8.89
   7   1   3  125.16    8.49
   7   1   3  130.60    7.82
   7   1   3  111.22    7.23
   7   1   3  135.83    7.35
   7   1   4   19.35    2.70
   7   1   4   23.26    2.83
   7   1   4   19.32    2.36
   7   1   4   15.89    1.78
   7   1   4   21.06    2.01
   7   1   5  230.36   13.54
   7   1   5  226.77   13.44
   7   1   5  249.64   13.17
   7   1   5  225.65   12.39
  -7  -1  -5  226.83   12.87
   7   1   5  220.79   12.10
   7   1   6    1.48    0.69
  -7  -1  -6    1.89    0.84
   7   1   6    1.56    0.90
   7   1   6    0.67    0.79
   7   1   6    0.38    0.80
   7   1   6    1.06    0.74
   7   1   7  112.84    7.88
   7   1   7  120.83    8.04
   7   1   7  123.36    7.89
  -7  -1  -7  123.77    7.55
   7   1   7  112.21    7.34
   7   1   7  109.12    6.81
   7   1   8  115.36    8.08
   7   1   8  132.88    8.35
  -7  -1  -8  123.42    7.69
   7   1   8  117.61    7.74
   7   1   8  118.48    7.17
  -7  -1  -9   26.78    2.73
   7   1   9   26.28    3.03
   7   1   9   27.79    2.98
  -7  -1 -10   69.65    5.12
   7   1  10   71.34    5.49
   7   1  10   76.01    5.65
  -7  -1 -11   18.90    2.18
   7   1  11   18.04    2.62
   7   1  11   20.44    2.62
  -7  -1 -12  159.28    9.40
   7   1  12  151.69   10.11
   7   1  12  172.44   10.26
  -7  -1 -13    1.70    0.81
   7   1  13    0.22    0.66
   7   1  13    1.29    0.96
  -7  -1 -14   15.44    1.96
  -7  -1 -14   11.98    1.69
  -7  -1 -15   12.92    1.73
  -7  -1 -15    7.69    1.33
  -7  -1 -16    0.99    0.76
   7   1  16    2.94    1.07
  -7  -1 -16    1.85    0.71
  -7  -1 -17  234.09   13.07
   7   1  17  258.98   13.69
  -7  -1 -18    2.94    0.86
   7   1  18    4.13    1.06
  -7  -1 -19   86.03    5.05
   7   1  19  100.35    5.47
   7   1  19   94.02    5.22
   7   1  20    1.74    0.62
  -7  -1 -20    1.15    0.43
   7   1  20    1.06    0.53
   7   2 -15   65.09    4.53
   7   2 -14   14.51    1.72
   7   2 -14   17.99    2.41
   7   2 -14   18.39    2.08
   7   2 -13   26.05    2.56
   7   2 -13   29.90    3.04
   7   2 -13   30.73    2.45
   7   2 -12   61.52    4.53
   7   2 -12   72.89    5.54
   7   2 -12   74.75    4.47
   7   2 -12   55.08    4.29
   7   2 -12   67.94    4.58
   7   2 -11    7.04    1.68
   7   2 -11    7.36    2.80
   7   2 -11    6.48    1.32
   7   2 -11    8.02    1.87
   7   2 -11    3.30    1.10
   7   2 -11    4.70    1.19
   7   2 -11    2.06    0.85
   7   2 -11    5.23    2.19
   7   2 -10  120.07    7.33
   7   2 -10  121.45    8.50
   7   2 -10  132.82    7.41
   7   2 -10  103.20    7.49
   7   2 -10  117.97    7.39
   7   2 -10  123.55    7.75
   7   2 -10  115.69    7.22
   7   2 -10  123.91    7.38
   7   2  -9    5.03    1.49
   7   2  -9    4.78    1.16
   7   2  -9    4.83    1.59
   7   2  -9    6.39    1.30
   7   2  -9    2.84    0.99
   7   2  -9    4.12    1.15
   7   2  -9    6.55    2.09
   7   2  -9    3.95    1.11
   7   2  -8  126.33    7.57
   7   2  -8  131.63    8.85
   7   2  -8  130.93    8.82
   7   2  -8  130.83    7.56
   7   2  -8  129.65    7.98
   7   2  -8  119.80    7.87
   7   2  -8  111.01    7.50
   7   2  -8  127.33    7.74
   7   2  -7    0.69    0.75
   7   2  -7    0.28    1.25
   7   2  -7   -0.60    2.36
   7   2  -7    0.26    0.71
   7   2  -7    0.97    1.05
   7   2  -7    1.36    1.24
   7   2  -7    1.74    0.90
   7   2  -7    1.41    0.86
   7   2  -7    2.94    1.59
   7   2  -6   43.60    4.27
   7   2  -6   40.35    3.38
   7   2  -6   38.62    3.64
   7   2  -6   42.99    4.22
   7   2  -6   45.79    4.30
   7   2  -6   44.76    3.45
   7   2  -6   45.75    3.90
   7   2  -6   45.79    3.63
   7   2  -5  162.41    9.73
   7   2  -5  156.57    9.08
   7   2  -5  168.23    9.62
   7   2  -5  173.63   10.32
   7   2  -5  137.54    9.69
   7   2  -5  166.07   10.01
  -7  -2   5  145.29    9.21
   7   2  -5  155.44    8.97
   7   2  -5  171.70    9.86
   7   2  -5  165.28    9.43
   7   2  -5  167.68    9.23
  -7  -2   4    1.10    0.72
   7   2  -4    0.84    0.72
   7   2  -4   -0.58    2.33
   7   2  -4    0.12    0.70
   7   2  -4    0.20    0.82
   7   2  -4   -0.16    0.69
   7   2  -4    0.20    0.68
   7   2  -4   -0.36    0.78
   7   2  -4    0.34    0.69
   7   2  -4    1.25    1.12
   7   2  -3  163.17    9.45
   7   2  -3  161.31    8.86
   7   2  -3  148.62    9.06
   7   2  -3  150.17    9.41
   7   2  -3  146.55    8.74
   7   2  -3  162.22    9.83
   7   2  -3  148.12    9.25
   7   2  -3  145.30    8.80
   7   2  -3  158.24    8.72
   7   2  -2    2.13    0.74
   7   2  -2    0.80    0.64
   7   2  -2    0.62    0.60
   7   2  -2    0.34    0.66
   7   2  -2    0.47    0.46
   7   2  -2    0.29    0.54
   7   2  -2    0.42    0.85
   7   2  -2    0.97    0.96
   7   2  -1  173.35    9.05
   7   2  -1  152.91    9.05
   7   2  -1  155.44    8.69
   7   2  -1  166.44    9.99
   7   2  -1  144.65    8.94
   7   2  -1  147.06    8.78
   7   2  -1  158.67    8.67
   7   2   0   60.44    4.14
   7   2   0   54.98    3.79
   7   2   0   64.75    5.06
   7   2   0   62.82    5.01
   7   2   0   53.40    4.09
   7   2   0   55.63    3.88
   7   2   1    0.59    0.56
   7   2   1    1.11    0.70
   7   2   1    0.90    0.56
   7   2   1    0.58    0.54
   7   2   2   36.37    3.10
   7   2   2   43.20    3.31
   7   2   2   35.54    2.90
   7   2   2   39.91    2.94
   7   2   3   36.48    3.71
   7   2   3   41.22    3.88
   7   2   3   40.63    3.39
   7   2   3   33.19    2.74
   7   2   3   37.00    2.86
   7   2   4  497.47   26.53
   7   2   4  517.21   26.63
   7   2   4  546.51   26.26
   7   2   4  491.29   25.22
   7   2   5   16.30    2.35
   7   2   5   14.35    2.23
   7   2   5   16.61    2.22
   7   2   5   15.37    1.83
   7   2   5   14.45    1.71
   7   2   6  231.72   13.23
   7   2   6  237.22   13.31
   7   2   6  238.11   13.14
   7   2   6  218.61   12.46
   7   2   6  217.83   12.04
   7   2   7   86.76    6.21
   7   2   7   88.58    6.26
   7   2   7   76.88    5.20
   7   2   8    0.75    0.69
   7   2   8    1.03    0.76
   7   2   9    3.63    1.14
  -7  -2  -9    4.07    1.03
  -7  -2  -9    6.73    1.36
   7   2  10    8.77    1.63
  -7  -2 -10    8.70    1.47
  -7  -2 -10    8.92    1.59
  -7  -2 -11  630.22   30.41
  -7  -2 -11  577.40   30.18
  -7  -2 -12   55.18    4.39
   7   2  12   51.94    4.89
  -7  -2 -13   36.67    3.58
  -7  -2 -13   48.63    4.04
   7   2  13   39.49    4.12
  -7  -2 -14   44.61    3.91
  -7  -2 -14   52.24    4.09
   7   2  14   41.14    4.23
  -7  -2 -14   39.10    3.29
  -7  -2 -15    3.22    1.13
  -7  -2 -15    2.02    0.70
  -7  -2 -16   86.17    6.08
  -7  -2 -17    5.03    1.31
   7   2  17    6.40    1.49
  -7  -2 -18   46.77    3.83
   7   2  18   50.64    4.15
  -7  -2 -19    0.50    0.65
   7   2  19    0.71    0.78
   7   2  20    6.40    0.97
  -7  -2 -20    4.12    0.91
   7   2  20    6.66    1.15
   7   2  21   40.06    2.54
   7   2  21   32.65    2.19
   7   3 -14   64.50    4.85
   7   3 -13   17.57    2.12
   7   3 -13   22.16    2.69
   7   3 -13   24.73    2.75
   7   3 -13   23.82    2.07
   7   3 -13   19.60    2.27
   7   3 -12    3.50    1.30
   7   3 -12    2.72    2.48
   7   3 -12    4.69    1.05
   7   3 -12    2.75    0.81
   7   3 -12    1.82    0.88
   7   3 -11   74.57    5.38
   7   3 -11   91.34    5.36
   7   3 -11   65.84    5.28
   7   3 -11   75.42    5.17
   7   3 -11   85.12    5.73
   7   3 -11   86.11    5.44
   7   3 -10    8.07    1.56
   7   3 -10    8.66    1.90
   7   3 -10    8.96    1.49
   7   3 -10    7.99    1.53
   7   3 -10    8.69    1.47
   7   3 -10    7.84    2.04
   7   3 -10    7.69    1.39
   7   3  -9  125.78    7.56
   7   3  -9  109.55    7.18
   7   3  -9  119.82    8.26
   7   3  -9  124.45    8.19
   7   3  -9  122.00    7.10
   7   3  -9  102.09    7.16
   7   3  -9  114.88    7.30
   7   3  -9  124.26    7.53
   7   3  -9  110.41    7.12
   7   3  -9  102.11    7.06
   7   3  -8   -0.15    1.61
   7   3  -8   -0.14    0.70
   7   3  -8    0.48    1.04
   7   3  -8    0.86    0.71
   7   3  -8    0.43    1.16
   7   3  -8   -0.26    0.72
   7   3  -8    0.46    0.60
   7   3  -8   -0.71    0.90
   7   3  -8    0.32    1.05
   7   3  -8    0.28    0.56
   7   3  -8   -0.14    0.80
   7   3  -7   38.34    3.83
   7   3  -7   41.21    3.53
   7   3  -7   40.23    3.80
   7   3  -7   43.68    4.28
   7   3  -7   51.94    4.44
   7   3  -7   45.93    3.53
   7   3  -7   46.73    4.05
   7   3  -7   46.62    3.91
   7   3  -7   45.95    3.70
   7   3  -6   13.63    2.40
   7   3  -6   18.61    2.04
   7   3  -6   18.04    2.32
   7   3  -6   16.98    2.51
   7   3  -6   15.52    2.09
   7   3  -6   11.20    2.07
   7   3  -6   15.05    1.86
   7   3  -6   18.33    2.25
   7   3  -6   16.14    2.01
   7   3  -5    2.54    0.99
   7   3  -5    2.07    1.21
   7   3  -5    0.14    1.49
   7   3  -5    1.26    0.80
   7   3  -5    1.50    1.04
   7   3  -5    2.15    0.89
   7   3  -5   -0.18    0.86
   7   3  -5    0.53    0.74
   7   3  -5    0.55    0.98
   7   3  -5    1.68    0.92
   7   3  -5    1.85    0.89
   7   3  -4  502.79   24.85
   7   3  -4  477.61   24.49
   7   3  -4  500.17   25.30
   7   3  -4  483.30   25.46
   7   3  -4  470.37   24.94
   7   3  -4  463.55   25.21
   7   3  -4  478.00   25.10
   7   3  -4  455.67   24.31
   7   3  -4  497.89   24.80
   7   3  -4  505.10   24.58
   7   3  -4  546.11   25.17
   7   3  -3    9.89    2.10
   7   3  -3   10.24    2.16
   7   3  -3    9.95    1.48
   7   3  -3    8.73    1.64
   7   3  -3    8.61    1.51
   7   3  -3    9.87    1.67
   7   3  -3   10.98    1.83
   7   3  -3    8.33    1.57
   7   3  -3   10.24    1.50
   7   3  -2   76.78    5.34
   7   3  -2   73.24    4.86
   7   3  -2   79.52    5.05
   7   3  -2   75.14    5.37
   7   3  -2   76.35    5.41
   7   3  -2   69.31    5.05
   7   3  -2   71.98    5.58
   7   3  -2   66.54    5.00
   7   3  -2   73.93    4.97
   7   3  -1    9.22    2.39
   7   3  -1   10.04    1.35
   7   3  -1   10.31    1.48
   7   3  -1    6.01    1.35
   7   3  -1   10.28    1.49
   7   3  -1    6.14    1.34
   7   3  -1    8.36    1.69
   7   3  -1    9.28    1.46
   7   3  -1    8.84    1.34
   7   3   0   81.03    5.30
   7   3   0   83.60    5.65
   7   3   0   83.20    5.39
   7   3   0   76.35    5.96
   7   3   1    7.25    1.18
   7   3   1    6.22    1.26
   7   3   1    5.63    1.40
   7   3   1    8.15    1.21
   7   3   1    7.89    1.32
   7   3   1    6.64    1.10
   7   3   2   17.44    2.06
   7   3   2   19.18    1.95
   7   3   2   20.18    2.16
   7   3   3  455.79   24.39
   7   3   3  474.76   23.89
   7   3   4   -0.80    0.95
   7   3   4    0.50    0.84
   7   3   5  239.80   14.47
   7   3   5  283.01   15.04
   7   3   5  272.94   14.69
   7   3   6  165.20   10.74
   7   3   6  193.01   11.11
   7   3   6  195.00   11.09
   7   3   7    1.03    0.83
   7   3   7    0.99    0.80
   7   3   7    1.45    1.01
   7   3   8  116.05    8.25
   7   3   8  133.57    8.40
   7   3   8  132.16    8.56
   7   3   9   -0.45    1.04
   7   3   9   -0.19    0.74
   7   3   9    0.46    1.03
  -7  -3  -9    0.15    0.61
   7   3  10    4.00    1.10
  -7  -3 -10    2.55    0.92
   7   3  11   11.18    2.09
  -7  -3 -11    9.00    1.64
  -7  -3 -11   11.83    1.79
   7   3  12  191.72   12.33
  -7  -3 -12  212.90   11.78
  -7  -3 -12  199.79   11.79
   7   3  13  250.48   15.18
  -7  -3 -13  262.32   14.76
   7   3  13  268.34   15.53
  -7  -3 -13  262.09   14.48
  -7  -3 -14    2.93    1.16
   7   3  14    2.59    1.23
  -7  -3 -14    1.84    0.97
  -7  -3 -15  141.34    9.20
  -7  -3 -16    1.03    0.83
  -7  -3 -17   42.84    4.04
  -7  -3 -18    7.69    1.57
   7   3  18    8.45    1.80
  -7  -3 -19    1.29    0.85
   7   3  19    2.63    1.07
  -7  -3 -20   56.22    4.44
   7   3  20   71.27    4.79
  -7  -3 -21   -0.09    0.44
   7   3  21    0.11    0.56
   7   4 -14    1.94    1.12
   7   4 -13    3.22    1.06
   7   4 -13    1.20    1.57
   7   4 -12   76.10    4.88
   7   4 -12   66.53    4.44
   7   4 -12   73.45    4.81
   7   4 -11    6.42    1.41
   7   4 -11   10.37    1.89
   7   4 -11    9.23    1.45
   7   4 -11    8.03    1.30
   7   4 -11    7.77    1.38
   7   4 -10   64.87    4.73
   7   4 -10   59.28    4.68
   7   4 -10   68.27    5.18
   7   4 -10   56.57    4.46
   7   4 -10   59.38    4.44
   7   4 -10   71.14    4.87
   7   4 -10   54.32    4.41
   7   4  -9    8.99    1.68
   7   4  -9    8.81    1.80
   7   4  -9    6.33    1.53
   7   4  -9    9.43    1.64
   7   4  -9    8.99    1.83
   7   4  -9    9.71    1.93
   7   4  -9    8.87    1.43
   7   4  -9   10.28    1.67
   7   4  -9    7.68    1.58
   7   4  -9    9.78    1.52
   7   4  -8   46.74    3.89
   7   4  -8   46.00    3.77
   7   4  -8   40.17    3.71
   7   4  -8   50.35    4.49
   7   4  -8   50.13    4.28
   7   4  -8   38.65    3.54
   7   4  -8   44.29    3.93
   7   4  -8   51.52    4.04
   7   4  -8   40.69    3.56
   7   4  -7   47.14    3.77
   7   4  -7   39.98    3.50
   7   4  -7   33.37    3.35
   7   4  -7   37.30    3.60
   7   4  -7   44.59    4.10
   7   4  -7   35.48    3.53
   7   4  -7   38.94    3.75
   7   4  -7   37.12    3.23
   7   4  -7   40.03    3.59
   7   4  -7   37.52    3.27
   7   4  -6   -0.16    0.88
   7   4  -6    0.14    0.88
   7   4  -6    0.44    0.71
   7   4  -6    0.22    0.81
   7   4  -6    0.19    0.70
   7   4  -6   -0.20    0.66
   7   4  -6   -0.75    0.93
   7   4  -6    0.51    0.76
   7   4  -6   -0.52    0.62
   7   4  -5  107.35    6.78
   7   4  -5   97.71    6.57
   7   4  -5  102.91    7.16
   7   4  -5  102.98    7.32
   7   4  -5  105.18    7.14
   7   4  -5  106.89    7.07
   7   4  -5  109.71    6.96
   7   4  -5  100.26    6.44
   7   4  -5  120.46    7.18
   7   4  -4   -0.14    0.88
   7   4  -4    1.11    1.25
   7   4  -4   -0.27    1.00
   7   4  -4    1.04    0.77
   7   4  -4   -0.20    0.77
   7   4  -4   -0.19    0.69
   7   4  -4    0.99    0.86
   7   4  -4    1.15    0.78
   7   4  -4    0.16    0.69
   7   4  -3   93.24    5.90
   7   4  -3   82.38    5.56
   7   4  -3   99.20    6.52
   7   4  -3   86.58    6.17
   7   4  -3   90.22    6.22
   7   4  -3   85.20    6.07
   7   4  -3   82.87    5.83
   7   4  -3   83.60    6.13
   7   4  -3   85.88    5.78
   7   4  -3   87.92    5.65
   7   4  -3   88.68    6.19
   7   4  -2   96.93    5.92
   7   4  -2   77.07    5.44
   7   4  -2   94.17    6.34
   7   4  -2   80.80    5.85
   7   4  -2   88.42    6.08
   7   4  -2   82.97    6.04
   7   4  -2   84.04    5.65
   7   4  -2   82.49    6.02
   7   4  -2   87.67    5.70
   7   4  -2   84.18    5.46
   7   4  -2   92.20    6.25
   7   4  -1    0.68    0.62
   7   4  -1    0.13    1.35
   7   4  -1    0.69    0.62
   7   4  -1    0.62    0.67
   7   4  -1    0.17    0.47
   7   4  -1   -0.19    0.52
   7   4  -1    0.56    0.78
   7   4  -1   -0.13    0.74
   7   4  -1   -0.18    0.67
   7   4  -1    0.52    0.58
   7   4   0  200.36   10.90
   7   4   0  200.79   11.26
   7   4   0  211.33   11.44
   7   4   0  166.28   10.22
   7   4   0  199.30   11.30
   7   4   0  191.32   11.07
   7   4   0  187.37   10.40
   7   4   0  184.17   10.28
   7   4   1   -0.21    0.53
   7   4   1    0.13    0.66
   7   4   1    0.36    0.60
   7   4   1    0.38    0.70
   7   4   1   -0.51    0.67
   7   4   1   -0.19    0.63
   7   4   1   -0.50    0.65
   7   4   2    9.03    1.44
   7   4   2    4.19    1.18
   7   4   2    8.30    1.33
   7   4   2    6.56    1.27
   7   4   2    8.71    1.28
   7   4   3   50.28    4.10
   7   4   3   62.92    4.74
   7   4   3   59.32    4.25
   7   4   3   51.37    4.10
   7   4   3   50.32    3.75
   7   4   4   85.87    6.19
   7   4   4  103.59    6.71
   7   4   4  109.02    6.49
   7   4   4   89.40    6.42
   7   4   4   80.56    5.81
   7   4   4   93.05    5.72
   7   4   5   90.26    6.73
  -7  -4  -5  109.43    6.16
   7   4   5  105.68    7.05
   7   4   5  105.53    6.97
   7   4   5  105.68    7.05
   7   4   5  100.61    6.27
   7   4   6   45.81    4.20
  -7  -4  -6   51.07    3.63
   7   4   6   43.99    4.06
   7   4   6   50.41    4.30
   7   4   6   47.09    4.15
   7   4   6   51.84    3.71
   7   4   7  249.91   15.40
  -7  -4  -7  287.59   14.68
   7   4   7  267.49   15.34
   7   4   7  305.17   15.89
   7   4   7  278.11   14.69
   7   4   8    1.47    0.82
   7   4   8    2.89    1.14
  -7  -4  -8    3.23    0.97
   7   4   8    2.23    0.91
   7   4   8    1.79    1.06
   7   4   9   74.00    6.09
  -7  -4  -9   80.75    5.39
   7   4   9   80.21    5.77
   7   4   9   79.18    6.28
   7   4   9   80.80    5.44
  -7  -4 -10   77.42    5.14
  -7  -4 -10   72.21    5.36
   7   4  10   66.68    5.14
   7   4  10   66.88    5.80
  -7  -4 -11    5.66    1.31
  -7  -4 -11    6.38    1.50
   7   4  12   24.83    3.33
  -7  -4 -12   29.20    2.88
  -7  -4 -12   27.81    3.23
   7   4  13   73.71    6.23
  -7  -4 -13   75.71    5.97
   7   4  13   74.98    6.35
  -7  -4 -13   74.74    5.34
   7   4  14  138.05    9.35
  -7  -4 -14  128.00    8.09
  -7  -4 -14  136.21    9.05
   7   4  14  129.63    9.30
   7   4  15   41.88    4.33
  -7  -4 -15   40.81    4.22
  -7  -4 -16    4.80    1.48
  -7  -4 -17    2.33    1.22
  -7  -4 -18   -0.21    0.88
  -7  -4 -19  100.97    6.89
  -7  -4 -20    4.09    1.14
   7   4  20    5.86    1.47
  -7  -4 -21   53.68    3.76
   7   4  21   48.36    3.22
  -7  -4 -22    1.16    0.46
   7   4  22    1.37    0.48
   7   5 -13   40.02    3.16
   7   5 -13   38.23    3.01
   7   5 -12    6.77    1.32
   7   5 -12    6.76    1.36
   7   5 -12    7.42    1.18
   7   5 -11   84.54    5.54
   7   5 -11   88.06    5.61
   7   5 -11   92.55    5.50
   7   5 -11   78.33    5.16
   7   5 -11   79.67    5.40
   7   5 -10   35.20    3.10
   7   5 -10   33.78    3.02
   7   5 -10   32.89    3.22
   7   5 -10   33.96    2.94
   7   5 -10   26.87    2.72
   7   5 -10   35.05    2.97
   7   5 -10   32.44    3.13
   7   5 -10   29.97    2.86
   7   5  -9    3.73    1.27
   7   5  -9    3.60    1.23
   7   5  -9    3.46    0.93
   7   5  -9    3.93    1.30
   7   5  -9    3.39    1.20
   7   5  -9    2.70    1.06
   7   5  -9    3.75    0.97
   7   5  -9    4.36    1.15
   7   5  -9    2.98    1.06
   7   5  -9    4.01    1.01
   7   5  -8  143.86    8.17
   7   5  -8  128.88    7.82
   7   5  -8  113.15    7.44
   7   5  -8  132.03    8.24
   7   5  -8  133.46    8.51
   7   5  -8  112.79    7.98
   7   5  -8  133.57    8.25
   7   5  -8  135.92    7.79
   7   5  -8  112.66    7.50
   7   5  -8  139.04    8.20
   7   5  -8  129.14    7.94
   7   5  -8  118.80    7.63
   7   5  -7    9.39    1.71
   7   5  -7    7.39    1.50
   7   5  -7    8.40    1.38
   7   5  -7    8.84    1.82
   7   5  -7    6.53    1.44
   7   5  -7    6.86    1.57
   7   5  -7    7.99    1.62
   7   5  -7    6.80    1.38
   7   5  -7    6.38    1.30
   7   5  -7    8.14    1.65
   7   5  -7    7.48    1.30
   7   5  -7    6.82    1.48
   7   5  -6   29.15    3.03
   7   5  -6   26.32    2.81
   7   5  -6   27.57    2.62
   7   5  -6   35.11    3.41
   7   5  -6   32.38    3.36
   7   5  -6   24.24    2.98
   7   5  -6   27.59    2.96
   7   5  -6   29.35    2.76
   7   5  -6   24.45    2.86
   7   5  -6   30.10    3.04
   7   5  -6   29.13    2.72
   7   5  -5   83.54    5.92
   7   5  -5   87.11    5.63
   7   5  -5   71.63    5.18
   7   5  -5   87.46    6.21
   7   5  -5   86.68    6.15
   7   5  -5   82.56    6.11
   7   5  -5   75.87    5.66
   7   5  -5   85.58    5.41
   7   5  -5   87.83    5.97
   7   5  -5   80.88    5.73
   7   5  -5   71.79    5.22
   7   5  -4  280.36   14.78
   7   5  -4  268.16   14.37
   7   5  -4  244.63   13.98
   7   5  -4  295.22   15.40
   7   5  -4  261.40   14.89
   7   5  -4  288.59   15.34
   7   5  -4  253.80   14.48
   7   5  -4  262.94   14.13
   7   5  -4  283.89   14.82
   7   5  -4  256.45   14.47
   7   5  -3  195.44   10.55
   7   5  -3  165.44   10.09
   7   5  -3  190.75   10.97
   7   5  -3  189.48   11.29
   7   5  -3  209.20   11.51
   7   5  -3  167.16   10.38
   7   5  -3  182.54   11.17
   7   5  -3  188.81   10.28
   7   5  -3  191.31   10.78
   7   5  -3  182.45   10.51
   7   5  -3  190.04   10.80
   7   5  -2   54.46    3.96
   7   5  -2   45.98    3.64
   7   5  -2   54.50    3.97
   7   5  -2   43.46    3.91
   7   5  -2   48.76    4.40
   7   5  -2   53.20    4.48
   7   5  -2   44.80    3.73
   7   5  -2   47.39    4.27
   7   5  -2   51.72    4.42
   7   5  -2   52.16    4.02
   7   5  -2   50.44    3.88
   7   5  -2   53.22    4.20
   7   5  -1  226.21   11.97
   7   5  -1  203.20   11.65
   7   5  -1  222.41   11.92
   7   5  -1  213.74   12.06
   7   5  -1  229.86   12.85
   7   5  -1  199.13   11.62
   7   5  -1  230.24   12.73
   7   5  -1  230.90   12.74
   7   5  -1  213.08   11.94
   7   5  -1  207.69   11.72
   7   5  -1  219.24   12.10
   7   5   0   16.14    2.10
   7   5   0   13.88    1.66
   7   5   0   12.85    1.74
   7   5   0   13.27    1.73
   7   5   0   14.48    2.22
   7   5   0   13.34    2.00
   7   5   0   15.75    2.24
   7   5   0   12.78    1.99
   7   5   0   13.39    1.71
   7   5   0   12.42    1.62
   7   5   1   14.71    1.82
   7   5   1   10.51    1.87
   7   5   1   11.52    1.90
   7   5   1   12.64    2.02
   7   5   1   13.70    2.04
   7   5   1   15.49    1.75
   7   5   2  120.17    7.27
   7   5   2  124.66    7.96
   7   5   2  121.13    7.02
   7   5   2  111.96    7.57
   7   5   2  111.26    6.90
   7   5   3   19.43    2.41
   7   5   3   17.02    2.13
   7   5   3   17.63    2.28
   7   5   3   18.70    2.12
   7   5   3   19.98    2.54
   7   5   3   18.24    2.27
   7   5   3   15.57    1.86
   7   5   4  146.64    9.01
   7   5   4  143.46    9.14
   7   5   4  151.15    8.83
   7   5   4  156.58    9.19
   7   5   4  147.60    8.90
   7   5   4  143.23    9.30
   7   5   4  137.65    8.80
   7   5   4  146.88    8.39
   7   5   5    2.44    0.85
   7   5   5    0.19    0.70
   7   5   5    0.60    0.58
   7   5   5    0.36    0.73
   7   5   5    0.95    0.60
   7   5   5    0.55    0.81
   7   5   5    0.21    0.89
   7   5   5    0.16    0.58
   7   5   6  281.87   16.35
  -7  -5  -6  300.06   15.20
   7   5   6  292.47   16.22
   7   5   6  306.51   16.63
   7   5   6  297.14   15.80
   7   5   6  301.93   15.65
   7   5   7    4.55    1.10
   7   5   7    5.60    1.42
  -7  -5  -7    5.20    1.04
   7   5   7    5.59    1.12
   7   5   7    5.36    1.37
   7   5   7    4.55    1.42
   7   5   8   48.25    4.51
  -7  -5  -8   53.45    3.75
   7   5   8   53.00    4.50
   7   5   8   49.04    3.89
   7   5   9    9.10    1.52
   7   5   9    8.40    1.84
  -7  -5  -9    8.55    1.35
   7   5   9    6.94    1.47
   7   5  10    1.95    0.87
   7   5  10    1.27    1.13
  -7  -5 -10    1.48    0.83
  -7  -5 -11   91.25    5.94
   7   5  12   28.54    3.49
  -7  -5 -12   19.79    2.29
  -7  -5 -12   21.45    2.97
   7   5  13  198.83   12.46
  -7  -5 -13  187.89   10.87
  -7  -5 -13  194.87   12.11
   7   5  14    2.86    1.53
  -7  -5 -14    3.47    1.06
   7   5  14    2.66    1.52
  -7  -5 -14    2.52    1.35
   7   5  15   49.97    4.88
  -7  -5 -15   41.36    3.59
  -7  -5 -15   48.34    4.65
   7   5  16    0.28    1.11
  -7  -5 -16    0.47    0.83
   7   5  17   52.15    4.91
  -7  -5 -17   44.62    4.39
  -7  -5 -18  104.87    7.25
  -7  -5 -19    2.46    1.02
  -7  -5 -20   13.58    1.72
   7   5  20    9.71    1.21
   7   5  21    4.41    0.75
  -7  -5 -21    6.43    1.05
   7   5  21    6.53    1.27
  -7  -5 -22    0.48    0.35
   7   5  22    0.57    0.38
   7   6 -13    0.31    0.86
   7   6 -13    0.24    1.12
   7   6 -12   65.63    4.37
   7   6 -12   63.10    4.35
   7   6 -11    6.47    1.41
   7   6 -11    8.62    1.45
   7   6 -11    4.72    1.12
   7   6 -10    7.17    1.49
   7   6 -10    8.17    1.42
   7   6 -10    6.94    1.35
   7   6 -10    8.64    1.36
   7   6 -10    9.64    1.56
   7   6  -9   96.51    6.58
   7   6  -9  104.66    6.42
   7   6  -9   99.40    6.40
   7   6  -9  109.39    6.78
   7   6  -9   89.57    6.14
   7   6  -8    7.34    1.59
   7   6  -8    5.82    1.40
   7   6  -8    8.46    1.67
   7   6  -8    8.58    1.56
   7   6  -8    7.45    1.52
   7   6  -8    7.71    1.62
   7   6  -8    6.95    1.29
   7   6  -7   42.24    3.72
   7   6  -7   39.01    3.47
   7   6  -7   41.93    3.89
   7   6  -7   41.56    3.87
   7   6  -7   38.62    3.54
   7   6  -7   44.49    3.55
   7   6  -7   42.83    3.80
   7   6  -7   37.85    3.65
   7   6  -7   34.03    3.18
   7   6  -6    0.98    0.92
   7   6  -6    1.62    0.93
   7   6  -6    1.38    0.94
   7   6  -6    0.86    0.68
   7   6  -6    0.42    0.81
   7   6  -6    0.49    0.79
   7   6  -6    0.20    0.86
   7   6  -6    1.29    0.88
   7   6  -6    0.76    0.85
   7   6  -6    0.86    0.92
   7   6  -5   40.37    3.69
   7   6  -5   42.10    3.57
   7   6  -5   41.62    4.05
   7   6  -5   41.66    3.88
   7   6  -5   34.07    3.77
   7   6  -5   39.21    3.52
   7   6  -5   41.04    3.44
   7   6  -5   46.35    4.10
   7   6  -5   40.84    3.81
   7   6  -5   41.64    3.82
   7   6  -4   15.66    2.11
   7   6  -4   15.43    1.99
   7   6  -4   17.50    2.29
   7   6  -4   17.46    2.50
   7   6  -4   12.73    2.24
   7   6  -4   13.18    1.88
   7   6  -4   15.44    1.95
   7   6  -4   13.68    2.12
   7   6  -4   17.77    2.36
   7   6  -3   64.32    4.49
   7   6  -3   57.60    4.61
   7   6  -3   63.88    5.18
   7   6  -3   62.18    5.13
   7   6  -3   48.37    4.11
   7   6  -3   52.57    4.62
   7   6  -3   63.07    5.13
   7   6  -3   58.19    4.27
   7   6  -3   57.97    4.66
   7   6  -3   64.87    4.65
   7   6  -3   53.47    4.33
   7   6  -2  780.30   36.95
   7   6  -2  723.90   37.15
   7   6  -2  776.30   38.15
   7   6  -2  649.02   36.53
   7   6  -2  727.00   37.65
   7   6  -2  775.72   38.08
   7   6  -2  760.19   37.34
   7   6  -2  826.28   37.17
   7   6  -2  764.66   36.93
   7   6  -1   18.12    2.34
   7   6  -1   19.84    2.22
   7   6  -1   16.59    2.07
   7   6  -1   20.83    2.28
   7   6  -1   16.54    2.54
   7   6  -1   18.25    2.52
   7   6  -1   19.38    2.68
   7   6  -1   19.57    2.28
   7   6  -1   20.58    2.30
   7   6   0   25.19    2.70
   7   6   0   26.23    2.72
   7   6   0   29.44    3.34
   7   6   0   31.03    3.33
   7   6   0   32.39    3.40
   7   6   0   31.24    2.89
   7   6   0   32.61    2.79
   7   6   1    0.12    0.56
   7   6   1    0.58    0.69
   7   6   1    0.20    0.58
   7   6   1    0.23    0.81
   7   6   1    1.54    0.88
   7   6   1    0.43    0.71
   7   6   2    1.26    0.64
   7   6   2    0.89    0.76
   7   6   2    1.93    0.94
   7   6   2    0.68    0.76
   7   6   2    0.89    0.96
   7   6   2    1.45    0.84
   7   6   3   41.29    3.54
   7   6   3   40.46    4.01
   7   6   3   35.43    3.64
   7   6   3   43.44    3.48
   7   6   3   41.70    3.87
   7   6   3   44.08    3.26
   7   6   4   35.77    3.33
   7   6   4   30.42    3.40
   7   6   4   35.45    3.39
   7   6   4   34.00    3.18
   7   6   4   30.26    3.26
   7   6   4   33.91    2.79
   7   6   5  235.74   13.98
   7   6   5  250.81   14.44
   7   6   5  264.50   14.07
   7   6   5  245.44   14.44
   7   6   5  225.88   13.87
   7   6   5  264.58   13.27
   7   6   6   34.03    3.39
   7   6   6   30.18    3.09
   7   6   6   28.24    3.29
   7   6   6   31.63    3.46
   7   6   6   29.93    3.06
   7   6   6   28.71    2.62
   7   6   7   69.26    5.89
  -7  -6  -7   80.16    4.92
   7   6   7   82.06    5.76
   7   6   7   73.08    5.99
   7   6   7   85.97    6.36
   7   6   7   87.83    5.30
   7   6   8   21.40    2.90
  -7  -6  -8   23.34    2.14
   7   6   8   22.31    2.55
   7   6   8   25.49    3.06
   7   6   8   21.78    2.23
   7   6   9   59.99    5.27
  -7  -6  -9   60.95    4.12
   7   6   9   54.43    4.50
   7   6   9   59.40    5.10
   7   6   9   62.13    4.28
   7   6  10   77.91    6.40
  -7  -6 -10   79.88    5.15
   7   6  10   84.42    6.28
   7   6  10   75.56    5.15
   7   6  11    3.53    0.96
  -7  -6 -11    3.23    1.08
  -7  -6 -11    6.25    1.19
   7   6  11    3.35    1.16
  -7  -6 -12   46.23    3.86
  -7  -6 -12   50.38    3.83
  -7  -6 -12   52.70    4.57
   7   6  13    0.30    1.05
  -7  -6 -13   -0.28    0.67
  -7  -6 -13    0.22    0.90
   7   6  14   85.09    7.09
  -7  -6 -14   81.25    5.57
  -7  -6 -14   83.12    6.42
   7   6  15   54.79    5.40
  -7  -6 -15   50.75    4.72
   7   6  16   57.80    5.72
  -7  -6 -16   61.26    5.10
   7   6  17   12.38    2.50
  -7  -6 -17   11.34    1.99
   7   6  18   51.10    5.01
  -7  -6 -18   45.67    4.05
  -7  -6 -19   73.57    4.90
   7   6  19   57.00    3.85
   7   6  20    0.12    0.40
  -7  -6 -20   -0.37    0.59
  -7  -6 -21    0.18    0.42
   7   6  22    5.30    0.88
   7   7 -13   18.41    1.95
   7   7 -13   18.69    1.76
   7   7 -13   14.71    1.80
   7   7 -12    1.78    0.88
   7   7 -12    1.26    0.94
   7   7 -11   -0.44    0.91
   7   7 -11    0.80    0.81
   7   7 -11   -0.09    0.74
   7   7 -10   83.02    5.84
   7   7 -10   92.95    5.76
   7   7 -10   87.49    5.67
   7   7 -10   89.71    5.52
   7   7 -10   99.53    6.05
   7   7  -9    0.14    0.81
   7   7  -9    0.90    0.83
   7   7  -9    0.59    0.68
   7   7  -9    1.04    0.82
   7   7  -9   -0.32    0.81
   7   7  -8   63.95    5.06
   7   7  -8   71.22    5.10
   7   7  -8   72.70    5.33
   7   7  -8   76.73    5.25
   7   7  -8   77.63    5.45
   7   7  -7    0.44    0.86
   7   7  -7    0.14    0.74
   7   7  -7   -0.15    0.93
   7   7  -7    0.56    0.86
   7   7  -6    2.19    1.02
   7   7  -6    0.60    0.88
   7   7  -6    1.80    0.87
   7   7  -6    3.53    1.14
   7   7  -6    2.56    1.06
   7   7  -6    1.27    0.89
   7   7  -5   21.20    2.41
   7   7  -5   23.77    2.51
   7   7  -5   17.42    2.57
   7   7  -5   21.34    2.34
   7   7  -5   22.79    2.51
   7   7  -5   20.84    2.77
   7   7  -5   25.04    2.88
   7   7  -5   19.49    2.33
   7   7  -4   65.45    4.92
   7   7  -4   73.55    5.15
   7   7  -4   81.99    6.02
   7   7  -4   74.48    5.89
   7   7  -4   64.42    4.79
   7   7  -4   62.16    5.13
   7   7  -4   69.65    5.04
   7   7  -4   82.34    5.99
   7   7  -4   73.83    5.52
   7   7  -4   67.73    4.99
   7   7  -3  100.68    6.18
  -7  -7   3   91.63    6.27
   7   7  -3   98.89    7.06
   7   7  -3   79.73    5.64
   7   7  -3   83.65    6.39
   7   7  -3   87.75    6.01
   7   7  -3   95.59    6.57
   7   7  -3   98.51    6.13
   7   7  -3   88.27    5.89
   7   7  -2  310.86   16.46
  -7  -7   2  304.61   16.73
   7   7  -2  333.17   17.78
   7   7  -2  291.47   17.13
   7   7  -2  326.95   17.70
   7   7  -2  300.31   16.38
   7   7  -2  323.03   17.02
   7   7  -2  328.74   16.41
   7   7  -2  289.06   16.11
   7   7  -1  175.27   10.34
  -7  -7   1  178.15   10.75
   7   7  -1  188.66   11.68
   7   7  -1  180.58   11.32
   7   7  -1  196.52   11.65
   7   7  -1  184.73   10.84
   7   7  -1  194.80   10.29
   7   7  -1  173.29   10.14
   7   7   0   66.90    4.98
   7   7   0   66.69    5.80
   7   7   0   67.88    5.62
   7   7   0   71.97    5.79
   7   7   0   67.49    5.07
   7   7   0   67.17    4.57
   7   7   1    0.64    0.57
   7   7   1    0.32    0.78
   7   7   1    1.32    0.95
   7   7   1    1.26    1.01
   7   7   1    1.90    1.06
   7   7   1    0.95    0.95
   7   7   2   79.55    5.61
   7   7   2   77.26    6.27
   7   7   2   73.27    5.91
   7   7   2   79.00    6.28
   7   7   2   81.50    6.21
   7   7   2   78.44    4.96
   7   7   3   18.17    2.35
   7   7   3   23.97    3.06
   7   7   3   17.73    2.53
   7   7   3   21.27    2.74
   7   7   3   20.65    1.96
   7   7   4   75.16    5.82
   7   7   4   83.03    5.99
   7   7   4   98.16    6.96
   7   7   4   94.07    6.53
   7   7   4   86.16    6.47
   7   7   4   83.55    5.18
   7   7   5   18.44    2.51
   7   7   5   20.74    2.66
   7   7   5   21.87    2.91
   7   7   5   19.30    2.76
   7   7   5   20.17    2.66
   7   7   5   19.34    1.92
   7   7   6    2.89    0.80
   7   7   6    3.43    1.18
   7   7   6    2.72    1.15
   7   7   6    1.50    1.09
   7   7   6    3.99    1.42
   7   7   6    2.24    0.94
   7   7   7    2.35    0.79
   7   7   7    3.91    1.26
   7   7   7    4.15    1.32
   7   7   7    2.00    1.09
   7   7   7    2.52    1.26
   7   7   8   70.96    5.79
  -7  -7  -8   64.95    4.46
   7   7   8   72.43    5.57
   7   7   8   63.41    5.68
   7   7   8   73.10    5.98
   7   7   8   73.12    4.56
   7   7   9    4.58    0.94
   7   7   9    5.74    1.71
  -7  -7  -9    6.88    1.44
  -7  -7  -9    5.08    1.01
   7   7   9    4.98    1.49
   7   7   9    4.09    1.45
   7   7  10   30.92    3.72
  -7  -7 -10   26.97    2.83
  -7  -7 -10   26.88    2.47
   7   7  10   25.59    3.28
   7   7  10   26.57    3.34
   7   7  10   23.74    2.29
   7   7  11   99.60    7.59
  -7  -7 -11   91.42    6.18
  -7  -7 -11   97.53    5.93
   7   7  11   99.64    7.29
   7   7  11   82.57    5.60
   7   7  12    3.05    0.89
  -7  -7 -12    3.67    1.01
  -7  -7 -12    4.48    1.10
   7   7  13    3.13    0.90
  -7  -7 -13    4.67    1.14
  -7  -7 -13    5.75    1.49
   7   7  14    0.92    0.66
   7   7  14   -0.33    1.32
  -7  -7 -14    1.47    0.81
  -7  -7 -14    1.17    0.95
   7   7  15    3.44    0.92
  -7  -7 -15    5.63    1.42
   7   7  16    1.29    0.61
   7   7  16    1.00    1.45
  -7  -7 -16    0.75    0.84
  -7  -7 -17   41.98    3.72
   7   7  17   34.26    2.76
   7   7  18    2.25    0.65
   7   7  18    2.23    1.29
   7   7  19    5.01    1.44
  -7  -7 -22    0.42    0.30
   7   7  22    0.49    0.41
   7   8 -13    8.87    1.31
   7   8 -13    8.66    1.06
   7   8 -12    1.96    1.02
   7   8 -12    2.73    1.00
   7   8 -11   39.76    2.79
   7   8 -11   25.06    2.56
   7   8 -10    0.66    0.78
   7   8 -10    0.10    0.71
   7   8 -10    0.12    0.59
   7   8  -9   89.93    5.54
   7   8  -9   82.07    5.51
   7   8  -9   82.37    5.11
   7   8  -9   96.79    5.87
   7   8  -9   74.49    5.29
   7   8  -8    2.41    0.97
   7   8  -8    2.10    0.98
   7   8  -8    2.02    0.85
   7   8  -8    2.07    0.80
   7   8  -8    0.83    0.70
   7   8  -7    2.29    0.93
   7   8  -7    2.67    1.09
   7   8  -7    3.42    1.16
   7   8  -7    3.58    1.03
   7   8  -7    4.93    1.31
   7   8  -6  106.03    6.84
   7   8  -6  114.66    7.15
   7   8  -6  111.80    7.58
   7   8  -6  112.54    6.91
   7   8  -6  112.46    7.51
   7   8  -6  120.21    7.72
   7   8  -5   34.69    3.16
   7   8  -5   38.39    3.10
   7   8  -5   37.88    3.68
   7   8  -5   34.56    3.52
   7   8  -5   32.75    2.80
   7   8  -5   26.71    2.80
   7   8  -4   26.70    2.74
   7   8  -4   27.95    2.61
   7   8  -4   24.20    3.09
   7   8  -4   33.33    3.30
   7   8  -4   22.17    2.28
   7   8  -4   22.24    2.43
   7   8  -3    0.93    0.93
   7   8  -3    1.63    0.95
   7   8  -3   -0.41    0.85
   7   8  -3    0.38    0.71
   7   8  -3    0.83    0.80
   7   8  -3    0.11    0.62
   7   8  -2    9.10    1.72
   7   8  -2   12.19    1.79
  -7  -8   2   13.94    2.04
   7   8  -2   13.87    2.37
   7   8  -2   12.73    2.12
   7   8  -2   13.50    1.80
   7   8  -2   15.33    1.76
   7   8  -2   13.69    2.18
   7   8  -1   14.26    2.21
  -7  -8   1   19.84    2.45
   7   8  -1   25.03    3.19
   7   8  -1   21.83    2.86
   7   8  -1   22.24    2.98
   7   8  -1   19.85    2.16
   7   8  -1   20.65    2.58
   7   8  -1   18.60    2.04
   7   8   0    0.31    0.51
  -7  -8   0   -0.18    0.69
   7   8   0    0.97    0.81
   7   8   0    1.34    1.08
   7   8   0    0.74    1.03
   7   8   0    2.60    1.23
   7   8   0    0.19    0.79
  -7  -8  -1   33.95    3.34
   7   8   1   36.87    3.20
   7   8   1   33.53    3.91
   7   8   1   35.24    3.77
   7   8   1   37.53    3.96
   7   8   1   34.18    3.84
   7   8   1   32.99    3.33
   7   8   1   32.93    2.68
  -7  -8  -2   20.23    2.43
   7   8   2   21.42    2.31
   7   8   2   17.73    2.65
   7   8   2   17.91    2.88
   7   8   2   18.01    2.85
   7   8   2   17.96    2.82
   7   8   2   17.64    1.77
  -7  -8  -3   57.58    4.65
   7   8   3   58.77    4.44
   7   8   3   64.18    5.58
   7   8   3   65.10    5.35
   7   8   3   64.77    5.45
   7   8   3   52.81    3.74
   7   8   4    3.17    0.73
  -7  -8  -4    3.13    1.10
   7   8   4    4.13    1.08
   7   8   4    2.91    1.25
   7   8   4    2.24    1.18
   7   8   4    3.97    1.39
   7   8   5    0.57    0.45
   7   8   5    0.41    0.56
   7   8   5   -0.15    0.82
   7   8   5    0.24    0.81
   7   8   5    0.28    0.94
   7   8   5    0.82    1.06
   7   8   5    0.97    0.90
   7   8   6   60.28    4.95
   7   8   6   55.67    5.00
   7   8   6   62.25    5.58
   7   8   6   57.57    5.31
   7   8   6   51.20    4.79
   7   8   6   50.24    3.51
   7   8   7   37.25    3.89
  -7  -8  -7   35.87    3.47
   7   8   7   33.03    3.83
   7   8   7   41.52    4.41
   7   8   7   38.70    4.35
   7   8   7   38.29    3.93
   7   8   7   34.65    2.66
   7   8   8   16.86    2.60
  -7  -8  -8   12.14    1.99
   7   8   8   14.41    2.41
   7   8   8   12.13    2.43
   7   8   8   13.22    2.62
   7   8   8   14.19    1.50
   7   8   9   11.92    2.34
  -7  -8  -9   11.96    1.93
  -7  -8  -9   10.96    1.64
   7   8   9   12.52    2.47
   7   8   9   13.13    2.54
   7   8   9   13.18    1.44
   7   8  10   21.84    3.15
  -7  -8 -10   19.57    2.42
  -7  -8 -10   19.44    2.17
   7   8  10   18.94    3.00
   7   8  10   20.65    3.20
   7   8  10   19.55    1.85
   7   8  11    0.78    0.56
   7   8  11    1.56    1.26
  -7  -8 -11    1.02    0.73
  -7  -8 -11    1.15    0.83
   7   8  11    1.45    1.17
   7   8  11    1.78    1.14
   7   8  12    5.57    1.01
  -7  -8 -12    4.21    1.14
  -7  -8 -12    5.71    1.31
   7   8  12    3.70    1.57
   7   8  13   20.32    3.20
   7   8  13   25.86    2.25
   7   8  14    1.24    0.56
   7   8  14    0.71    1.37
   7   8  15   20.23    3.42
   7   8  15   14.16    1.49
   7   8  16    3.51    1.71
   7   8  17    7.29    2.03
   7   8  18    1.49    1.24
   7   8  19   39.79    3.68
  -7  -8 -19   35.12    3.05
  -7  -8 -20    3.82    0.95
  -7  -8 -21   62.26    3.92
   7   9 -12   20.38    1.92
   7   9 -11    1.06    0.76
   7   9 -10   31.43    2.46
   7   9 -10   35.29    2.59
   7   9  -9   -0.07    0.85
   7   9  -9    1.15    0.70
   7   9  -9   -0.42    0.60
   7   9  -9    0.50    0.59
   7   9  -8    4.58    1.14
   7   9  -8    8.40    1.43
   7   9  -8    5.87    1.16
   7   9  -8    7.89    1.48
   7   9  -7   63.60    4.33
   7   9  -7   64.94    4.60
   7   9  -7   68.83    4.80
   7   9  -6    9.79    1.57
   7   9  -6   13.29    1.89
   7   9  -6   11.91    1.97
   7   9  -6   15.79    2.11
   7   9  -6   17.62    2.32
   7   9  -5    2.07    0.95
   7   9  -5    1.77    0.90
   7   9  -5    2.09    0.99
   7   9  -5    2.25    1.02
   7   9  -5    1.81    0.78
   7   9  -5    1.01    0.90
   7   9  -4    0.69    0.96
   7   9  -4    1.73    0.87
   7   9  -4    2.52    1.23
   7   9  -4    0.68    0.92
   7   9  -4    2.55    0.74
   7   9  -4    1.05    0.94
   7   9  -3   -0.10    1.18
   7   9  -3    3.29    0.94
   7   9  -3    2.46    1.26
   7   9  -3    3.28    0.82
   7   9  -3    3.45    1.21
  -7  -9   2   12.05    1.89
   7   9  -2   10.86    2.07
   7   9  -2   12.83    1.56
   7   9  -2   15.80    2.30
  -7  -9   1    7.13    1.54
   7   9  -1   11.99    2.26
   7   9  -1    5.16    1.69
   7   9  -1   10.50    2.20
   7   9  -1    7.96    1.24
   7   9  -1    7.94    1.73
  -7  -9   0  236.56   14.04
   7   9   0  272.01   15.42
   7   9   0  242.84   14.82
   7   9   0  241.34   14.93
   7   9   0  240.36   13.07
   7   9   0  271.09   15.36
   7   9   0  272.90   14.62
  -7  -9  -1   38.00    3.63
   7   9   1   43.81    4.53
   7   9   1   36.92    4.04
   7   9   1   32.44    3.90
   7   9   1   33.42    4.04
   7   9   1   33.08    2.82
   7   9   1   36.11    3.64
  -7  -9  -2   18.71    2.45
   7   9   2   18.03    2.00
   7   9   2   16.56    2.65
   7   9   2   20.80    3.06
   7   9   2   23.71    3.29
   7   9   2   23.24    3.29
  -7  -9  -3   34.97    3.48
   7   9   3   33.06    2.92
   7   9   3   40.95    4.49
   7   9   3   39.21    4.17
   7   9   3   38.58    4.32
   7   9   3   34.37    4.05
  -7  -9  -4   20.93    2.55
   7   9   4   20.51    2.18
   7   9   4   21.02    3.03
   7   9   4   24.72    3.43
   7   9   4   22.20    3.18
   7   9   5   27.36    3.12
  -7  -9  -5   27.59    3.05
   7   9   5   27.05    2.58
   7   9   5   26.56    3.49
   7   9   5   34.03    4.12
   7   9   6   15.26    2.44
   7   9   6   15.56    1.91
   7   9   6   20.13    2.85
   7   9   6   14.12    2.77
   7   9   6   13.39    2.63
   7   9   7   39.42    4.25
  -7  -9  -7   46.59    3.96
   7   9   7   41.41    3.36
   7   9   7   38.26    4.38
   7   9   7   38.87    4.74
   7   9   7   42.03    4.81
   7   9   8   25.17    3.40
  -7  -9  -8   26.51    2.95
   7   9   8   28.72    3.67
   7   9   8   21.90    3.65
   7   9   8   36.75    4.26
   7   9   8   24.61    3.35
   7   9   9   10.09    2.22
  -7  -9  -9   10.09    1.77
   7   9   9   11.08    2.59
   7   9   9   10.91    2.44
   7   9  10    0.95    1.17
  -7  -9 -10    0.37    0.68
   7   9  10    1.35    1.19
   7   9  10    0.34    1.12
   7   9  11   23.10    3.54
  -7  -9 -11   15.13    2.19
  -7  -9 -11   21.76    2.20
   7   9  11   18.51    3.23
   7   9  11   12.64    2.71
   7   9  12   29.58    4.05
  -7  -9 -12   22.25    2.67
  -7  -9 -12   23.46    2.54
   7   9  12   29.50    3.96
   7   9  13   63.68    6.18
   7   9  14    9.53    2.25
   7   9  15   46.50    5.06
  -7  -9 -15   41.95    3.57
   7   9  16    5.41    1.88
  -7  -9 -16    4.15    1.18
   7   9  17    8.56    1.99
  -7  -9 -17    6.50    1.34
   7   9  18   96.63    6.68
  -7  -9 -18   82.61    5.60
   7   9  19    0.49    0.72
  -7  -9 -19    0.31    0.52
   7   9  20   23.57    2.28
  -7  -9 -20   23.92    2.10
  -7  -9 -21    0.16    0.28
   7  10 -10    0.17    0.67
   7  10 -10    0.78    0.47
   7  10  -9   15.92    1.54
   7  10  -9   12.65    1.59
   7  10  -8   59.30    3.95
   7  10  -8   59.61    4.12
   7  10  -8   61.07    4.37
   7  10  -7    1.51    0.72
   7  10  -7    2.45    0.91
   7  10  -7    1.37    0.87
   7  10  -6    6.99    1.25
   7  10  -6    8.69    1.56
   7  10  -6    9.37    1.53
   7  10  -6    8.68    1.64
   7  10  -5   31.81    2.82
   7  10  -5   31.93    3.37
   7  10  -5   39.25    3.51
   7  10  -5   36.24    3.55
   7  10  -4    0.93    0.74
   7  10  -4    1.94    1.10
   7  10  -4    0.64    0.79
   7  10  -4    0.82    0.86
   7  10  -3    5.71    1.53
   7  10  -3    3.56    1.25
   7  10  -3    1.30    1.11
   7  10  -2    5.94    1.57
   7  10  -2    5.78    1.59
   7  10  -1   76.56    6.09
  -7 -10   0   63.43    5.34
   7  10   0   61.64    5.80
   7  10   0   80.39    6.53
   7  10   0   74.02    5.76
  -7 -10  -1  109.58    7.33
   7  10   1  121.71    8.60
   7  10   1   95.94    7.85
   7  10   1  103.43    8.05
   7  10   1   95.58    7.31
  -7 -10  -2    3.56    1.20
   7  10   2    5.84    1.67
   7  10   2    5.08    1.71
   7  10   2    2.72    1.36
   7  10   2    5.70    1.78
   7  10   2    4.42    1.34
  -7 -10  -3   49.43    4.37
   7  10   3   55.67    5.63
   7  10   3   46.82    4.98
   7  10   3   46.85    5.12
   7  10   3   50.80    5.24
   7  10   4    0.31    0.84
   7  10   4    1.02    1.14
  -7 -10  -4    0.20    0.67
   7  10   5    1.08    0.81
  -7 -10  -5    2.59    1.14
   7  10   5    3.46    1.49
   7  10   5    2.10    1.36
   7  10   6   37.29    3.97
   7  10   6   36.89    4.50
   7  10   6   37.40    4.78
   7  10   6   33.70    4.41
   7  10   7    9.91    2.07
  -7 -10  -7   11.78    1.94
   7  10   7    8.81    2.28
   7  10   7    7.37    2.40
   7  10   7    8.48    2.20
   7  10   8    8.43    2.13
  -7 -10  -8    8.17    1.68
   7  10   8    6.29    2.02
   7  10   8    8.25    2.39
   7  10   8    5.78    2.00
   7  10   9    3.12    1.60
  -7 -10  -9    2.78    1.11
   7  10   9    3.29    0.84
   7  10   9    1.34    1.36
   7  10   9    2.27    1.53
   7  10   9    4.17    1.78
   7  10  10   76.25    6.91
  -7 -10 -10   74.80    5.77
   7  10  10   74.95    7.30
   7  10  10   74.30    6.92
   7  10  11    1.03    1.43
   7  10  11   -0.70    1.29
   7  10  12   81.39    7.01
   7  10  12   65.47    6.47
   7  10  13    4.54    1.98
   7  10  13    1.47    1.09
  -7 -10 -14   35.95    3.18
   7  10  14   25.90    3.59
   7  10  15   10.66    2.34
   7  10  15    6.75    1.83
  -7 -10 -15   11.82    1.72
   7  10  16    0.50    0.96
   7  10  16    0.73    0.71
  -7 -10 -16    1.48    0.74
   7  10  17   81.87    6.12
  -7 -10 -17   75.71    5.16
   7  10  18    1.23    0.96
  -7 -10 -18    0.83    0.61
   7  10  19   18.45    2.10
  -7 -10 -19   14.86    1.60
   7  10  20    5.58    0.99
  -7 -10 -20    3.97    0.71
   7  11  -9   10.18    1.27
   7  11  -8    6.33    0.87
   7  11  -8    6.79    1.18
   7  11  -7   46.89    3.03
   7  11  -7   43.64    3.41
   7  11  -6    3.95    0.76
   7  11  -6    4.76    1.13
   7  11  -6    4.06    1.00
   7  11  -6    5.59    1.28
   7  11  -5    9.20    1.24
   7  11  -5   13.50    1.99
   7  11  -5   11.08    1.77
   7  11  -5   15.04    2.05
   7  11  -4    6.87    1.51
   7  11  -4    6.29    1.47
   7  11  -4    5.33    1.50
   7  11  -3    2.68    1.13
   7  11  -3    4.62    1.36
   7  11  -3    4.53    1.51
   7  11  -2   10.23    2.10
   7  11  -2   12.56    2.25
   7  11  -2   14.54    2.34
   7  11  -1    5.75    1.77
   7  11  -1    4.93    1.60
   7  11   0   44.05    4.89
   7  11   0   43.18    4.47
   7  11   1    6.35    1.89
   7  11   1    4.06    1.44
   7  11   2   36.45    4.42
   7  11   2   33.12    3.62
   7  11   3    1.06    1.18
   7  11   3    2.26    1.53
  -7 -11  -4   80.10    6.17
   7  11   4   81.69    7.59
   7  11   4   81.37    7.28
  -7 -11  -5   28.17    3.37
   7  11   5   36.46    4.50
   7  11   5   35.11    4.84
   7  11   6    6.08    1.81
   7  11   6    6.12    2.03
   7  11   6   11.05    2.66
   7  11   7    1.09    1.05
   7  11   7    3.15    1.70
   7  11   8   42.91    4.72
   7  11   8   49.71    5.64
   7  11   9   45.86    4.73
   7  11   9   39.33    5.05
   7  11  10    1.46    1.31
   7  11  10    1.01    1.40
   7  11  11   64.71    5.88
   7  11  11   61.13    6.03
   7  11  12    9.55    2.19
   7  11  12    5.48    1.93
   7  11  13   13.91    2.59
   7  11  13    9.91    2.30
   7  11  14    3.24    1.48
  -7 -11 -14    6.95    1.32
  -7 -11 -15   14.52    1.82
   7  11  15   13.07    2.19
   7  11  16   10.71    1.93
  -7 -11 -16   11.49    1.52
   7  11  16    8.72    1.68
   7  11  17   -0.35    0.75
   7  11  17    0.36    0.48
  -7 -11 -17   -0.38    0.51
   7  11  18   61.69    4.20
  -7 -11 -18   43.28    3.29
   7  11  19    2.38    0.77
  -7 -11 -19    2.39    0.51
   7  12  -8   10.80    1.16
   7  12  -7    6.76    1.08
   7  12  -6    0.46    0.63
   7  12  -5    3.98    0.90
   7  12  -5    3.58    0.93
   7  12  -5    3.60    1.06
   7  12  -4   41.81    3.65
   7  12  -4   41.51    3.67
   7  12  -4   43.96    3.76
   7  12  -3   -0.20    0.77
   7  12  -3    0.19    0.81
   7  12  -3    0.52    0.94
   7  12  -2   32.48    3.70
   7  12  -2   29.04    3.45
   7  12  -2   35.44    3.46
   7  12  -1    2.87    1.30
   7  12  -1    1.68    1.00
   7  12   0   30.90    3.78
   7  12   0   23.00    2.86
   7  12   1    8.54    2.18
   7  12   1   10.40    2.33
   7  12   1    8.07    1.61
   7  12   2   19.48    3.52
   7  12   2   15.78    2.31
   7  12   3   65.37    6.39
   7  12   4   19.80    3.28
   7  12   5   73.47    7.02
   7  12   6    3.43    1.72
   7  12   7    1.76    1.07
   7  12   7    4.65    1.74
   7  12   8   20.65    2.88
   7  12   8   19.43    3.35
   7  12   9    0.70    0.91
   7  12   9    0.61    1.22
   7  12  10  133.75    8.73
   7  12  10  132.85    9.39
   7  12  10  107.93    7.96
   7  12  11    0.92    0.93
   7  12  11    1.59    1.22
   7  12  12    1.34    1.12
   7  12  12    3.42    1.44
   7  12  13   43.04    4.09
  -7 -12 -13   38.92    3.11
   7  12  13   32.87    3.82
   7  12  14    0.99    0.96
   7  12  14    2.33    1.08
  -7 -12 -14    0.96    0.58
  -7 -12 -15   12.39    1.52
   7  12  15    8.76    1.74
   7  12  16    0.53    0.53
  -7 -12 -16    0.33    0.42
  -7 -12 -17   13.40    1.39
   7  12  17    6.63    1.30
   7  12  18    5.09    1.02
   7  13  -5   16.71    1.61
   7  13  -4    2.69    0.74
   7  13  -4    3.41    0.83
   7  13  -3    3.88    0.84
   7  13  -3    2.31    0.94
   7  13  -3    4.51    0.92
   7  13  -2    1.70    0.75
   7  13  -2    2.75    1.04
   7  13  -2    1.94    0.71
   7  13  -1    5.25    1.26
   7  13  -1    1.80    0.93
   7  13  -1    3.62    0.95
   7  13   0   19.74    2.58
   7  13   0   21.15    2.27
   7  13   1    7.85    1.74
   7  13   1    4.36    1.10
   7  13   2   81.78    6.43
   7  13   2   71.76    6.21
   7  13   3    1.25    1.04
   7  13   3    0.25    1.08
   7  13   4    0.26    1.00
   7  13   4    0.99    1.03
   7  13   5   73.76    6.14
   7  13   6    8.99    1.95
   7  13   7   34.65    4.03
   7  13   8   17.45    2.72
   7  13   8   15.95    2.42
   7  13   9   78.92    5.93
   7  13   9   90.01    6.98
   7  13   9   80.69    6.03
   7  13  10   69.73    5.05
   7  13  10   66.97    5.55
   7  13  11    8.57    1.60
   7  13  11    8.48    1.85
   7  13  11    6.26    1.22
   7  13  12   35.44    3.28
  -7 -13 -12   26.74    2.42
   7  13  12   30.60    3.35
   7  13  13    5.37    1.27
   7  13  13    3.50    1.17
  -7 -13 -13    3.45    0.85
  -7 -13 -14   49.65    3.67
   7  13  14   56.68    4.53
   7  13  15    1.82    0.82
   7  13  15    1.25    0.72
   7  13  16    9.74    1.44
   7  14  -2    0.76    0.40
   7  14  -1   11.95    1.48
   7  14  -1    6.79    0.95
   7  14   0   25.64    2.10
   7  14   0   23.39    2.34
   7  14   1   22.64    2.30
   7  14   2    4.01    1.09
   7  14   2    5.11    1.24
   7  14   3   20.86    2.51
   7  14   3   25.41    2.78
   7  14   4   31.87    3.22
   7  14   4   27.25    3.06
   7  14   5    5.09    1.36
   7  14   5    4.91    1.29
   7  14   6   45.62    4.26
   7  14   6   45.10    3.98
   7  14   7   51.48    4.27
   7  14   8    2.15    0.92
   7  14   9   22.47    2.83
   7  14   9   22.21    2.33
   7  14  10    5.97    1.40
   7  14  10    3.89    0.89
   7  14  11   17.61    2.00
   7  14  11   17.30    2.38
   7  14  12    1.71    0.67
   7  14  12    1.40    0.80
   7  14  13   37.21    2.89
   7  14  13   29.91    2.97
   7  14  14    0.09    0.42
   7  14  14   -0.30    0.53
   7  14  15   10.10    1.30
   7  14  15    6.83    1.17
   7  15   1   -0.07    0.39
   7  15   3   16.15    1.64
   7  15   3   18.16    1.88
   7  15   4    0.25    0.36
   7  15   4    0.50    0.47
   7  15   5   29.38    2.52
   7  15   5   29.25    2.58
   7  15   6    2.77    0.83
   7  15   6    2.61    0.78
   7  15   7    8.65    1.34
   7  15   7    8.40    1.26
   7  15   8    0.54    0.56
   7  15   8   -0.08    0.40
   7  15   9    1.57    0.54
   7  15  11    1.71    0.64
   7  15  12   19.68    1.95
   8  -7  -4   57.14    3.46
   8  -7  -3    0.89    0.46
  -8   7   3   -0.26    0.38
  -8   7   2   17.96    1.64
  -8   7   1   26.99    2.09
   8  -7  -1   24.74    2.01
   8  -7   0    0.61    0.50
  -8   7   0    0.21    0.41
  -8   7  -1   59.67    4.10
   8  -7   1   75.45    4.08
  -8   7  -3   52.93    3.39
  -8   7  -4    8.78    1.03
   8  -7   5    0.95    0.37
   8  -6  -7   22.48    1.84
   8  -6  -6    4.39    0.85
  -8   6   5   32.78    2.47
   8  -6  -5   44.15    2.92
  -8   6   4   27.31    2.28
   8  -6  -4   34.67    2.56
  -8   6   3   26.17    2.26
  -8   6   2    6.09    1.06
   8  -6  -2    4.81    1.23
   8  -6  -2    7.13    1.13
  -8   6   1    0.29    0.52
   8  -6  -1    0.79    0.77
   8  -6  -1    0.37    0.60
  -8   6   0   84.52    5.46
   8  -6   0   94.09    5.43
  -8   6  -1    0.40    0.50
   8  -6   1    1.35    0.76
   8  -6   2    1.01    0.71
  -8   6  -3   -0.10    0.45
   8  -6   3   -0.49    0.75
  -8   6  -4   28.64    2.47
   8  -6   4   27.36    2.93
   8  -6   4   30.36    2.33
  -8   6  -5   52.83    3.72
  -8   6  -5   56.20    3.52
   8  -6   5   61.17    3.64
   8  -6   5   54.06    3.37
   8  -6   6    3.68    0.61
   8  -6   6    4.82    0.76
  -8   6  -6    3.57    0.69
  -8   6  -6    2.81    0.68
  -8   6  -7   21.01    1.70
   8  -6   7   20.13    1.62
   8  -6   7   20.45    1.60
   8  -6   8    1.32    0.39
   8  -6   8    1.59    0.43
  -8   6  -8    0.94    0.42
   8  -5  -9    0.12    0.45
   8  -5  -8   36.26    2.52
   8  -5  -8   53.55    3.23
   8  -5  -7    4.62    0.77
   8  -5  -7    6.84    1.14
   8  -5  -6    2.06    0.51
   8  -5  -6    1.68    0.70
  -8   5   6    1.06    0.46
   8  -5  -5   11.89    1.24
  -8   5   5   11.86    1.36
   8  -5  -5   15.02    1.68
  -8   5   4    6.65    1.15
   8  -5  -4    6.89    0.93
   8  -5  -4    7.16    1.39
   8  -5  -3   45.33    3.15
   8  -5  -3   48.36    4.38
   8  -5  -2    2.00    0.61
   8  -5  -2    3.60    1.26
   8  -5  -2    1.97    0.87
   8  -5  -1  118.17    6.66
   8  -5  -1  143.41    8.86
   8  -5   0    0.77    0.49
   8  -5   1   34.21    2.50
   8  -5   1   45.25    4.42
   8  -5   2   39.95    2.83
   8  -5   2   51.80    4.78
   8  -5   2   50.72    3.48
   8  -5   3   25.24    3.11
   8  -5   3   19.91    1.92
   8  -5   4   17.37    2.63
   8  -5   4   16.32    1.76
   8  -5   4   14.74    1.57
   8  -5   5    0.44    0.50
   8  -5   5   -0.22    0.83
   8  -5   5    1.53    0.68
  -8   5  -6  119.73    7.32
   8  -5   6  127.20    8.58
   8  -5   6  138.92    7.27
   8  -5   6  126.21    7.15
  -8   5  -7    0.27    0.44
   8  -5   7    0.26    0.44
   8  -5   7   -0.35    0.55
  -8   5  -8   18.11    1.79
   8  -5   8   15.16    1.46
   8  -5   8   15.58    1.58
  -8   5  -9   22.75    2.00
   8  -5   9   21.67    1.75
   8  -5   9   22.66    1.88
   8  -5  10    2.49    0.60
  -8   5 -10    3.90    0.73
  -8   5 -11   79.39    4.82
   8  -5  11   90.09    4.74
   8  -4 -11   14.85    1.43
   8  -4 -10    0.91    0.50
   8  -4 -10    0.50    0.56
   8  -4  -9   33.73    2.56
   8  -4  -9   40.00    2.89
   8  -4  -8    8.16    1.12
   8  -4  -8    8.44    1.37
   8  -4  -7   61.73    4.04
   8  -4  -7   69.97    4.58
  -8   4   6    6.62    1.11
   8  -4  -6   11.55    1.32
   8  -4  -6   10.00    1.54
   8  -4  -5    1.09    0.60
   8  -4  -5    0.66    0.66
   8  -4  -4   74.05    4.50
   8  -4  -4   59.86    5.36
   8  -4  -4   75.24    5.01
   8  -4  -3    8.20    1.22
   8  -4  -3    7.02    1.71
   8  -4  -3    7.96    1.44
   8  -4  -2  110.67    6.41
   8  -4  -2  112.82    8.25
   8  -4  -1   14.13    1.57
   8  -4  -1   11.45    2.49
   8  -4   0   65.85    4.28
   8  -4   1   16.82    1.81
   8  -4   1   19.92    3.17
   8  -4   1   20.77    2.22
   8  -4   2   13.85    1.61
   8  -4   2   13.98    2.76
   8  -4   2   13.56    1.77
   8  -4   3   74.90    4.64
   8  -4   3   92.39    7.28
   8  -4   3   80.32    5.05
   8  -4   3   63.28    4.59
   8  -4   4    1.47    0.66
   8  -4   4    0.78    0.61
   8  -4   4    1.49    1.15
   8  -4   4    0.72    0.63
   8  -4   5   52.00    3.55
   8  -4   5   64.87    5.65
   8  -4   5   56.74    3.93
   8  -4   5   51.29    3.90
   8  -4   6    3.41    0.98
   8  -4   6    3.11    0.73
   8  -4   6    4.04    1.42
   8  -4   6    4.45    1.05
   8  -4   7   16.21    2.46
   8  -4   7   16.66    1.83
   8  -4   8   25.02    2.94
   8  -4   8   28.90    2.46
   8  -4   9   17.67    1.69
   8  -4   9   15.80    1.73
  -8   4 -10   44.25    3.31
   8  -4  10   38.85    2.97
   8  -4  11   -0.34    0.50
  -8   4 -11    0.19    0.59
   8  -4  12   46.05    3.05
   8  -3 -12   25.73    1.93
   8  -3 -12   24.71    1.99
   8  -3 -11    0.79    0.53
   8  -3 -11    0.81    0.50
   8  -3 -11    1.75    0.61
   8  -3 -10   63.61    4.02
   8  -3 -10   59.85    4.32
   8  -3 -10   67.84    4.33
   8  -3  -9    2.75    0.80
   8  -3  -9    1.13    0.77
   8  -3  -9    2.24    0.96
   8  -3  -8   71.18    4.60
   8  -3  -8   76.55    5.04
   8  -3  -7   -0.47    0.64
   8  -3  -7    0.27    0.70
   8  -3  -6    8.32    1.27
   8  -3  -6   10.98    1.66
   8  -3  -5   75.90    4.63
   8  -3  -5   59.31    5.33
   8  -3  -4    7.24    1.22
   8  -3  -4    2.60    1.31
   8  -3  -3   46.56    3.41
   8  -3  -3   38.65    4.49
   8  -3  -2    4.90    1.07
   8  -3  -2    6.29    1.90
   8  -3  -1   17.14    1.86
   8  -3  -1   15.56    3.00
   8  -3  -1   12.77    1.94
   8  -3   0   26.00    2.50
   8  -3   0   27.00    2.77
   8  -3   1   21.77    2.18
   8  -3   1   18.99    2.34
   8  -3   2   75.02    4.65
   8  -3   2   66.50    4.83
   8  -3   2   57.62    4.36
   8  -3   3   34.07    2.74
   8  -3   3   33.06    2.99
   8  -3   3   28.06    2.73
   8  -3   4   11.48    1.62
   8  -3   4   14.98    2.70
   8  -3   4   12.48    1.75
   8  -3   5    9.15    1.43
   8  -3   5    7.59    1.41
   8  -3   6   69.86    4.70
   8  -3   6   62.91    5.80
   8  -3   7  121.80    7.53
   8  -3   7  142.98    9.09
   8  -3   8   14.32    1.77
   8  -3   8   14.45    2.25
   8  -3   9    4.27    0.99
   8  -3  10    6.65    1.15
   8  -3  11   62.09    4.16
   8  -3  12    3.88    0.85
  -8   3 -13    1.85    0.83
  -8   3 -14   11.21    1.51
  -8   3 -15    1.60    0.57
  -8   3 -15    2.61    0.60
   8  -2 -13   19.31    1.59
   8  -2 -13   16.62    1.52
   8  -2 -12   11.69    1.31
   8  -2 -12    9.70    1.38
   8  -2 -12   12.68    1.40
   8  -2 -11   16.15    1.62
   8  -2 -11   15.64    1.91
   8  -2 -11   17.75    1.86
   8  -2 -10   -0.52    0.52
   8  -2 -10    0.58    0.74
   8  -2 -10    0.35    0.69
   8  -2  -9  110.96    6.39
   8  -2  -9   97.05    7.05
   8  -2  -9  118.68    6.94
   8  -2  -8   20.91    2.04
   8  -2  -8   15.93    2.45
   8  -2  -8   19.99    2.34
   8  -2  -7   15.64    1.76
   8  -2  -7   13.91    2.21
   8  -2  -7   13.80    2.05
   8  -2  -7   10.91    1.38
   8  -2  -6   51.56    3.58
   8  -2  -6   45.58    4.45
   8  -2  -6   52.46    4.14
   8  -2  -6   39.29    3.17
   8  -2  -5    6.65    1.15
   8  -2  -5    7.25    1.27
   8  -2  -4   24.98    2.36
   8  -2  -4   26.21    3.38
   8  -2  -4   21.07    2.11
   8  -2  -3    0.89    0.61
   8  -2  -3    0.12    0.66
   8  -2  -3    1.54    1.14
   8  -2  -2   45.94    3.54
   8  -2  -2   40.28    5.01
   8  -2  -2   47.95    3.96
   8  -2  -2   44.18    3.27
   8  -2  -1   35.60    2.99
   8  -2  -1   34.62    4.40
   8  -2  -1   29.81    3.11
   8  -2  -1   32.62    2.64
   8  -2   0    4.56    0.95
   8  -2   0    3.67    1.07
   8  -2   0    1.98    1.33
   8  -2   0    2.14    1.06
   8  -2   1  138.55    8.53
   8  -2   1  134.00    7.69
  -8   2  -1  117.94    8.47
   8  -2   2    3.97    0.90
   8  -2   2    6.67    1.85
   8  -2   2    3.82    1.52
   8  -2   2    6.29    1.39
   8  -2   3  219.96   13.56
   8  -2   3  190.27   11.42
   8  -2   3  196.07   10.76
   8  -2   3  204.54   11.14
   8  -2   4    3.20    0.79
   8  -2   4    2.44    0.79
   8  -2   4    4.16    1.49
   8  -2   4    3.88    1.42
   8  -2   4    2.97    1.04
   8  -2   5    0.36    0.48
   8  -2   5   -0.13    0.67
   8  -2   5    0.28    0.90
   8  -2   5    0.72    0.77
   8  -2   6    0.36    0.45
   8  -2   6    0.27    0.90
   8  -2   7    6.08    1.02
   8  -2   7    7.51    1.85
   8  -2   8   40.74    3.99
   8  -2   8   37.75    2.81
   8  -2   9    0.34    0.55
   8  -2  10    5.20    0.92
   8  -2  11   17.23    1.60
   8  -2  12   -0.27    0.48
  -8   2 -12    0.15    0.88
  -8   2 -13   42.25    3.46
   8  -2  13   36.25    2.48
  -8   2 -14   14.26    1.70
   8  -2  14   11.67    1.10
  -8   2 -15   12.82    1.45
  -8   2 -16    2.58    0.75
   8  -2  16    2.80    0.59
  -8   2 -16    2.03    0.52
   8  -1 -13    1.50    0.55
   8  -1 -13    1.10    0.51
   8  -1 -13    0.83    0.55
   8  -1 -12    8.82    1.15
   8  -1 -12    6.39    1.25
   8  -1 -12    9.11    1.24
   8  -1 -11    0.51    0.60
   8  -1 -11    1.19    0.80
   8  -1 -11    1.59    0.78
   8  -1 -10   35.40    2.67
   8  -1 -10   32.64    3.33
   8  -1 -10   35.94    3.05
   8  -1 -10   25.75    2.15
   8  -1  -9    0.41    0.72
   8  -1  -9    1.27    1.11
   8  -1  -9    1.22    0.90
   8  -1  -9    1.42    0.56
   8  -1  -8    2.39    0.91
   8  -1  -8    2.59    1.29
   8  -1  -8    1.67    1.07
   8  -1  -8    2.28    0.72
   8  -1  -8    2.26    0.77
   8  -1  -7  118.91    6.66
   8  -1  -7  113.58    7.95
   8  -1  -7  108.31    6.31
   8  -1  -7   98.04    6.35
   8  -1  -6    8.72    1.37
   8  -1  -6   11.33    1.54
   8  -1  -6    7.50    1.81
   8  -1  -6   10.13    1.38
   8  -1  -5   27.34    2.50
   8  -1  -5   23.78    3.01
   8  -1  -5   22.58    2.17
   8  -1  -5   27.24    2.44
   8  -1  -4    0.68    0.67
   8  -1  -4   -0.49    0.74
   8  -1  -4    0.20    0.74
   8  -1  -4    1.45    1.12
   8  -1  -4    0.85    0.58
   8  -1  -3   10.01    1.43
   8  -1  -3   10.20    1.61
   8  -1  -3   11.09    2.40
   8  -1  -3   11.32    2.31
   8  -1  -3    8.15    1.22
   8  -1  -3   10.10    1.85
  -8   1   2   15.48    2.11
   8  -1  -2   23.50    2.31
   8  -1  -2   23.44    3.37
   8  -1  -2   23.13    3.33
   8  -1  -2   14.88    1.66
   8  -1  -2   15.29    2.34
   8  -1  -2   18.11    1.92
   8  -1  -1    6.31    1.21
   8  -1  -1    7.78    1.40
   8  -1  -1    6.42    1.89
   8  -1  -1    6.15    1.94
   8  -1  -1    7.29    1.13
   8  -1  -1    7.60    1.59
  -8   1   1    6.62    1.42
  -8   1   0  121.33    8.40
   8  -1   0  140.71    8.09
   8  -1   0  156.32   10.29
   8  -1   0  146.29   10.09
   8  -1   0  127.77    7.56
   8  -1   0  144.94    8.79
   8  -1   0  143.01    7.82
  -8   1  -1   68.70    5.32
   8  -1   1   72.32    5.39
   8  -1   1   74.67    4.70
   8  -1   2   13.02    2.67
   8  -1   2   12.74    2.47
   8  -1   2   13.88    2.15
   8  -1   2   14.33    1.65
   8  -1   3   24.39    3.44
   8  -1   3   24.12    3.44
   8  -1   3   22.45    2.58
   8  -1   3   24.56    2.22
   8  -1   4    7.20    1.18
   8  -1   4    8.08    1.25
   8  -1   4    8.51    2.00
   8  -1   4    7.67    1.90
   8  -1   4    5.32    1.41
  -8   1  -4    5.42    1.32
  -8   1  -5   90.85    6.67
   8  -1   5  114.87    8.04
   8  -1   5  107.31    7.86
   8  -1   5   94.69    6.49
   8  -1   5  104.43    6.11
   8  -1   6   16.95    2.62
   8  -1   6   15.49    2.52
  -8   1  -6   12.77    1.95
   8  -1   6   16.68    1.77
  -8   1  -7   74.29    5.60
   8  -1   7   90.49    6.66
   8  -1   7   76.88    6.30
   8  -1   7   71.08    5.04
   8  -1   7   83.97    5.06
   8  -1   8    7.16    1.17
   8  -1   8    8.19    1.78
   8  -1   8    7.01    1.30
   8  -1   9   28.94    2.67
   8  -1   9   29.69    2.52
   8  -1  10   20.54    2.23
   8  -1  10   23.63    2.14
   8  -1  11   91.43    5.78
   8  -1  11   87.18    5.40
   8  -1  12   14.82    1.79
   8  -1  12   15.54    1.65
  -8   1 -13   43.22    3.56
   8  -1  13   43.87    3.31
   8  -1  13   40.86    2.97
  -8   1 -14   19.77    2.07
   8  -1  14   18.35    1.88
   8  -1  14   17.39    1.62
   8  -1  15    1.08    0.52
  -8   1 -15    1.47    0.68
   8  -1  16    0.85    0.41
  -8   1 -16    0.73    0.46
   8  -1  17   11.16    0.94
   8   0 -14    7.19    1.01
   8   0 -13   13.55    1.65
   8   0 -13   16.48    1.61
   8   0 -12    0.83    0.73
   8   0 -12    0.93    0.66
   8   0 -11    4.65    1.28
   8   0 -11    2.73    1.00
   8   0 -11    1.93    0.68
   8   0 -10   14.53    2.35
   8   0 -10   14.47    2.03
   8   0 -10   12.56    1.47
   8   0  -9    0.23    0.96
   8   0  -9    1.26    0.74
   8   0  -9    0.76    0.67
   8   0  -8  196.72   11.71
   8   0  -8  182.14   10.00
   8   0  -8  180.93   10.11
   8   0  -7    1.17    1.11
   8   0  -7    3.55    0.94
   8   0  -7    0.77    0.87
   8   0  -7    3.17    0.97
   8   0  -6   19.95    2.79
   8   0  -6   23.08    2.99
   8   0  -6   20.64    2.06
   8   0  -6   20.40    2.45
   8   0  -6   15.51    2.03
   8   0  -5    0.25    0.70
   8   0  -5   -0.21    0.72
   8   0  -5    0.88    1.04
   8   0  -5    0.21    0.69
   8   0  -5   -0.16    0.78
   8   0  -4    1.33    0.78
   8   0  -4    0.50    0.80
   8   0  -4    1.00    0.84
   8   0  -4    3.02    1.23
   8   0  -4    2.23    1.27
   8   0  -4    1.92    0.76
   8   0  -4    1.09    0.83
  -8   0   4    1.51    0.70
  -8   0   3   54.28    4.43
   8   0  -3   63.01    4.34
   8   0  -3   46.58    5.14
   8   0  -3   59.82    4.01
   8   0  -3   66.66    4.61
   8   0  -3   53.57    4.05
   8   0  -2   11.97    1.64
  -8   0   2   10.64    1.77
   8   0  -2   14.87    1.87
   8   0  -2   14.36    2.55
   8   0  -2   17.11    2.74
   8   0  -2   12.05    1.57
   8   0  -2   11.85    1.75
   8   0  -2   13.74    2.25
   8   0  -1   96.93    5.86
  -8   0   1   81.76    6.08
   8   0  -1  102.45    7.55
   8   0  -1   79.53    6.99
   8   0  -1   81.90    5.37
   8   0  -1   91.24    5.94
   8   0  -1   88.93    6.48
   8   0  -1   90.83    5.61
   8   0   0    0.44    0.65
   8   0   0    2.14    0.90
   8   0   0    1.91    0.80
  -8   0   0    1.57    0.83
   8   0   0    2.50    1.16
   8   0   0    2.52    1.25
   8   0   0    1.10    0.79
   8   0   0    0.94    0.94
   8   0   1    5.44    1.09
   8   0   1    6.82    1.17
  -8   0  -1    6.55    1.39
   8   0   1    4.90    1.10
   8   0   1    5.98    1.49
   8   0   2   93.90    5.90
  -8   0  -2   99.09    6.57
   8   0   2  102.85    7.67
   8   0   2   87.84    5.92
   8   0   2   91.91    6.31
   8   0   2   92.79    5.74
   8   0   3   30.12    2.80
   8   0   3   36.75    4.16
   8   0   3   38.19    4.09
   8   0   3   32.79    3.13
   8   0   3   33.43    2.78
   8   0   4   24.24    2.46
   8   0   4   32.01    3.70
   8   0   4   28.14    2.77
   8   0   4   28.01    2.51
   8   0   5   73.76    4.95
  -8   0  -5   76.79    5.50
   8   0   5   80.58    6.35
   8   0   5   82.83    6.45
   8   0   5   68.93    4.67
   8   0   5   63.98    4.88
   8   0   5   76.19    4.84
  -8   0  -6   23.82    2.66
   8   0   6   19.51    2.18
   8   0   6   27.92    3.34
   8   0   6   25.34    3.22
   8   0   6   19.32    2.16
   8   0   6   24.51    2.30
   8   0   6   21.45    2.20
   8   0   7    4.83    1.06
  -8   0  -7    5.51    1.20
   8   0   7    4.72    1.08
   8   0   7    4.93    1.42
   8   0   7    5.01    1.49
   8   0   7    3.15    0.87
   8   0   7    4.82    1.07
  -8   0  -8   60.48    4.93
   8   0   8   73.07    5.86
   8   0   8   73.39    5.25
   8   0   8   58.38    4.33
   8   0   8   74.32    4.93
   8   0   8   72.74    4.66
   8   0   9  137.04    9.05
   8   0   9  132.45    8.19
   8   0   9  139.88    7.95
   8   0  10  147.83    8.65
   8   0  10  139.63    8.19
   8   0  11    3.04    0.89
   8   0  11    2.76    0.98
   8   0  12   42.98    3.55
   8   0  12   40.37    3.18
   8   0  13    1.60    0.72
   8   0  13    1.42    0.81
   8   0  14    0.49    0.57
   8   0  14    0.26    0.53
  -8   0 -14   -0.34    0.79
  -8   0 -15    8.11    1.24
   8   0  15   10.61    1.30
   8   0  16    0.61    0.50
   8   0  17    2.81    0.65
   8   0  17    3.67    0.77
  -8   0 -18   34.93    2.58
   8   0  18   42.82    2.53
   8   1 -14   30.07    2.34
   8   1 -13   12.82    1.40
   8   1 -13   13.95    1.70
   8   1 -13   13.84    1.58
   8   1 -12    1.16    0.55
   8   1 -12    1.42    0.83
   8   1 -12   -0.23    0.69
   8   1 -12   -0.06    0.43
   8   1 -11   22.37    2.12
   8   1 -11   22.59    2.79
   8   1 -11   24.80    2.59
   8   1 -11   19.02    1.90
   8   1 -10    7.37    1.26
   8   1 -10    9.61    1.87
   8   1 -10    8.55    1.24
   8   1  -9   20.68    2.07
   8   1  -9   22.38    2.83
   8   1  -9   20.83    2.07
   8   1  -9   15.95    2.13
   8   1  -9   18.69    1.99
   8   1  -8    7.37    1.32
   8   1  -8    7.51    1.74
   8   1  -8    6.71    1.24
   8   1  -8    7.75    1.35
   8   1  -7  208.41   11.27
   8   1  -7  199.40   12.42
   8   1  -7  210.15   12.72
   8   1  -7  208.04   11.18
   8   1  -7  202.60   11.29
   8   1  -6   13.03    1.81
   8   1  -6   18.72    2.53
   8   1  -6   17.72    2.71
   8   1  -6   15.92    1.89
   8   1  -6   15.03    2.04
   8   1  -6   14.29    1.90
   8   1  -5    0.26    0.75
   8   1  -5    1.98    0.84
   8   1  -5    1.05    0.94
   8   1  -5   -0.46    1.12
   8   1  -5    0.11    0.67
   8   1  -5    0.32    0.74
  -8  -1   4    9.36    1.58
   8   1  -4   14.65    2.15
   8   1  -4   11.41    2.16
   8   1  -4   15.39    2.40
   8   1  -4   14.64    1.74
   8   1  -4   14.22    1.94
   8   1  -4   14.68    1.83
   8   1  -3    5.84    1.19
   8   1  -3    4.73    1.24
  -8  -1   3    6.15    1.23
   8   1  -3    8.66    1.95
   8   1  -3    6.23    1.60
   8   1  -3    5.91    1.20
   8   1  -3    9.32    1.55
  -8  -1   2   30.83    3.09
   8   1  -2   27.41    3.50
   8   1  -2   30.17    2.65
   8   1  -2   35.90    3.14
   8   1  -2   34.09    2.85
   8   1  -1   22.96    3.11
  -8  -1   1   23.69    2.64
   8   1  -1   17.93    2.19
   8   1  -1   22.47    2.73
   8   1  -1   24.03    2.26
   8   1   0    3.15    0.92
  -8  -1   0    4.54    1.17
   8   1   0    3.34    0.98
   8   1   0    3.32    1.31
   8   1   0    3.90    1.43
   8   1   0    2.70    0.94
   8   1   0    2.66    1.08
   8   1   1   13.07    1.69
   8   1   1   12.43    2.28
  -8  -1  -1   14.76    2.06
   8   1   1   12.66    1.74
   8   1   1   13.19    1.85
   8   1   1   12.03    1.60
   8   1   2   29.50    2.73
  -8  -1  -2   30.77    3.15
   8   1   2   29.93    2.71
   8   1   2   28.07    2.80
   8   1   2   31.19    2.61
   8   1   3   32.54    2.90
   8   1   3   35.96    3.91
   8   1   3   35.56    3.90
   8   1   3   29.65    2.83
   8   1   3   33.04    2.76
   8   1   4   84.69    5.52
   8   1   4   81.54    6.57
   8   1   4   68.21    5.16
   8   1   4   88.20    5.33
   8   1   5    7.66    1.27
   8   1   5    4.99    1.20
  -8  -1  -5    8.20    1.54
   8   1   5    6.49    1.70
   8   1   5    5.81    1.62
   8   1   5    7.13    1.42
   8   1   5    4.91    1.12
   8   1   5    7.00    1.14
   8   1   6   16.90    2.53
   8   1   6   14.47    2.37
  -8  -1  -6   15.82    2.19
   8   1   6   14.32    2.05
   8   1   6   12.70    1.59
   8   1   6   15.05    1.78
   8   1   6   14.66    1.74
  -8  -1  -7   25.78    2.82
   8   1   7   27.34    3.27
   8   1   7   28.22    3.07
   8   1   7   28.21    2.66
   8   1   7   25.69    2.47
   8   1   8    0.51    0.67
  -8  -1  -8    1.05    0.73
   8   1   8    1.65    0.95
   8   1   8    1.98    0.99
   8   1   8    0.62    0.67
   8   1   9    2.20    0.88
  -8  -1  -9    1.18    0.65
   8   1   9    2.01    0.90
   8   1   9    2.83    1.13
   8   1   9    1.64    0.86
   8   1  10   78.71    5.22
   8   1  10   68.68    4.66
   8   1  11   40.86    3.74
   8   1  11   45.31    3.52
   8   1  12    0.26    0.73
   8   1  12    0.52    0.72
   8   1  13    3.23    1.00
   8   1  13    4.01    1.10
  -8  -1 -14   53.68    4.03
   8   1  14   61.76    4.54
   8   1  14   60.90    4.17
   8   1  15   13.18    1.80
   8   1  15   16.14    1.85
   8   1  16   36.68    2.85
   8   1  17   22.92    2.06
   8   1  18   23.75    1.91
   8   1  18   19.90    1.73
   8   1  19   -0.16    0.44
   8   1  19    0.38    0.38
   8   2 -13    0.58    0.44
   8   2 -13    0.12    0.73
   8   2 -13    0.81    0.59
   8   2 -12    3.43    0.86
   8   2 -12    4.74    1.25
   8   2 -12    3.01    0.76
   8   2 -11    0.98    0.69
   8   2 -11    1.67    0.95
   8   2 -11    1.40    0.68
   8   2 -10   17.50    1.91
   8   2 -10   17.50    2.45
   8   2 -10   18.40    1.85
   8   2 -10   14.47    1.86
   8   2  -9   -0.23    0.67
   8   2  -9    0.64    0.91
   8   2  -9   -0.22    1.13
   8   2  -9    0.33    0.68
   8   2  -9   -0.14    0.58
   8   2  -9    0.44    0.65
   8   2  -8   10.33    1.52
   8   2  -8    8.48    1.82
   8   2  -8    9.03    2.00
   8   2  -8    9.44    1.48
   8   2  -8    7.98    1.48
   8   2  -8   10.54    1.56
   8   2  -7   36.20    2.99
   8   2  -7   34.31    3.62
   8   2  -7   32.07    3.67
   8   2  -7   33.21    2.89
   8   2  -7   34.64    3.03
   8   2  -6    3.86    1.13
   8   2  -6    2.46    0.90
   8   2  -6    3.85    1.34
   8   2  -6    3.50    1.34
   8   2  -6    2.75    1.01
   8   2  -6    4.13    1.17
   8   2  -6    4.10    1.74
   8   2  -5   47.07    3.63
   8   2  -5   46.28    4.25
   8   2  -5   48.62    4.40
   8   2  -5   44.25    3.52
   8   2  -5   51.71    4.11
   8   2  -5   42.57    3.96
   8   2  -5   48.03    3.76
   8   2  -4  113.59    6.84
   8   2  -4  109.47    7.48
  -8  -2   4   94.18    6.90
   8   2  -4   98.53    7.71
   8   2  -4  116.22    7.69
   8   2  -4  116.99    6.81
   8   2  -4  123.67    7.47
   8   2  -4  108.21    7.04
   8   2  -4  121.52    6.98
   8   2  -3   37.37    3.11
   8   2  -3   31.26    3.00
   8   2  -3   31.55    3.30
   8   2  -3   36.92    3.93
   8   2  -3   40.92    3.75
  -8  -2   3   35.18    3.31
   8   2  -3   35.83    2.97
   8   2  -3   43.34    3.63
   8   2  -3   35.39    3.05
   8   2  -2    4.35    1.07
   8   2  -2    3.84    1.04
   8   2  -2    3.30    0.96
   8   2  -2    3.79    1.28
   8   2  -2    4.19    1.20
   8   2  -2    3.99    1.02
   8   2  -2    3.51    1.09
  -8  -2   2    3.73    1.10
   8   2  -1    3.63    0.91
   8   2  -1    1.89    0.81
   8   2  -1    3.07    0.95
  -8  -2   1    0.74    0.75
   8   2  -1    2.65    1.11
   8   2  -1    1.95    0.84
   8   2   0   21.81    2.28
   8   2   0   21.29    2.28
   8   2   0   22.85    3.09
   8   2   0   25.56    2.57
  -8  -2   0   25.00    2.80
   8   2   0   23.40    2.26
   8   2   1   32.06    2.92
   8   2   1   35.54    3.75
   8   2   1   34.89    3.05
   8   2   1   26.39    2.76
  -8  -2  -1   32.11    3.31
   8   2   1   36.90    2.86
   8   2   2   30.22    2.74
   8   2   2   25.00    2.55
   8   2   2   24.67    2.46
   8   2   2   29.19    2.54
   8   2   3  139.64    8.19
   8   2   3  138.15    9.25
   8   2   3  142.82    8.24
   8   2   3  136.57    8.01
   8   2   3  121.41    7.76
   8   2   3  142.69    7.89
   8   2   4   21.63    2.29
   8   2   4   21.62    2.89
   8   2   4   17.64    2.23
   8   2   4   14.39    1.76
   8   2   4   18.84    2.02
   8   2   5   17.22    2.54
   8   2   5   17.68    2.26
  -8  -2  -5   15.84    2.24
   8   2   5   13.73    1.77
   8   2   6   29.64    3.45
   8   2   6   32.00    3.26
   8   2   6   27.80    2.62
  -8  -2  -6   35.13    3.40
   8   2   6   29.73    2.70
   8   2   7   57.65    5.05
   8   2   7   57.15    4.81
  -8  -2  -7   54.74    4.65
   8   2   7   57.93    4.32
   8   2   7   58.94    4.19
   8   2   8   36.10    3.78
   8   2   8   39.32    3.81
  -8  -2  -8   33.03    3.44
   8   2   8   41.44    3.49
   8   2   8   37.49    3.17
   8   2   9   10.04    1.58
  -8  -2  -9    9.21    1.64
   8   2   9   12.64    2.03
   8   2   9   12.20    2.12
   8   2   9    8.20    1.61
  -8  -2 -10   82.72    6.06
   8   2  10   83.09    6.36
   8   2  10   96.11    6.81
   8   2  10   93.96    6.37
   8   2  10   92.47    5.91
   8   2  11    0.98    0.83
   8   2  11    2.09    0.97
   8   2  12    0.14    0.85
  -8  -2 -12    0.55    0.53
   8   2  12   -0.19    0.64
  -8  -2 -13   65.61    5.00
   8   2  13   84.04    5.77
   8   2  13   79.71    5.22
   8   2  14    2.44    0.92
  -8  -2 -14    2.83    0.90
   8   2  14    3.29    1.09
  -8  -2 -14    2.76    0.82
  -8  -2 -15   47.83    3.83
   8   2  15   57.77    4.40
   8   2  15   53.93    3.97
   8   2  16    0.83    0.78
  -8  -2 -16    0.12    0.52
   8   2  16    0.62    0.67
  -8  -2 -17   41.78    3.18
   8   2  17   45.33    3.32
   8   2  18    0.93    0.55
  -8  -2 -18    1.04    0.49
   8   2  19    0.36    0.53
   8   2  19    1.26    0.58
   8   2  20  102.33    5.49
   8   2  20   96.50    5.29
   8   3 -12   22.50    2.22
   8   3 -12   26.72    2.78
   8   3 -12   31.26    2.23
   8   3 -11   18.36    2.04
   8   3 -11   24.53    2.66
   8   3 -11   21.48    1.99
   8   3 -11   22.04    2.08
   8   3 -10    2.05    0.83
   8   3 -10    1.29    0.95
   8   3 -10    2.80    1.23
   8   3 -10    1.89    0.79
   8   3 -10    1.73    0.74
   8   3  -9    5.11    1.16
   8   3  -9    3.16    1.29
   8   3  -9    3.76    1.40
   8   3  -9    6.88    1.26
   8   3  -9    4.13    1.11
   8   3  -9    5.20    1.92
   8   3  -9    7.01    1.29
   8   3  -8   13.24    1.76
   8   3  -8   18.45    2.43
   8   3  -8   16.63    2.44
   8   3  -8   12.85    1.73
   8   3  -8   11.20    1.78
   8   3  -8   11.69    2.36
   8   3  -8   14.27    1.87
   8   3  -7   -0.13    0.68
   8   3  -7    0.21    0.74
   8   3  -7    0.81    1.06
   8   3  -7    0.24    0.78
   8   3  -7    1.01    1.68
   8   3  -7   -0.26    0.84
   8   3  -6   72.25    5.14
   8   3  -6   72.36    5.42
   8   3  -6   76.44    5.91
   8   3  -6   78.16    5.94
   8   3  -6   83.47    5.26
   8   3  -6   79.37    5.64
   8   3  -6   82.61    5.43
   8   3  -5   69.51    4.82
   8   3  -5   61.98    4.95
   8   3  -5   71.61    5.48
   8   3  -5   66.69    5.38
   8   3  -5   74.63    4.83
   8   3  -5   82.41    5.58
   8   3  -5   63.28    5.05
   8   3  -5   73.08    5.00
   8   3  -4    8.03    1.47
   8   3  -4    8.40    1.39
   8   3  -4    7.67    1.64
   8   3  -4    8.65    1.59
   8   3  -4    7.99    1.69
   8   3  -4    8.92    1.82
   8   3  -4   10.73    1.55
   8   3  -4   10.65    1.85
   8   3  -4   11.14    2.05
   8   3  -3   26.34    2.53
   8   3  -3   27.66    2.79
   8   3  -3   27.91    2.93
   8   3  -3   24.47    3.05
   8   3  -3   25.30    2.82
   8   3  -3   28.73    2.57
   8   3  -3   24.51    2.76
  -8  -3   3   27.93    2.95
   8   3  -3   26.97    2.59
   8   3  -2    0.50    0.70
   8   3  -2    1.29    0.78
   8   3  -2    1.31    0.78
   8   3  -2    1.12    0.67
   8   3  -2    0.66    0.74
   8   3  -2    1.94    0.88
   8   3  -2    0.78    1.32
   8   3  -1   42.52    3.45
   8   3  -1   50.95    3.77
   8   3  -1   45.43    3.73
   8   3  -1   37.63    4.03
   8   3  -1   38.22    3.58
   8   3  -1   43.65    3.62
   8   3  -1   51.11    3.57
   8   3   0    1.05    0.75
   8   3   0    0.36    0.77
   8   3   0    2.48    0.91
   8   3   0    1.48    0.66
   8   3   0    2.06    1.02
   8   3   0    0.84    0.70
   8   3   1   94.04    5.93
   8   3   1   87.06    6.65
   8   3   1   79.43    5.60
   8   3   1   92.64    5.60
   8   3   2   81.21    5.55
   8   3   2   83.95    5.33
   8   3   3    1.86    0.74
   8   3   3    1.73    0.87
   8   3   3    2.09    1.07
   8   3   3    3.68    1.03
   8   3   4   21.62    2.41
   8   3   4   23.90    3.00
   8   3   4   24.67    2.64
   8   3   4   24.51    2.33
   8   3   5   22.60    2.90
   8   3   5   23.13    2.66
   8   3   5   22.32    2.23
   8   3   6    8.36    1.44
   8   3   6    5.92    1.53
   8   3   6   10.86    1.86
   8   3   7   75.92    5.75
   8   3   7   74.11    5.60
   8   3   7   61.20    4.74
   8   3   7   66.34    4.69
   8   3   8   34.21    3.54
   8   3   8   33.85    3.57
   8   3   8   33.45    3.13
   8   3   8   30.44    2.87
   8   3   9   10.96    1.95
   8   3   9    9.47    1.96
  -8  -3  -9   11.14    1.64
   8   3   9   14.60    2.11
  -8  -3  -9   14.95    2.13
   8   3   9   15.28    1.92
  -8  -3 -10    0.75    0.69
   8   3  10    1.17    0.89
  -8  -3 -10    1.36    0.91
   8   3  10    0.98    0.79
   8   3  10    1.66    1.13
  -8  -3 -10    0.74    0.62
  -8  -3 -11   13.52    2.10
  -8  -3 -11   21.07    2.42
  -8  -3 -11   18.39    2.19
   8   3  11   17.38    2.61
   8   3  11   19.15    2.27
  -8  -3 -12   89.38    6.04
  -8  -3 -12   82.88    5.89
   8   3  12   86.41    5.86
  -8  -3 -13    2.46    1.01
  -8  -3 -14    9.49    1.60
   8   3  14    6.74    1.59
  -8  -3 -15    5.56    1.28
   8   3  15    8.77    1.70
  -8  -3 -16   14.98    1.98
   8   3  16   14.64    2.09
  -8  -3 -17   36.74    3.22
  -8  -3 -18    0.59    0.57
  -8  -3 -19   34.99    2.74
   8   3  20    6.58    1.04
   8   4 -11   18.12    2.20
   8   4 -11   16.87    2.16
   8   4 -11   16.25    1.70
   8   4 -11   20.33    2.36
   8   4 -10    4.36    1.17
   8   4 -10    6.80    1.50
   8   4 -10    6.07    1.37
   8   4 -10    7.07    1.17
   8   4 -10    8.06    1.18
   8   4 -10    7.23    1.96
   8   4  -9    7.68    2.85
   8   4  -9    6.34    1.37
   8   4  -9    8.34    1.60
   8   4  -9    6.17    1.52
   8   4  -9    8.03    1.34
   8   4  -9    6.89    1.31
   8   4  -9    9.18    2.08
   8   4  -8   28.03    3.73
   8   4  -8   21.53    2.54
   8   4  -8   24.37    2.90
   8   4  -8   27.40    3.00
   8   4  -8   31.79    2.69
   8   4  -8   32.36    2.90
   8   4  -8   27.77    3.04
   8   4  -7   15.65    3.24
   8   4  -7   13.87    1.92
   8   4  -7   13.66    1.96
   8   4  -7   17.94    2.40
   8   4  -7   15.52    2.24
   8   4  -7   17.21    1.96
   8   4  -7   17.79    2.24
   8   4  -7   15.01    2.35
   8   4  -6   18.85    3.20
   8   4  -6   14.58    1.92
   8   4  -6   15.46    2.13
   8   4  -6   17.66    2.43
   8   4  -6   15.79    2.26
   8   4  -6   17.46    2.00
   8   4  -6   14.51    2.23
   8   4  -5   48.15    4.67
   8   4  -5   42.48    3.55
   8   4  -5   43.52    3.91
   8   4  -5   46.96    4.12
   8   4  -5   41.93    3.92
   8   4  -5   49.93    3.66
   8   4  -5   44.30    3.79
   8   4  -4   16.09    3.27
   8   4  -4   12.80    1.78
   8   4  -4   16.10    2.18
   8   4  -4   14.43    1.92
   8   4  -4   10.20    1.78
   8   4  -4   15.88    2.14
   8   4  -4   12.84    1.72
   8   4  -4   14.02    1.98
   8   4  -3  129.70    8.09
   8   4  -3  113.87    7.18
   8   4  -3  128.27    7.95
   8   4  -3  119.37    7.71
   8   4  -3  113.67    7.47
   8   4  -3  114.92    7.54
   8   4  -3  122.16    7.17
   8   4  -3  117.89    7.35
   8   4  -2    7.54    2.78
   8   4  -2    7.99    1.39
   8   4  -2    4.07    1.17
   8   4  -2    5.71    1.29
   8   4  -2    7.55    1.45
   8   4  -2    5.84    1.45
   8   4  -2    6.72    1.35
   8   4  -2    6.62    1.42
   8   4  -1   29.21    2.79
   8   4  -1   32.80    2.94
   8   4  -1   33.37    3.20
   8   4  -1   32.77    2.98
   8   4  -1   33.42    3.48
   8   4  -1   27.32    2.82
   8   4  -1   33.46    2.96
   8   4   0   48.19    3.68
   8   4   0   52.77    3.92
   8   4   0   46.33    4.02
   8   4   0   47.19    3.79
   8   4   0   47.60    4.37
   8   4   0   46.92    3.70
   8   4   1   87.34    5.71
   8   4   1   80.25    5.81
   8   4   1   85.42    6.36
   8   4   2   46.99    3.62
   8   4   2   37.21    3.48
   8   4   3   33.23    2.99
   8   4   3   29.25    2.77
   8   4   4   89.61    5.97
   8   4   4   84.75    6.50
   8   4   4   89.53    6.07
   8   4   5   10.79    1.96
   8   4   5   12.74    1.94
   8   4   6  271.08   15.65
   8   4   6  281.56   15.54
   8   4   7   35.10    3.63
   8   4   7   36.04    3.67
   8   4   7   36.29    3.72
   8   4   8   52.85    4.70
  -8  -4  -8   54.20    4.01
   8   4   8   49.64    4.48
   8   4   8   55.63    4.81
   8   4   9   30.78    3.42
  -8  -4  -9   34.80    2.99
  -8  -4  -9   26.32    2.79
   8   4   9   26.45    3.08
   8   4   9   33.70    3.64
   8   4  10    2.64    1.23
  -8  -4 -10    3.31    1.07
   8   4  10    3.45    1.41
  -8  -4 -10    2.33    0.99
  -8  -4 -11   85.73    5.61
  -8  -4 -11   76.17    5.73
   8   4  11   83.93    6.55
  -8  -4 -11   75.30    5.85
  -8  -4 -12   35.16    3.18
  -8  -4 -12   35.20    3.44
   8   4  12   31.57    3.74
  -8  -4 -13  245.79   14.04
  -8  -4 -14    4.84    1.30
  -8  -4 -15   31.84    3.40
   8   4  15   33.49    3.05
  -8  -4 -16   56.09    4.65
   8   4  16   56.28    4.12
   8   4  17    0.65    0.72
  -8  -4 -17    0.34    0.72
   8   4  17   -0.37    0.75
  -8  -4 -18   89.85    6.31
   8   4  18  101.82    5.83
   8   4  19    0.07    0.47
  -8  -4 -19    0.92    0.58
  -8  -4 -20   29.80    2.63
   8   4  20   34.87    2.36
   8   4  21    6.45    0.84
   8   5 -11    4.51    2.08
   8   5 -11    3.80    0.83
   8   5 -11    3.46    0.74
   8   5 -11    4.52    1.58
   8   5 -10    5.33    2.34
   8   5 -10    3.71    1.02
   8   5 -10    3.29    1.04
   8   5 -10    3.10    0.80
   8   5 -10    4.95    1.70
   8   5  -9   35.40    3.63
   8   5  -9   31.10    3.08
   8   5  -9   28.02    2.90
   8   5  -9   32.05    2.81
   8   5  -9   32.21    3.07
   8   5  -9   30.65    3.28
   8   5  -8    4.17    2.15
   8   5  -8    4.03    2.24
   8   5  -8    1.73    0.91
   8   5  -8    1.61    0.77
   8   5  -8    2.97    1.06
   8   5  -8    2.69    0.96
   8   5  -8    1.97    1.31
   8   5  -8    1.79    0.92
   8   5  -7   46.57    4.20
   8   5  -7   34.80    3.27
   8   5  -7   44.66    3.80
   8   5  -7   44.66    3.96
   8   5  -7   45.08    3.82
   8   5  -7   51.79    4.05
   8   5  -7   47.40    3.83
   8   5  -7   44.92    3.64
   8   5  -7   38.93    4.04
   8   5  -6   -0.62    2.09
   8   5  -6   -0.15    2.07
   8   5  -6   -0.12    0.60
   8   5  -6   -0.19    0.88
   8   5  -6    0.90    0.77
   8   5  -6   -0.17    0.80
   8   5  -6   -0.15    0.81
   8   5  -6   -0.29    0.85
   8   5  -5   34.72    3.77
   8   5  -5   29.85    2.88
   8   5  -5   35.89    3.46
   8   5  -5   34.80    3.40
   8   5  -5   34.27    3.35
   8   5  -5   33.45    3.24
   8   5  -5   35.25    3.21
   8   5  -5   32.92    3.23
   8   5  -5   39.93    4.08
   8   5  -4    0.92    0.83
   8   5  -4    1.53    2.25
   8   5  -4    0.63    0.66
   8   5  -4    0.54    0.77
   8   5  -4    1.85    0.90
   8   5  -4    0.39    0.70
   8   5  -4    1.43    0.96
   8   5  -4    1.70    0.81
   8   5  -3  134.37    8.16
   8   5  -3  113.02    7.34
   8   5  -3  131.91    8.28
   8   5  -3  124.78    7.90
   8   5  -3  120.66    8.00
   8   5  -3  116.42    7.60
   8   5  -3  134.11    7.81
   8   5  -3  123.74    7.70
   8   5  -2   82.60    6.24
   8   5  -2   82.36    5.50
   8   5  -2   86.94    6.22
   8   5  -2   81.74    5.74
   8   5  -2   82.64    6.00
   8   5  -2   76.39    5.52
   8   5  -2   85.64    5.66
   8   5  -2   90.44    5.76
   8   5  -1   18.00    3.21
   8   5  -1   18.23    2.14
   8   5  -1   15.44    1.97
   8   5  -1   19.02    2.50
   8   5  -1   20.99    2.46
   8   5  -1   15.50    1.98
   8   5  -1   18.63    2.06
   8   5  -1   19.18    2.15
   8   5   0   29.14    2.94
   8   5   0   38.57    3.61
   8   5   0   34.92    3.36
   8   5   0   35.70    3.47
   8   5   0   40.04    3.21
   8   5   1    0.51    0.69
   8   5   1    1.25    0.72
   8   5   1    1.39    0.75
   8   5   1    1.19    0.86
   8   5   1    1.02    0.79
   8   5   1    1.31    0.78
   8   5   2    6.09    1.21
   8   5   2    8.17    1.64
   8   5   2    6.38    1.48
   8   5   2    6.31    1.40
   8   5   3  273.68   15.00
   8   5   3  256.24   14.68
   8   5   3  274.56   14.31
   8   5   4    8.26    1.41
   8   5   4    8.73    1.78
   8   5   4   10.01    1.65
   8   5   4    7.77    1.45
   8   5   5  167.83   10.53
   8   5   5  184.03   10.88
   8   5   5  188.00   10.67
   8   5   5  165.37   10.08
   8   5   5  183.64   10.07
   8   5   6    0.69    0.72
   8   5   6   -0.21    0.89
   8   5   6    0.21    0.69
   8   5   6    1.40    0.86
   8   5   7  170.31   10.34
   8   5   7  160.52   10.03
   8   5   7  159.90   10.16
   8   5   7  158.15    9.36
   8   5   8   19.26    2.71
   8   5   8   26.06    3.05
   8   5   8   19.05    2.26
   8   5   9    5.78    1.41
   8   5   9    6.54    1.72
  -8  -5  -9    9.19    1.36
   8   5   9    7.79    1.91
   8   5  10  151.25   10.32
  -8  -5 -10  169.06    9.27
  -8  -5 -10  153.48    9.81
   8   5  10  168.89   10.66
   8   5  10  156.41    9.42
   8   5  11    0.75    0.80
   8   5  11    0.26    0.86
  -8  -5 -11   -0.28    0.64
   8   5  11   -0.26    0.92
  -8  -5 -11    0.61    0.81
  -8  -5 -12  287.84   15.01
  -8  -5 -12  259.33   15.72
   8   5  12  274.11   16.42
   8   5  12  290.83   15.15
  -8  -5 -13   26.75    3.28
   8   5  13   30.19    2.88
   8   5  14   39.72    4.21
  -8  -5 -14   41.85    4.13
   8   5  14   40.86    3.39
   8   5  15  184.95   11.71
  -8  -5 -15  194.26   11.68
   8   5  15  185.72   10.44
   8   5  16    2.47    0.86
  -8  -5 -16    2.40    1.29
  -8  -5 -17  114.40    7.69
   8   5  17  111.66    6.58
  -8  -5 -18   14.23    2.04
   8   5  18   13.46    1.51
  -8  -5 -19    9.35    1.54
   8   5  19    9.36    1.14
   8   5  20    2.62    0.56
  -8  -5 -20    4.31    0.89
  -8  -5 -21    4.19    0.71
   8   5  21    4.98    0.82
   8   6 -12    1.21    1.06
   8   6 -11    1.90    1.72
   8   6 -11    2.53    0.69
   8   6 -11    2.33    1.35
   8   6 -10   35.13    3.30
   8   6 -10   31.54    2.59
   8   6 -10   32.75    2.55
   8   6 -10   35.50    3.05
   8   6  -9    2.73    1.77
   8   6  -9    2.32    1.89
   8   6  -9    1.68    0.80
   8   6  -9    0.57    0.60
   8   6  -9    2.33    1.06
   8   6  -8    4.85    1.98
   8   6  -8    7.77    2.11
   8   6  -8    6.60    1.26
   8   6  -8    3.82    1.15
   8   6  -8    6.61    1.26
   8   6  -8    5.60    1.21
   8   6  -8    6.57    1.30
   8   6  -7    0.75    1.81
   8   6  -7   -1.09    1.64
   8   6  -7    0.99    0.73
   8   6  -7    0.84    0.77
   8   6  -7    1.52    0.86
   8   6  -7    1.64    0.88
   8   6  -7    0.43    0.86
   8   6  -6    5.26    2.06
   8   6  -6    4.73    1.82
   8   6  -6    6.20    1.37
   8   6  -6    5.09    1.27
   8   6  -6    4.79    1.23
   8   6  -6    4.85    1.15
   8   6  -6    5.50    1.27
   8   6  -6    4.14    1.30
   8   6  -5   13.63    1.97
   8   6  -5   12.17    2.68
   8   6  -5    9.77    2.10
   8   6  -5    9.97    1.73
   8   6  -5   10.20    1.92
   8   6  -5    9.33    1.60
   8   6  -5   11.75    1.71
   8   6  -5   11.08    1.80
   8   6  -4   26.22    3.12
   8   6  -4   32.74    3.31
   8   6  -4   29.09    2.91
   8   6  -4   28.81    3.10
   8   6  -4   25.78    2.66
   8   6  -4   25.83    2.62
   8   6  -4   27.33    2.83
   8   6  -4   27.61    2.92
   8   6  -4   26.14    3.58
   8   6  -3   38.00    3.89
   8   6  -3   40.23    3.53
   8   6  -3   43.63    4.05
   8   6  -3   43.40    3.98
   8   6  -3   35.15    3.24
   8   6  -3   42.24    3.96
   8   6  -3   40.37    3.38
   8   6  -3   44.53    3.69
   8   6  -3   37.95    3.65
   8   6  -2   27.41    3.29
   8   6  -2   25.64    3.01
   8   6  -2   23.04    2.85
   8   6  -2   21.61    2.35
   8   6  -2   26.00    3.03
   8   6  -2   27.81    2.61
   8   6  -2   25.35    2.62
   8   6  -2   27.06    2.80
   8   6  -1   89.36    6.70
   8   6  -1   90.07    5.75
   8   6  -1  104.94    7.16
   8   6  -1  103.96    7.08
   8   6  -1  101.70    7.02
   8   6  -1   96.51    6.31
   8   6  -1  101.03    6.50
   8   6   0   24.53    3.28
   8   6   0   24.18    2.24
   8   6   0   29.55    2.80
   8   6   0   26.78    3.07
   8   6   0   28.76    3.15
   8   6   0   24.60    2.93
   8   6   0   21.97    2.36
   8   6   0   20.74    2.44
   8   6   1    0.56    0.76
   8   6   1    1.10    0.66
   8   6   1    0.16    0.69
   8   6   1    1.34    1.00
   8   6   1    0.21    0.70
   8   6   2  165.23    9.95
   8   6   2  197.84   10.80
   8   6   2  195.53   11.46
   8   6   2  179.81   11.42
   8   6   2  192.43   11.23
   8   6   2  194.24   10.50
   8   6   3   82.93    5.76
   8   6   3   80.18    6.19
   8   6   3   77.74    5.94
   8   6   3   83.93    5.47
   8   6   4   48.67    4.37
   8   6   4   61.16    4.65
   8   6   4   64.25    5.07
   8   6   4   62.04    4.80
   8   6   4   60.54    4.30
   8   6   5    5.04    1.19
   8   6   5    8.39    1.54
   8   6   5   10.46    1.77
   8   6   5    9.64    1.80
   8   6   5    7.64    1.55
   8   6   5    6.92    1.74
   8   6   5    6.16    1.32
   8   6   6    0.26    0.74
   8   6   6   -0.21    0.93
   8   6   6    1.22    0.78
   8   6   6    0.80    0.80
   8   6   6   -0.71    1.03
   8   6   7  162.35   10.49
   8   6   7  169.67   10.48
   8   6   7  170.23   10.71
   8   6   7  164.08    9.46
   8   6   8    0.39    0.71
   8   6   8    0.48    0.99
   8   6   8   -0.23    0.83
   8   6   8    0.70    0.83
   8   6   9  157.92   10.66
   8   6   9  177.15   10.98
   8   6   9  170.37    9.64
   8   6  10    1.05    0.76
   8   6  10    0.52    0.96
  -8  -6 -10    0.24    0.50
   8   6  10    0.52    0.92
   8   6  11    5.95    1.23
   8   6  11    7.23    1.86
  -8  -6 -11    5.01    1.29
  -8  -6 -11    4.91    1.06
   8   6  11    6.51    1.81
  -8  -6 -11    6.41    1.54
  -8  -6 -12   11.41    1.66
  -8  -6 -12   18.12    2.64
   8   6  12   18.65    2.84
   8   6  12   14.41    1.84
  -8  -6 -13   31.69    3.53
   8   6  13   25.66    2.55
   8   6  14  133.12    9.42
  -8  -6 -14  134.30    9.16
   8   6  14  139.51    7.98
  -8  -6 -15   16.33    2.48
   8   6  15   13.75    1.68
   8   6  16   54.52    4.88
  -8  -6 -16   45.31    4.26
   8   6  16   46.82    3.45
  -8  -6 -17   86.69    6.04
   8   6  17   79.31    4.96
  -8  -6 -18   69.22    4.81
   8   6  18   54.81    3.69
   8   6  19    2.04    0.59
  -8  -6 -19    1.86    0.83
   8   6  20    1.39    0.41
  -8  -6 -20    2.42    0.71
  -8  -6 -21   73.68    4.29
   8   7 -12    0.59    0.86
   8   7 -11   25.02    2.54
   8   7 -11   24.71    2.25
   8   7 -10    0.09    1.63
   8   7 -10    1.74    0.63
   8   7 -10    1.40    0.51
   8   7 -10    1.68    1.18
   8   7  -9   16.66    2.26
   8   7  -9   13.31    1.64
   8   7  -9   13.73    1.57
   8   7  -9   16.44    1.86
   8   7  -8    0.71    1.77
   8   7  -8    1.78    1.45
   8   7  -8    2.31    0.90
   8   7  -8    2.37    0.80
   8   7  -8    2.73    0.88
   8   7  -7    5.25    1.91
   8   7  -7    4.42    1.58
   8   7  -7    7.20    1.46
   8   7  -7    3.99    1.14
   8   7  -7    5.09    1.24
   8   7  -6   76.97    5.45
   8   7  -6   79.89    5.66
   8   7  -6   78.68    5.30
   8   7  -6   76.30    5.42
   8   7  -6   73.24    5.20
   8   7  -6   73.00    5.44
   8   7  -5    3.80    2.05
   8   7  -5    2.59    1.38
   8   7  -5    1.76    1.00
   8   7  -5    3.33    1.14
   8   7  -5    2.14    0.96
   8   7  -5    1.69    0.93
   8   7  -4  213.51   12.30
   8   7  -4  240.60   13.13
   8   7  -4  222.71   12.20
   8   7  -4  241.68   12.63
   8   7  -4  240.42   12.42
   8   7  -3    3.40    1.11
   8   7  -3    4.80    1.67
   8   7  -3    4.18    1.36
   8   7  -3    2.66    1.34
   8   7  -3    5.62    1.12
   8   7  -3    5.57    1.54
   8   7  -3    5.25    1.33
   8   7  -3    2.86    1.08
   8   7  -2   93.63    6.54
  -8  -7   2   84.40    6.47
   8   7  -2  106.60    7.36
   8   7  -2  109.91    7.35
   8   7  -2   99.17    7.09
   8   7  -2   96.10    6.31
   8   7  -2   97.57    6.54
   8   7  -2  101.53    6.44
   8   7  -1  133.03    8.79
  -8  -7   1  146.18    9.19
   8   7  -1  157.33    9.80
   8   7  -1  134.19    9.35
   8   7  -1  156.84    9.71
   8   7  -1  147.02    8.71
   8   7  -1  151.54    8.96
   8   7  -1  154.13    8.76
   8   7   0  122.12    7.68
   8   7   0  120.19    8.42
   8   7   0  121.37    8.30
   8   7   0  123.87    8.33
   8   7   0  117.53    7.47
   8   7   0  118.03    7.27
   8   7   1   23.84    2.67
   8   7   1   24.92    3.17
   8   7   1   23.87    3.07
   8   7   1   27.85    3.22
   8   7   1   25.55    2.45
   8   7   2   47.28    3.96
   8   7   2   35.51    4.01
   8   7   2   47.23    4.51
   8   7   2   46.74    4.36
   8   7   2   46.26    3.48
   8   7   3  152.92    9.55
   8   7   3  162.60   10.38
   8   7   3  165.13   10.17
   8   7   3  158.60    8.94
   8   7   4   18.08    2.36
   8   7   4   16.05    2.28
   8   7   4   11.66    2.20
   8   7   4   18.65    2.50
   8   7   4   16.74    1.85
   8   7   5   57.23    4.73
   8   7   5   53.67    4.71
   8   7   5   57.21    5.17
   8   7   5   57.31    4.84
   8   7   5   66.53    5.56
   8   7   5   59.55    4.91
   8   7   5   63.38    4.19
   8   7   6   91.78    6.70
   8   7   6   91.80    6.96
   8   7   6   86.89    6.51
   8   7   6   99.25    6.75
   8   7   6  105.39    7.43
   8   7   6   88.65    6.49
   8   7   6   92.95    5.79
   8   7   7    5.27    1.11
   8   7   7    5.02    1.39
   8   7   7    4.86    1.43
   8   7   7    4.60    1.38
   8   7   7    7.21    1.79
   8   7   8  216.25   12.94
   8   7   8  189.03   12.48
   8   7   8  226.52   13.09
   8   7   8  210.51   13.04
   8   7   8  217.68   11.47
   8   7   9    2.10    0.81
   8   7   9    2.31    1.11
  -8  -7  -9    3.23    1.12
   8   7   9    1.28    1.03
   8   7  10   77.17    6.27
  -8  -7 -10   62.62    5.22
   8   7  10   69.10    5.90
   8   7  10   74.42    4.73
   8   7  11   13.64    2.53
  -8  -7 -11   13.62    1.96
   8   7  11   14.86    1.71
   8   7  12    3.42    0.95
   8   7  12    5.70    1.75
  -8  -7 -12    5.01    1.10
  -8  -7 -12    5.37    1.45
  -8  -7 -13   18.24    2.46
   8   7  13   13.97    1.68
   8   7  14    6.69    1.11
  -8  -7 -14    7.31    1.64
   8   7  15   33.23    4.02
   8   7  15   28.79    2.53
   8   7  16   54.41    5.14
  -8  -7 -16   54.87    4.35
   8   7  16   43.92    3.28
   8   7  17   41.36    4.29
  -8  -7 -17   41.64    3.52
   8   7  17   34.48    2.63
  -8  -7 -18   41.53    3.34
   8   7  18   33.86    2.44
  -8  -7 -19    5.91    1.19
  -8  -7 -20   36.81    2.81
  -8  -7 -21    1.99    0.54
   8   8 -11    4.01    1.29
   8   8 -11    2.11    0.97
   8   8 -10   23.64    2.42
   8   8 -10   24.96    2.15
   8   8  -9    4.01    1.63
   8   8  -9    4.62    0.84
   8   8  -9    4.07    0.96
   8   8  -8    8.90    1.78
   8   8  -8    8.13    1.33
   8   8  -8    7.65    1.19
   8   8  -8    9.15    1.30
   8   8  -8    8.37    1.36
   8   8  -7   21.89    2.61
   8   8  -7   25.61    2.37
   8   8  -7   30.06    2.71
   8   8  -6    6.71    1.63
   8   8  -6    6.71    1.31
   8   8  -6    6.19    1.32
   8   8  -5  151.64    9.32
   8   8  -5  166.85    9.87
   8   8  -5  169.48    9.24
   8   8  -5  185.20    9.79
   8   8  -5  140.82    8.77
   8   8  -4    0.14    1.09
   8   8  -4    0.41    0.76
   8   8  -4    0.78    0.83
   8   8  -4    1.01    0.80
   8   8  -4    0.22    0.65
   8   8  -3   73.76    5.55
   8   8  -3   90.29    6.46
   8   8  -3   94.25    5.71
   8   8  -3   83.81    5.92
   8   8  -3   76.31    5.25
   8   8  -2   51.43    4.37
   8   8  -2   67.42    5.38
   8   8  -2   58.80    5.19
   8   8  -2   54.78    4.32
   8   8  -2   71.64    5.46
   8   8  -2   63.27    4.79
   8   8  -2   61.52    4.29
   8   8  -1    0.72    0.78
  -8  -8   1   -0.18    0.89
   8   8  -1    0.24    0.77
   8   8  -1    0.22    0.96
   8   8  -1    0.24    0.95
   8   8  -1    0.41    0.81
   8   8  -1    0.34    0.63
  -8  -8   0  162.35   10.32
   8   8   0  193.89   11.42
   8   8   0  166.63   10.91
   8   8   0  188.77   11.25
   8   8   0  163.15    9.85
   8   8   0  181.40   10.27
   8   8   0  169.93    9.63
   8   8   1    1.52    0.67
  -8  -8  -1    0.95    0.85
   8   8   1    1.58    0.85
   8   8   1    1.04    0.91
   8   8   1    0.50    0.89
   8   8   1    2.20    1.13
   8   8   2    6.04    1.06
  -8  -8  -2    6.19    1.44
   8   8   2    4.94    1.21
   8   8   2    5.25    1.68
   8   8   2    6.50    1.71
   8   8   2    5.36    1.58
   8   8   3    5.71    1.07
  -8  -8  -3    6.28    1.44
   8   8   3    7.58    1.52
   8   8   3    5.06    1.38
   8   8   3    5.57    1.67
   8   8   3    6.40    1.68
   8   8   3    5.77    1.52
  -8  -8  -4   80.60    6.03
   8   8   4   85.58    5.87
   8   8   4   88.84    6.87
   8   8   4   75.32    6.22
   8   8   4   83.49    6.44
   8   8   4   81.59    5.07
   8   8   5  134.32    9.17
  -8  -8  -5  158.87    9.57
   8   8   5  154.32    9.19
   8   8   5  154.82   10.21
   8   8   5  158.06    9.89
   8   8   5  157.93    9.85
   8   8   5  144.49    8.25
   8   8   6   25.05    2.94
   8   8   6   23.38    2.67
   8   8   6   25.00    3.28
   8   8   6   25.99    3.09
   8   8   6   22.27    3.31
   8   8   6   21.42    2.89
   8   8   6   25.91    2.20
   8   8   7  222.33   12.94
  -8  -8  -7  216.49   12.49
   8   8   7  249.65   12.51
   8   8   7  213.80   13.27
   8   8   7  203.15   12.72
   8   8   7  212.49   13.40
   8   8   7  192.65   12.44
   8   8   7  205.92   11.20
   8   8   8    6.24    1.08
   8   8   8    6.18    1.68
  -8  -8  -8    7.46    1.58
   8   8   8    7.23    1.63
   8   8   8    9.09    2.11
   8   8   8    4.51    1.63
   8   8   9  102.74    7.86
  -8  -8  -9  106.45    7.20
   8   8   9   97.29    7.64
   8   8   9  106.83    8.15
   8   8   9  111.58    6.25
   8   8  10   60.28    5.51
  -8  -8 -10   58.77    4.69
   8   8  10   57.13    5.18
   8   8  10   58.26    5.53
   8   8  10   56.99    3.86
   8   8  11   16.99    2.88
  -8  -8 -11   16.71    2.18
   8   8  11   15.13    1.61
   8   8  12   59.77    5.64
   8   8  12   57.98    3.83
   8   8  13    4.51    0.88
   8   8  13    5.78    1.84
  -8  -8 -13    4.83    1.31
  -8  -8 -14  219.41   10.91
   8   8  14  159.34    9.21
   8   8  15    5.47    1.99
  -8  -8 -15    4.57    1.30
   8   8  16    2.07    1.37
  -8  -8 -16    3.16    1.11
   8   8  17  189.05   11.51
  -8  -8 -17  170.02   10.10
   8   8  18    5.16    1.43
  -8  -8 -18    4.34    1.07
  -8  -8 -19   71.42    4.67
   8   9 -10    7.35    1.43
   8   9 -10    8.70    1.15
   8   9  -9    8.81    1.65
   8   9  -9    7.62    1.13
   8   9  -8   64.46    4.55
   8   9  -8   63.80    4.37
   8   9  -8   74.62    4.39
   8   9  -8   72.15    4.55
   8   9  -7    2.57    1.24
   8   9  -7    1.73    0.71
   8   9  -7    2.32    0.87
   8   9  -6    4.64    1.33
   8   9  -6    7.11    1.35
   8   9  -6    4.90    1.14
   8   9  -5    1.20    1.04
   8   9  -5    3.50    0.79
   8   9  -5    2.90    1.02
   8   9  -4    0.11    0.86
   8   9  -4    0.75    0.75
   8   9  -4    0.67    0.64
   8   9  -4    0.16    0.71
   8   9  -3   47.78    3.96
   8   9  -3   63.06    5.04
   8   9  -3   54.55    3.82
   8   9  -3   62.77    4.66
   8   9  -2    3.00    1.21
   8   9  -2    2.71    1.15
   8   9  -2    0.63    0.68
   8   9  -2    3.16    1.09
   8   9  -2    1.56    0.70
   8   9  -1  248.70   14.14
   8   9  -1  242.54   12.48
   8   9  -1  262.62   14.24
   8   9  -1  236.94   13.31
   8   9  -1  213.39   12.10
   8   9   0   22.38    3.10
   8   9   0   18.79    2.06
   8   9   0   25.38    3.14
   8   9   0   19.52    2.49
   8   9   0   20.51    1.96
  -8  -9  -1   47.22    4.25
   8   9   1   52.67    4.99
   8   9   1   47.45    4.74
   8   9   1   61.42    5.19
   8   9   1   46.36    3.59
  -8  -9  -2    0.95    0.76
   8   9   2   -0.28    1.06
   8   9   2    2.16    1.16
   8   9   2    0.26    0.76
  -8  -9  -3    3.26    1.14
   8   9   3    2.72    0.89
   8   9   3    2.24    1.04
   8   9   3    0.56    1.00
   8   9   3    2.24    1.33
   8   9   3    1.55    1.04
  -8  -9  -4   97.01    6.76
   8   9   4   96.14    6.14
   8   9   4   98.18    7.65
   8   9   4   92.08    7.20
   8   9   4   94.55    7.27
  -8  -9  -5   29.91    3.24
   8   9   5   32.37    2.96
   8   9   5   31.89    3.96
   8   9   5   34.21    3.86
   8   9   5   36.00    3.92
   8   9   6   93.50    6.63
   8   9   6   84.49    5.82
   8   9   6   84.41    7.20
   8   9   6   91.31    7.07
   8   9   6   88.64    7.33
   8   9   6   93.52    6.99
   8   9   7    2.07    1.07
  -8  -9  -7    4.04    1.20
   8   9   7    3.44    0.97
   8   9   7    2.79    1.17
   8   9   7    4.10    1.60
   8   9   7    2.74    1.41
   8   9   7    1.64    1.06
   8   9   8    1.75    1.19
  -8  -9  -8    1.71    0.97
   8   9   8    2.35    0.91
   8   9   8    1.77    1.09
   8   9   8    2.63    1.26
   8   9   8    3.08    1.29
   8   9   8    1.55    1.08
   8   9   9  273.14   15.56
  -8  -9  -9  248.41   14.45
   8   9   9  248.95   15.21
   8   9   9  263.65   15.83
   8   9   9  263.92   16.13
   8   9  10    0.28    1.14
   8   9  10    1.70    1.18
   8   9  11   58.12    5.34
   8   9  11   40.47    4.67
   8   9  12    0.92    1.37
   8   9  12    0.77    0.86
   8   9  13  184.38   12.32
  -8  -9 -13  182.58   10.75
  -8  -9 -14   19.98    2.45
  -8  -9 -15   11.83    1.83
   8   9  16  155.43   10.36
   8   9  17    9.48    1.93
   8   9  18   71.95    5.32
   8   9  19    5.23    1.09
  -8  -9 -20   31.46    2.34
   8  10  -9   43.96    2.91
   8  10  -8    4.76    1.17
   8  10  -8    5.63    0.93
   8  10  -7   11.28    1.52
   8  10  -7   10.59    1.39
   8  10  -7   12.87    1.53
   8  10  -6    5.50    1.29
   8  10  -6    7.92    1.28
   8  10  -6    6.87    1.23
   8  10  -5   12.41    1.64
   8  10  -5   13.93    1.91
   8  10  -5   15.64    1.94
   8  10  -4   52.23    4.15
   8  10  -4   44.89    3.93
   8  10  -3    0.49    0.73
   8  10  -2   62.91    4.90
   8  10  -1    0.71    1.06
   8  10  -1   -0.93    1.16
   8  10  -1   -0.17    0.73
   8  10   0   63.65    5.58
   8  10   0   70.76    5.67
   8  10   0   54.03    4.68
   8  10   1   93.48    6.94
   8  10   1   75.02    4.75
   8  10   1   83.38    6.61
   8  10   2   44.80    4.59
   8  10   2   33.33    2.68
   8  10   2   44.17    4.43
   8  10   3   33.36    4.00
   8  10   3   31.68    3.83
   8  10   3   27.27    2.32
   8  10   4    4.51    0.92
   8  10   4    5.13    1.73
   8  10   4    5.17    1.68
   8  10   5   59.76    4.21
   8  10   5   77.38    6.45
   8  10   5   64.15    5.81
   8  10   6    7.76    1.63
   8  10   6    7.95    1.24
   8  10   6    9.14    2.17
   8  10   6    6.65    1.79
   8  10   7    8.36    1.79
   8  10   7    7.66    1.23
   8  10   7   10.53    2.39
   8  10   7   10.06    2.09
   8  10   8   83.45    6.83
   8  10   8   89.01    5.56
   8  10   8   99.49    7.98
   8  10   8   86.71    6.88
   8  10   9    6.44    1.80
   8  10   9    7.03    1.20
   8  10   9    8.89    2.23
   8  10  10  127.41    8.72
   8  10  10  103.12    6.56
   8  10  10  113.92    8.73
   8  10  11    6.57    1.94
   8  10  11    7.83    1.23
   8  10  11    6.95    1.99
   8  10  12   70.59    6.22
   8  10  12   53.90    5.50
   8  10  13    9.88    2.19
   8  10  13    3.87    1.55
   8  10  14   34.58    3.96
   8  10  14   26.66    3.16
   8  10  17   53.00    4.38
  -8 -10 -17   50.78    3.75
   8  10  18    4.54    1.04
  -8 -10 -18    2.33    0.74
   8  10  19   17.04    1.73
  -8 -10 -19   13.64    1.46
   8  11  -8   16.26    1.50
   8  11  -7    0.16    0.41
   8  11  -6    1.09    0.59
   8  11  -6    1.60    0.64
   8  11  -5   29.32    2.73
   8  11  -5   31.40    2.73
   8  11  -4    7.67    1.50
   8  11  -4    8.43    1.54
   8  11  -4    9.39    1.51
   8  11  -3   46.85    4.04
   8  11  -3   49.03    4.05
   8  11  -3   42.71    3.78
   8  11  -2    8.84    1.63
   8  11  -1   19.00    2.37
   8  11   0   31.41    3.58
   8  11   0   27.58    2.96
   8  11   1    1.06    1.15
   8  11   1    0.25    0.94
   8  11   2  110.25    8.48
   8  11   2  117.09    8.46
   8  11   3   16.99    3.00
   8  11   3   21.67    3.10
   8  11   4   64.07    6.23
   8  11   4   68.08    6.05
   8  11   5   15.13    2.83
   8  11   5   12.05    2.50
   8  11   6   78.27    7.11
   8  11   6   80.02    6.71
   8  11   7   68.55    5.72
   8  11   7   78.24    6.98
   8  11   7   75.05    6.33
   8  11   8    0.71    0.83
   8  11   8    1.69    1.36
   8  11   8   -0.48    1.05
   8  11   9   84.98    6.75
   8  11   9   92.84    7.64
   8  11   9   71.79    6.04
   8  11  10    0.26    0.96
   8  11  10    1.50    1.21
   8  11  11   99.79    7.42
   8  11  11   89.66    7.46
   8  11  12   13.06    2.33
   8  11  12    8.33    2.03
   8  11  13    0.23    0.86
   8  11  13    0.43    0.82
   8  11  14  104.95    7.16
  -8 -11 -14  102.27    6.13
   8  11  15    2.96    1.03
  -8 -11 -15    4.62    1.04
  -8 -11 -16   42.58    3.24
   8  11  17    0.55    0.73
  -8 -11 -17    0.51    0.48
   8  11  18    6.19    1.10
  -8 -11 -18    5.32    0.87
   8  11  19   25.92    2.11
   8  12  -6   13.41    1.27
   8  12  -5    1.26    0.50
   8  12  -5    1.99    0.61
   8  12  -4   54.44    3.86
   8  12  -4   51.13    3.56
   8  12  -3   -0.15    0.80
   8  12  -3   -0.71    0.85
   8  12  -3    0.10    0.45
   8  12  -2   12.57    1.99
   8  12  -2   11.90    1.94
   8  12  -2   11.87    1.61
   8  12  -1   92.69    6.45
   8  12  -1   73.96    5.14
   8  12   0   12.01    2.16
   8  12   0   12.21    1.56
   8  12   1   74.59    6.15
   8  12   2    1.01    1.02
   8  12   3   63.41    5.81
   8  12   3   57.34    5.47
   8  12   4    0.31    1.02
   8  12   4    0.80    0.99
   8  12   5    8.56    2.18
   8  12   5   11.05    2.23
   8  12   6   79.24    6.87
   8  12   6   69.93    6.07
   8  12   7    3.81    1.64
   8  12   7    2.02    1.20
   8  12   8   82.80    6.80
   8  12   8   67.52    5.56
   8  12   9    0.38    0.79
   8  12   9    1.06    1.07
   8  12   9    0.17    0.69
   8  12  10   40.92    3.86
   8  12  10   36.01    4.29
   8  12  11   91.34    6.56
   8  12  11   88.75    6.84
   8  12  12    0.19    0.83
   8  12  12   -0.40    0.89
   8  12  13   43.65    3.85
  -8 -12 -13   45.55    3.36
   8  12  13   38.06    3.75
   8  12  14    2.87    1.00
   8  12  14    1.99    0.78
  -8 -12 -14    1.86    0.72
   8  12  15   51.53    3.70
  -8 -12 -15   44.54    3.05
   8  12  16    3.15    0.96
  -8 -12 -16    2.71    0.72
  -8 -12 -17    0.33    0.30
   8  12  18   16.05    1.56
   8  13  -3   23.24    1.90
   8  13  -2   16.05    1.69
   8  13  -2   18.51    1.92
   8  13  -1   -0.13    0.66
   8  13   0   64.02    4.86
   8  13   1    1.05    0.94
   8  13   1    0.72    0.92
   8  13   2   18.51    2.59
   8  13   3   45.74    4.24
   8  13   4    4.52    1.35
   8  13   5   23.23    3.16
   8  13   5   23.58    2.85
   8  13   6    1.33    0.96
   8  13   6   -0.18    0.86
   8  13   7   95.75    6.81
   8  13   7   77.44    5.96
   8  13   8   -0.63    1.07
   8  13   8    1.05    0.75
   8  13   9    2.00    1.07
   8  13   9    1.90    0.71
   8  13  10   53.74    4.63
   8  13  11    1.64    0.73
   8  13  11    0.68    0.85
   8  13  12   24.31    2.50
  -8 -13 -12   25.27    2.19
   8  13  12   22.71    2.65
   8  13  13    0.94    0.65
   8  13  13    1.81    0.75
  -8 -13 -13    1.32    0.54
   8  13  14   20.15    2.00
  -8 -13 -14   17.06    1.60
   8  13  14   14.74    1.81
   8  13  15    0.46    0.47
   8  13  15   -0.07    0.38
  -8 -13 -15    0.37    0.32
   8  13  16    3.21    0.73
   8  14  -1   19.03    1.69
   8  14   0    0.93    0.43
   8  14   1    7.19    1.10
   8  14   1    8.48    1.25
   8  14   2   22.91    2.23
   8  14   2   22.83    2.29
   8  14   3    4.47    1.08
   8  14   3    3.65    0.98
   8  14   4   49.53    3.88
   8  14   5    2.12    0.76
   8  14   6   28.17    2.65
   8  14   7    5.80    1.27
   8  14   7    2.44    0.87
   8  14   8   -0.14    0.64
   8  14   8    0.49    0.47
   8  14   9    9.43    1.55
   8  14   9    5.62    0.97
   8  14  10    6.39    1.33
  -8 -14 -10    5.40    0.92
  -8 -14 -11   36.01    2.67
   8  14  11   46.03    3.48
   8  14  12    0.40    0.49
  -8 -14 -12   -0.15    0.32
   8  14  13    2.56    0.71
   8  15   4    1.08    0.40
   8  15   5    7.28    1.02
   8  15   5    5.75    0.92
   8  15   6    0.59    0.44
   8  15   6    1.54    0.47
   8  15   9    1.38    0.55
   8  15  10   20.66    1.95
   9  -5  -5    2.47    0.57
   9  -5  -4    8.26    1.03
  -9   5   3   23.02    1.91
   9  -5  -3   32.91    2.29
  -9   5   2    7.91    0.99
  -9   5   1    1.95    0.55
  -9   5   0    5.17    0.89
  -9   5  -1   21.27    1.93
   9  -5   1   25.37    1.98
  -9   5  -2    3.03    0.71
   9  -5   2    2.79    0.69
   9  -5   3    2.57    0.66
  -9   5  -4   50.04    3.43
   9  -5   4   56.44    3.36
  -9   5  -5   10.94    1.23
   9  -5   5   11.24    1.16
  -9   5  -5   10.37    1.17
  -9   5  -6   -0.05    0.35
  -9   5  -7    2.27    0.48
   9  -4  -7    0.34    0.42
   9  -4  -6    1.23    0.38
   9  -4  -6    2.03    0.61
   9  -4  -5   21.96    1.73
   9  -4  -5   29.82    2.26
   9  -4  -4   23.69    1.81
  -9   4   4   23.40    1.93
   9  -4  -3   12.77    1.30
   9  -4  -1    0.84    0.43
   9  -4  -1   -0.10    0.63
   9  -4   0   12.14    1.25
   9  -4   0   13.84    2.10
   9  -4   0   18.06    1.77
   9  -4   1    0.34    0.46
   9  -4   1    1.44    0.72
   9  -4   2   43.41    2.90
   9  -4   2   53.01    4.34
   9  -4   2   50.37    3.44
   9  -4   3    9.87    1.09
   9  -4   3   13.26    2.00
   9  -4   3   12.92    1.45
   9  -4   4   14.99    1.38
   9  -4   4   19.74    1.76
   9  -4   5    1.32    0.43
   9  -4   5    0.95    0.53
   9  -4   6    2.30    0.51
   9  -4   6    4.42    0.75
  -9   4  -7   15.80    1.64
   9  -4   7   20.26    1.62
  -9   4  -8    2.00    0.63
  -9   4  -9   67.96    4.16
  -9   4 -10    1.28    0.46
   9  -3  -9    0.26    0.34
   9  -3  -8    0.75    0.42
   9  -3  -8    1.18    0.56
   9  -3  -7    0.22    0.37
   9  -3  -7   -0.25    0.50
   9  -3  -6    0.56    0.47
   9  -3  -6    0.19    0.58
   9  -3  -5    1.97    0.62
   9  -3  -4   20.19    1.81
   9  -3  -3    0.08    0.48
   9  -3  -2    2.74    0.76
   9  -3  -1   26.14    2.17
   9  -3  -1   24.26    3.04
   9  -3  -1   28.58    2.57
   9  -3   0    6.60    1.02
   9  -3   0    6.12    1.24
   9  -3   1   13.29    1.51
   9  -3   1   16.33    1.87
   9  -3   2    3.40    0.82
   9  -3   2    2.97    1.28
   9  -3   2    5.97    1.11
   9  -3   3    0.69    0.57
   9  -3   3    0.76    0.84
   9  -3   3   -0.11    0.59
   9  -3   4    0.82    0.52
   9  -3   4    0.73    0.77
   9  -3   4    0.11    0.60
   9  -3   5    3.31    0.79
   9  -3   5    2.27    0.83
   9  -3   6   67.31    4.25
   9  -3   6   76.09    4.61
   9  -3   7   -0.59    0.49
   9  -3   7    0.35    0.51
   9  -3   8   72.00    4.50
   9  -3   8   93.57    4.90
   9  -3   9    7.08    0.90
   9  -3   9    8.45    1.07
   9  -3  10   10.17    1.07
   9  -3  10   20.96    1.54
   9  -3  11   20.81    1.66
  -9   3 -12    5.15    0.89
   9  -3  12    5.36    0.68
   9  -2 -10    0.04    0.32
   9  -2 -10   -0.05    0.41
   9  -2  -9   23.90    1.90
   9  -2  -9   23.95    2.08
   9  -2  -8    8.43    1.07
   9  -2  -8    8.81    1.31
   9  -2  -7    3.48    0.77
   9  -2  -6   -0.08    0.47
   9  -2  -5   17.15    1.72
   9  -2  -4    0.89    0.63
   9  -2  -4    1.20    0.87
   9  -2  -3    0.09    0.56
   9  -2  -3    2.36    1.04
   9  -2  -2   18.69    1.87
   9  -2  -1   16.70    1.79
   9  -2  -1   16.58    2.07
   9  -2   0   42.43    3.05
   9  -2   0   52.88    4.90
   9  -2   0   45.21    3.52
   9  -2   1    0.07    0.48
   9  -2   1    0.43    0.65
   9  -2   1    0.14    0.74
   9  -2   2   38.95    2.92
   9  -2   2   36.76    3.18
   9  -2   2   29.52    2.46
   9  -2   3    2.42    0.69
   9  -2   3    3.72    0.92
   9  -2   3    2.97    1.32
   9  -2   3    3.94    1.16
   9  -2   4    1.87    0.60
   9  -2   4    3.08    0.84
   9  -2   4    2.32    1.08
   9  -2   4    2.36    0.92
   9  -2   5    0.67    0.55
   9  -2   5    1.90    0.73
   9  -2   5    1.70    1.05
   9  -2   5    1.75    0.80
   9  -2   6   24.09    2.25
   9  -2   6   18.49    1.68
   9  -2   7   96.26    5.59
   9  -2   7   81.96    4.86
   9  -2   8    5.66    0.83
   9  -2   8    8.13    1.15
   9  -2   9    2.20    0.52
   9  -2   9    2.65    0.74
   9  -2  10  161.95    8.69
   9  -2  11   12.66    1.34
  -9   2 -11   12.04    1.67
  -9   2 -12   16.98    2.05
   9  -2  12   23.89    1.81
   9  -2  13    3.55    0.64
  -9   2 -13    2.23    0.82
   9  -2  14   29.51    1.99
   9  -1 -11    5.72    0.79
   9  -1 -11    5.47    0.84
   9  -1 -10    1.07    0.47
   9  -1 -10    0.80    0.51
   9  -1  -9   32.67    2.42
   9  -1  -9   32.80    2.68
   9  -1  -8   68.83    4.24
   9  -1  -7    3.02    0.82
   9  -1  -6    1.80    0.71
   9  -1  -6    1.38    0.58
   9  -1  -5    9.91    1.37
   9  -1  -5   11.89    1.81
   9  -1  -5    9.26    1.26
   9  -1  -4    4.95    1.01
   9  -1  -4    6.40    1.11
   9  -1  -4    4.55    1.27
   9  -1  -3   37.53    2.85
   9  -1  -3   37.17    3.35
   9  -1  -3   29.62    2.62
   9  -1  -2    0.28    0.53
   9  -1  -2   -0.33    0.70
   9  -1  -1   62.68    4.93
   9  -1  -1   56.61    4.16
   9  -1   0    1.77    0.68
   9  -1   0    1.20    0.81
   9  -1   0    1.16    0.96
   9  -1   1  115.51    7.81
   9  -1   1  117.08    7.02
   9  -1   2  110.64    6.59
   9  -1   2  123.87    8.57
   9  -1   2  110.76    7.15
   9  -1   2  102.54    6.27
   9  -1   3    0.45    0.62
   9  -1   3    1.94    0.85
   9  -1   3    0.54    0.91
   9  -1   3    1.73    0.93
   9  -1   4  104.44    7.77
   9  -1   4   99.60    6.58
   9  -1   4   99.49    5.87
   9  -1   5    9.37    1.57
   9  -1   5   13.03    1.41
   9  -1   6   30.74    2.72
   9  -1   6   26.39    2.30
   9  -1   7    4.25    0.82
   9  -1   7    4.69    0.93
   9  -1   8   11.99    1.46
   9  -1   8   10.44    1.28
   9  -1   9  188.79    9.89
   9  -1  10    4.39    0.84
   9  -1  11  118.00    6.41
   9  -1  12    1.13    0.46
  -9   1 -12    1.41    0.77
  -9   1 -13   19.69    2.12
   9  -1  13   21.10    1.57
   9  -1  14   16.13    1.41
  -9   1 -14   14.21    1.47
   9  -1  14   13.44    1.10
   9  -1  15    4.67    0.69
   9   0 -11   16.79    1.63
   9   0  -9   37.54    2.46
   9   0  -8   -0.06    0.46
   9   0  -7   15.27    2.03
   9   0  -7   11.95    1.37
   9   0  -7   12.13    1.47
   9   0  -6    4.92    0.93
   9   0  -6    3.44    0.89
   9   0  -5    8.38    1.27
   9   0  -5    8.29    1.29
   9   0  -5    7.33    1.63
   9   0  -5    8.42    1.17
   9   0  -4   63.24    3.99
   9   0  -4   55.35    4.59
   9   0  -4   48.98    3.56
   9   0  -4   53.54    3.85
   9   0  -3    0.43    0.58
   9   0  -3    0.90    0.73
   9   0  -3   -0.38    1.18
   9   0  -3    1.06    0.64
   9   0  -2   56.09    3.90
   9   0  -2   52.05    4.53
   9   0  -2   51.28    3.52
   9   0  -2   47.22    3.64
   9   0  -1    8.83    1.38
   9   0  -1    8.87    1.44
   9   0  -1    8.56    1.22
   9   0   0   32.97    2.82
   9   0   0   26.67    2.33
   9   0   0   27.77    3.09
   9   0   0   30.67    2.65
   9   0   1  157.71    8.52
   9   0   1  133.71    7.93
   9   0   1  142.19    8.97
   9   0   1  152.07    8.24
   9   0   2    1.14    0.78
   9   0   2    2.80    0.96
   9   0   2    0.33    0.80
   9   0   3  214.26   12.21
   9   0   3  230.06   12.88
   9   0   3  255.50   12.39
   9   0   4    3.38    0.94
   9   0   4    2.47    0.82
   9   0   4    4.53    1.17
   9   0   5   42.29    3.36
   9   0   5   48.84    3.74
   9   0   5   52.43    3.52
   9   0   6    5.60    1.09
   9   0   6    7.73    1.20
   9   0   6    7.16    1.21
   9   0   7   42.65    3.27
   9   0   7   52.28    3.49
   9   0   8   59.94    4.16
   9   0   8   70.42    4.34
   9   0   9   -0.10    0.65
   9   0   9    0.09    0.52
   9   0  10  233.71   12.52
   9   0  10  245.14   12.48
   9   0  11    0.78    0.63
   9   0  11    1.45    0.66
   9   0  12  105.55    5.94
   9   0  12   97.31    5.75
  -9   0 -13   29.00    2.57
   9   0  13   30.80    2.38
   9   0  13   32.04    2.31
   9   0  14    0.62    0.44
  -9   0 -14    0.61    0.51
   9   0  15   55.86    3.31
   9   0  16    3.76    0.55
   9   1 -11    0.82    0.41
   9   1 -11    0.68    0.38
   9   1 -10    8.10    1.23
   9   1 -10    8.27    0.99
   9   1  -9    1.36    0.60
   9   1  -9    1.36    0.70
   9   1  -9    0.50    0.83
   9   1  -9    0.12    0.44
   9   1  -8   20.96    1.94
   9   1  -8   18.50    2.31
   9   1  -8   23.55    2.53
   9   1  -8   20.83    1.83
   9   1  -8   15.81    1.75
   9   1  -7   67.28    4.39
   9   1  -7   67.56    5.21
   9   1  -7   68.13    4.35
   9   1  -7   67.37    4.41
   9   1  -6   22.44    2.13
   9   1  -6   21.56    2.66
   9   1  -6   19.71    1.93
   9   1  -6   19.65    2.25
   9   1  -6   20.43    2.06
   9   1  -5   22.74    2.92
   9   1  -5   22.84    2.11
   9   1  -5   22.77    2.45
   9   1  -5   20.02    2.15
   9   1  -4    1.15    0.78
   9   1  -4    1.22    1.06
   9   1  -4    0.79    0.73
   9   1  -4    1.69    0.90
   9   1  -3   63.99    5.25
   9   1  -3   66.96    4.32
   9   1  -3   60.12    4.66
   9   1  -3   69.25    4.54
   9   1  -2    3.45    1.04
   9   1  -2    3.62    1.31
   9   1  -2    3.80    0.91
   9   1  -2    5.75    1.20
   9   1  -1    7.89    1.31
   9   1  -1    6.37    1.60
   9   1  -1    7.07    1.20
   9   1  -1   10.18    1.52
   9   1   0   46.36    3.38
   9   1   0   42.35    3.58
   9   1   0   49.52    3.53
   9   1   1   14.28    1.80
   9   1   1   13.22    1.74
   9   1   2  220.42   12.11
   9   1   2  209.34   12.11
   9   1   2  223.50   12.50
   9   1   2  245.77   12.12
   9   1   3    0.11    0.61
   9   1   3    0.37    0.64
   9   1   3   -0.26    0.83
   9   1   3    0.14    0.65
   9   1   4   57.02    4.11
   9   1   4   58.32    5.25
   9   1   4   50.45    4.04
   9   1   4   62.31    4.08
   9   1   5   40.70    3.19
   9   1   5   31.12    2.91
   9   1   5   40.88    3.09
   9   1   6   15.41    1.89
   9   1   6   20.07    2.02
   9   1   7   38.54    3.28
   9   1   7   49.59    3.47
   9   1   8    9.03    1.34
   9   1   8    4.99    1.15
   9   1   8    6.52    1.08
   9   1   9   71.32    4.93
   9   1   9   75.01    4.89
   9   1   9   81.05    5.00
   9   1  10    6.20    1.13
   9   1  10    5.92    1.11
   9   1  10    5.37    1.03
   9   1  11    7.88    1.26
   9   1  11    6.86    1.18
   9   1  11    5.75    1.10
   9   1  12  128.41    7.30
   9   1  12  121.68    7.11
   9   1  13    1.94    0.74
   9   1  13    0.85    0.55
  -9  -1 -13    0.10    0.73
   9   1  14   92.17    5.16
   9   1  14   90.80    5.01
   9   1  15    0.15    0.49
   9   1  15    0.23    0.31
   9   1  15    0.17    0.45
   9   1  16   39.12    2.68
   9   1  16   39.62    2.63
   9   1  17   11.96    1.13
   9   2 -11   22.54    1.80
   9   2 -11   19.29    1.86
   9   2 -11   24.93    2.13
   9   2 -10    0.56    0.49
   9   2 -10    0.77    0.64
   9   2 -10    1.56    0.81
   9   2 -10    0.93    0.56
   9   2  -9    3.30    0.83
   9   2  -9    3.34    1.01
   9   2  -9    4.39    1.14
   9   2  -9    2.95    0.77
   9   2  -8   14.31    1.71
   9   2  -8   14.71    2.01
   9   2  -8   17.01    2.31
   9   2  -8   16.20    1.70
   9   2  -8   17.17    1.75
   9   2  -7   10.07    1.38
   9   2  -7    7.15    1.45
   9   2  -7    9.64    1.85
   9   2  -7    9.71    1.38
   9   2  -7    6.83    1.41
   9   2  -7    6.21    1.24
   9   2  -6  189.08   10.34
   9   2  -6  172.51   10.83
   9   2  -6  195.83   11.50
   9   2  -6  201.90   10.38
   9   2  -6  191.36   10.77
   9   2  -6  194.22   10.48
   9   2  -5   51.41    3.90
   9   2  -5   57.40    4.78
   9   2  -5   60.62    4.02
   9   2  -5   59.52    4.38
   9   2  -5   58.69    4.13
   9   2  -4   53.95    3.99
   9   2  -4   60.30    4.85
   9   2  -4   61.19    4.07
   9   2  -4   58.06    4.38
   9   2  -4   58.05    4.20
   9   2  -3   14.43    1.74
   9   2  -3   12.46    2.00
   9   2  -3   13.59    1.66
   9   2  -3   12.23    1.87
   9   2  -3   15.06    1.81
   9   2  -2   23.15    2.33
   9   2  -2   20.25    2.53
   9   2  -2   20.71    2.18
   9   2  -2   24.34    2.51
   9   2  -2   24.96    2.36
   9   2  -1   72.99    4.86
   9   2  -1   63.02    5.07
   9   2  -1   67.42    4.60
   9   2  -1   67.26    4.93
   9   2  -1   79.33    4.89
   9   2   0    4.26    1.05
   9   2   0    4.76    1.10
   9   2   0    4.46    1.34
   9   2   0    5.13    1.16
   9   2   0    4.20    1.05
  -9  -2   0    2.52    0.94
   9   2   1  119.01    7.02
   9   2   1  111.92    7.01
   9   2   1  116.21    8.32
   9   2   1  102.53    7.10
  -9  -2  -1  125.93    7.81
   9   2   1  113.89    7.06
   9   2   1  118.75    6.91
   9   2   2    2.33    0.82
  -9  -2  -2    1.91    0.88
   9   2   2    1.60    0.78
   9   2   2    1.52    0.78
   9   2   3   60.05    4.55
  -9  -2  -3   62.42    5.13
   9   2   3   61.41    4.40
   9   2   3   70.00    4.56
   9   2   4   89.63    5.79
   9   2   4   99.18    7.07
   9   2   4   97.33    5.64
   9   2   5    7.37    1.32
  -9  -2  -5    5.20    1.35
   9   2   5    7.52    1.41
   9   2   5    8.89    1.84
   9   2   6  165.84    9.05
   9   2   6  165.84   10.19
  -9  -2  -6  133.82    9.24
   9   2   6  149.03    8.65
   9   2   7    0.12    0.69
   9   2   7    0.99    0.80
   9   2   7   -0.23    0.73
   9   2   8   57.62    4.41
   9   2   8   58.81    4.12
   9   2   8   64.66    4.35
   9   2   9    0.61    0.68
   9   2   9   -0.24    0.49
   9   2  10    8.28    1.40
   9   2  10    8.95    1.36
   9   2  11  117.25    7.43
   9   2  11  133.45    7.47
   9   2  12    0.12    0.71
   9   2  12   -0.13    0.62
   9   2  13   51.64    3.84
   9   2  13   52.87    3.75
   9   2  14    1.54    0.74
   9   2  14    1.76    0.70
   9   2  15   59.22    4.04
   9   2  15   61.01    4.00
   9   2  16   35.60    2.72
   9   2  16   36.94    2.68
   9   2  17   35.68    2.46
   9   2  17   30.50    2.35
   9   2  18   47.98    2.90
   9   2  18   44.57    2.87
   9   3 -11   11.12    1.14
   9   3 -10   14.79    1.56
   9   3 -10   15.10    1.83
   9   3 -10   18.30    2.06
   9   3 -10   18.28    1.57
   9   3  -9   20.57    2.10
   9   3  -9   24.72    2.45
   9   3  -9   27.86    2.78
   9   3  -9   27.91    2.18
   9   3  -9   27.06    2.33
   9   3  -8    0.47    0.66
   9   3  -8   -0.14    0.69
   9   3  -8    0.31    0.84
   9   3  -8   -0.09    0.65
   9   3  -8    1.19    0.69
   9   3  -7  127.16    7.65
   9   3  -7  119.21    8.03
   9   3  -7  143.61    8.58
   9   3  -7  148.44    7.77
   9   3  -7  137.64    7.77
   9   3  -6    2.68    0.87
   9   3  -6    1.66    0.86
   9   3  -6    2.89    1.19
   9   3  -6    1.88    0.96
   9   3  -6    1.79    0.91
   9   3  -6    1.24    0.98
   9   3  -5   91.71    5.90
   9   3  -5   90.09    6.24
   9   3  -5   99.60    6.62
   9   3  -5   97.99    5.95
   9   3  -5   98.51    6.38
   9   3  -5  102.10    6.17
   9   3  -4   45.14    3.55
   9   3  -4   44.92    3.78
   9   3  -4   41.91    3.93
   9   3  -4   50.75    3.63
   9   3  -4   56.59    4.14
   9   3  -4   50.96    3.82
   9   3  -3   -0.13    0.70
   9   3  -3    0.82    0.71
   9   3  -3   -0.16    0.77
   9   3  -3   -0.34    0.72
   9   3  -3    0.16    0.75
   9   3  -2   52.37    4.07
   9   3  -2   58.61    4.54
   9   3  -2   61.37    4.20
   9   3  -2   60.20    4.57
   9   3  -2   64.43    4.34
   9   3  -1    0.12    0.62
   9   3  -1    0.38    0.60
   9   3  -1    0.22    0.66
   9   3  -1    0.30    0.77
   9   3  -1    0.12    0.67
   9   3  -1    0.47    0.72
   9   3   0   60.67    4.26
   9   3   0   60.48    4.36
   9   3   0   55.31    5.01
   9   3   0   50.50    4.23
  -9  -3   0   53.80    4.65
   9   3   0   62.55    4.52
   9   3   0   59.40    4.19
   9   3   1    5.79    1.19
   9   3   1    4.79    1.12
   9   3   1    6.50    1.31
   9   3   1    5.48    1.59
   9   3   1    6.51    1.23
   9   3   1    6.37    1.28
  -9  -3  -1    5.97    1.36
   9   3   2   29.28    2.69
   9   3   2   32.22    2.92
   9   3   2   32.66    3.57
   9   3   2   25.38    2.57
   9   3   2   30.79    2.85
  -9  -3  -2   29.87    3.27
   9   3   2   34.32    2.84
   9   3   3  176.59   10.06
   9   3   3  164.67    9.79
  -9  -3  -3  181.49   10.86
   9   3   3  180.51    9.80
   9   3   4   59.98    4.53
   9   3   4   57.08    5.14
   9   3   4   62.42    4.30
   9   3   5   49.38    4.00
   9   3   5   54.32    4.78
   9   3   5   44.99    3.84
   9   3   5   54.68    3.85
   9   3   6    0.25    0.71
   9   3   6    0.61    0.70
   9   3   6    0.70    0.74
   9   3   6    0.33    0.64
  -9  -3  -6    0.41    0.61
   9   3   7  105.85    6.99
   9   3   7  108.30    7.73
   9   3   7  108.66    7.25
  -9  -3  -7  113.42    7.57
   9   3   7  115.43    6.83
   9   3   8   10.28    1.55
   9   3   8    6.09    1.51
   9   3   8    6.66    1.15
   9   3   9   72.48    5.04
   9   3   9   80.27    5.20
   9   3  10  111.79    7.00
   9   3  10  115.11    6.99
   9   3  11   13.24    1.77
   9   3  11   13.97    1.79
   9   3  12   67.42    4.88
   9   3  12   71.33    4.85
   9   3  13    2.38    1.00
   9   3  13    1.14    0.66
   9   3  14   35.47    3.03
   9   3  14   32.46    2.85
   9   3  15   35.18    2.97
   9   3  15   36.50    2.94
   9   3  16    1.38    0.73
   9   3  16    0.34    0.52
   9   3  17  100.82    6.05
   9   3  17  107.08    6.03
   9   3  18    0.99    0.50
   9   3  18    0.08    0.50
   9   3  19   53.87    3.26
   9   3  19   55.34    3.16
   9   4 -11    8.89    0.99
   9   4 -10   32.14    2.32
   9   4  -9    0.96    0.80
   9   4  -9    0.93    0.59
   9   4  -9    0.93    0.56
   9   4  -8   56.29    4.06
   9   4  -8   56.78    4.21
   9   4  -8   58.52    3.79
   9   4  -8   57.26    3.89
   9   4  -7    0.21    0.58
   9   4  -7    0.41    0.64
   9   4  -7    0.43    0.75
   9   4  -7   -0.20    0.68
   9   4  -6   17.40    2.05
   9   4  -6   18.86    2.24
   9   4  -6   20.21    2.39
   9   4  -5  149.49    9.27
   9   4  -5  162.72    9.64
   9   4  -5  156.76    9.74
   9   4  -5  179.13    9.39
   9   4  -5  184.22    9.94
   9   4  -5  173.93    9.59
   9   4  -4   18.79    2.05
   9   4  -4   15.61    2.03
   9   4  -4   18.30    2.17
   9   4  -4   20.57    2.38
   9   4  -4   26.39    2.29
   9   4  -4   19.32    2.35
   9   4  -4   17.28    2.36
   9   4  -3   50.57    3.95
   9   4  -3   57.65    4.28
   9   4  -3   53.11    4.10
   9   4  -3   50.27    4.19
   9   4  -3   63.81    4.17
   9   4  -3   69.81    4.82
   9   4  -3   53.54    4.16
   9   4  -2    2.42    0.87
   9   4  -2    4.79    1.16
   9   4  -2    4.33    1.11
   9   4  -2    5.39    1.19
   9   4  -2    5.42    1.38
   9   4  -1   82.55    5.41
   9   4  -1   75.58    5.48
   9   4  -1   75.48    5.47
   9   4  -1   79.78    6.13
   9   4  -1   90.30    5.47
   9   4   0    3.40    1.05
   9   4   0    4.49    1.12
   9   4   0    4.36    1.02
   9   4   0    2.58    1.11
   9   4   0    3.89    1.02
   9   4   0    4.50    1.19
   9   4   1   -0.13    0.70
   9   4   1    0.14    0.75
   9   4   1    0.66    0.60
   9   4   1   -0.17    0.75
   9   4   2   93.18    6.19
   9   4   2   98.49    6.46
   9   4   2  100.04    7.21
   9   4   2  112.61    6.80
   9   4   3   52.45    4.08
   9   4   3   50.64    4.03
   9   4   4  332.01   17.30
   9   4   4  313.96   18.06
   9   4   4  326.64   17.07
   9   4   5   13.43    1.94
   9   4   5   11.12    2.07
   9   4   6   50.19    4.11
   9   4   6   51.55    4.58
   9   4   6   49.71    4.11
   9   4   7   16.73    2.38
   9   4   7   16.80    2.32
   9   4   8    5.22    1.37
   9   4   8    6.85    1.60
   9   4   9   78.68    5.24
  -9  -4 -10    0.41    0.59
   9   4  10    1.16    0.69
  -9  -4 -11  184.67   10.90
   9   4  11  208.64   11.25
  -9  -4 -12    9.82    1.59
   9   4  12    8.70    1.52
  -9  -4 -13   57.16    4.42
   9   4  13   68.05    4.80
  -9  -4 -14   72.55    5.20
   9   4  14   85.85    5.59
  -9  -4 -15    3.87    1.00
   9   4  15    4.58    1.11
  -9  -4 -16   93.59    6.11
   9   4  16  109.05    6.43
  -9  -4 -17   13.49    1.67
   9   4  17   19.65    1.95
  -9  -4 -18   47.36    3.52
   9   4  18   75.09    4.10
   9   4  19   17.13    1.57
   9   4  19   17.11    1.35
   9   5 -10    0.58    0.39
   9   5  -9   57.24    3.73
   9   5  -8    2.64    0.90
   9   5  -8    4.90    0.95
   9   5  -8    4.33    1.55
   9   5  -7    7.62    1.41
   9   5  -7   10.53    1.50
   9   5  -7   11.38    2.03
   9   5  -7    7.47    1.31
   9   5  -6   21.01    2.26
   9   5  -6   21.54    2.56
   9   5  -6   21.63    2.26
   9   5  -5    0.89    0.80
   9   5  -5    1.95    0.78
   9   5  -5    1.70    0.78
   9   5  -5    2.54    0.92
   9   5  -5    1.44    0.91
   9   5  -5   -0.12    1.48
   9   5  -4  214.44   12.62
   9   5  -4  237.56   13.17
   9   5  -4  218.49   12.89
   9   5  -4  273.21   13.73
   9   5  -4  244.30   12.93
   9   5  -4  268.00   13.24
   9   5  -3    3.61    1.14
   9   5  -3    6.52    1.25
   9   5  -3    4.64    1.22
   9   5  -3    5.63    1.24
   9   5  -3    5.25    1.59
   9   5  -2   26.43    2.61
   9   5  -2   27.09    2.83
   9   5  -2   27.52    2.63
   9   5  -2   26.79    2.81
   9   5  -2   31.89    2.86
   9   5  -1    1.64    0.99
   9   5  -1    1.26    0.86
   9   5  -1    1.67    0.84
   9   5  -1    1.73    0.73
   9   5  -1    0.50    0.87
   9   5  -1    0.95    1.26
   9   5   0   33.92    3.12
   9   5   0   41.41    3.41
   9   5   0   37.60    3.47
   9   5   0   41.28    3.35
   9   5   1   16.82    2.10
   9   5   1   22.14    2.34
   9   5   1   17.40    2.21
   9   5   1   20.34    2.22
   9   5   2   10.51    1.63
   9   5   2    9.86    1.59
   9   5   2    9.74    1.64
   9   5   2    8.09    1.45
   9   5   3  315.29   17.95
   9   5   3  377.34   18.61
   9   5   3  368.53   18.25
   9   5   4   41.99    3.64
   9   5   4   36.86    3.80
   9   5   4   43.43    3.46
   9   5   5   67.98    5.12
   9   5   5   65.53    5.42
   9   5   5   76.55    5.03
   9   5   6   64.62    4.88
   9   5   6   63.51    4.60
   9   5   7    0.69    0.81
   9   5   7   -0.17    0.83
   9   5   7    1.17    0.75
  -9  -5  -8   58.77    4.63
   9   5   8   75.43    5.48
   9   5   8   65.73    4.73
   9   5   9    0.44    0.84
  -9  -5  -9   -0.46    0.72
  -9  -5 -10  116.02    7.69
   9   5  10  124.66    7.64
   9   5  10  130.69    7.76
   9   5  11    1.28    0.91
  -9  -5 -11    0.49    0.66
   9   5  11    0.96    0.78
  -9  -5 -12   65.35    4.93
   9   5  12   69.69    4.98
   9   5  12   59.24    4.52
  -9  -5 -13   62.42    4.94
   9   5  13   64.86    4.93
   9   5  13   68.34    4.63
   9   5  14    1.05    0.76
  -9  -5 -14    2.64    1.02
   9   5  14    0.50    0.69
  -9  -5 -15   72.84    5.31
   9   5  15   69.41    5.24
   9   5  15   79.27    4.88
   9   5  16    4.58    0.93
  -9  -5 -16    2.48    0.96
   9   5  16    3.81    1.11
  -9  -5 -17   12.18    1.74
   9   5  17   13.87    1.50
   9   5  18    6.40    0.87
  -9  -5 -18    3.14    0.97
   9   5  18    5.40    1.07
  -9  -5 -19    8.15    1.17
   9   5  19   11.56    1.05
   9   6 -10   18.10    1.55
   9   6 -10   17.77    1.46
   9   6  -9    0.69    0.51
   9   6  -9    0.96    0.47
   9   6  -9    1.77    1.16
   9   6  -8   15.21    1.60
   9   6  -8   11.71    1.46
   9   6  -8   14.52    2.00
   9   6  -7   11.94    1.57
   9   6  -7   12.68    1.60
   9   6  -7   10.20    1.87
   9   6  -6    5.49    1.14
   9   6  -6    5.48    1.05
   9   6  -6    6.74    1.21
   9   6  -6    7.89    1.68
   9   6  -6    6.03    1.23
   9   6  -5  115.63    6.90
   9   6  -5   93.45    6.32
   9   6  -5  113.71    6.57
   9   6  -5  106.34    6.63
   9   6  -5  107.14    6.71
   9   6  -4    0.14    0.83
   9   6  -4    0.48    0.62
   9   6  -4    0.45    0.57
   9   6  -4    0.47    0.77
   9   6  -4   -0.13    1.17
   9   6  -3   34.79    3.08
   9   6  -3   41.09    3.46
   9   6  -3   42.24    3.62
   9   6  -2   16.67    1.83
   9   6  -2   25.31    2.68
   9   6  -2   19.20    2.30
   9   6  -2   24.01    2.55
   9   6  -1    0.44    0.88
   9   6  -1    0.58    0.56
   9   6  -1   -0.19    0.72
   9   6  -1   -0.60    1.04
   9   6   0   14.46    1.72
   9   6   0   18.29    2.39
   9   6   0   19.72    2.23
   9   6   1   21.31    2.23
   9   6   1   27.63    2.93
   9   6   1   28.89    2.71
   9   6   2   86.16    5.80
   9   6   2   95.97    6.61
   9   6   2  105.24    6.32
   9   6   3    2.76    1.05
   9   6   3    4.29    0.96
   9   6   3    4.20    1.20
   9   6   4   48.00    3.71
   9   6   4   53.25    4.33
   9   6   4   57.08    4.15
   9   6   5   91.85    6.01
   9   6   6    1.35    0.83
   9   6   7   49.29    3.82
   9   6   8    7.91    1.40
   9   6   9   76.70    6.11
   9   6   9   85.05    5.48
   9   6  10    9.03    1.49
   9   6  10    8.77    1.75
  -9  -6 -10    9.26    1.74
   9   6  11    9.97    1.53
   9   6  11   12.55    2.16
  -9  -6 -11   11.11    1.91
  -9  -6 -12   30.07    3.23
   9   6  12   28.68    2.62
  -9  -6 -13   61.94    5.16
   9   6  13   63.96    4.35
  -9  -6 -14   43.19    4.06
   9   6  14   42.22    3.19
   9   6  15    8.12    1.15
  -9  -6 -15    6.58    1.55
   9   6  16    5.88    0.96
  -9  -6 -16    3.31    1.15
   9   6  16    5.24    1.21
  -9  -6 -17   21.35    2.51
   9   6  17   25.59    2.00
   9   6  18    3.28    0.63
  -9  -6 -18    4.42    1.01
   9   6  18    4.41    1.01
  -9  -6 -19   24.90    2.19
   9   6  19   23.98    1.68
   9   7  -9    5.75    0.86
   9   7  -9    4.51    0.75
   9   7  -8   12.03    1.42
   9   7  -8   14.18    1.46
   9   7  -8   10.86    1.75
   9   7  -7    1.70    0.74
   9   7  -7    1.73    0.69
   9   7  -7    2.34    1.32
   9   7  -6   76.30    5.18
   9   7  -6   75.91    5.04
   9   7  -6   89.95    5.44
   9   7  -6   73.98    5.04
   9   7  -5   53.67    4.07
   9   7  -5   51.43    3.80
   9   7  -5   49.27    3.79
   9   7  -5   48.77    3.83
   9   7  -4  162.77    9.65
   9   7  -4  162.76    9.19
   9   7  -4  151.45    9.14
   9   7  -4  172.15    9.41
   9   7  -3  103.29    6.79
   9   7  -3  100.45    6.28
   9   7  -3   97.01    6.25
   9   7  -3   97.94    6.40
   9   7  -2   20.07    2.49
   9   7  -2   20.04    2.21
   9   7  -2   19.87    2.18
   9   7  -2   17.82    2.23
   9   7  -1   68.15    5.22
   9   7  -1   65.39    4.55
   9   7  -1   52.81    4.32
   9   7  -1   72.04    4.82
   9   7   0    0.13    0.75
   9   7   0    0.61    0.81
   9   7   0    0.81    0.71
   9   7   1   14.83    2.01
   9   7   1   15.70    2.27
   9   7   1   13.17    2.08
   9   7   1   16.01    1.90
   9   7   2   17.81    2.31
   9   7   2   18.52    2.54
   9   7   2   22.85    2.61
   9   7   2   19.57    2.14
   9   7   3    6.36    1.23
   9   7   3    7.16    1.47
   9   7   3    7.22    1.59
   9   7   3    6.74    1.47
   9   7   4   97.77    6.78
   9   7   4   96.60    7.01
   9   7   4  102.35    6.89
   9   7   4  107.47    6.32
   9   7   5    0.58    0.67
   9   7   5    1.95    0.99
   9   7   5    0.40    0.76
   9   7   5    0.51    0.63
   9   7   6  150.07    8.97
   9   7   6  122.09    8.62
   9   7   6  146.38    8.12
   9   7   7    1.13    0.69
   9   7   7    0.19    0.57
   9   7   7    0.95    0.87
   9   7   8   20.06    2.67
   9   7   8   21.10    2.74
   9   7   8   23.13    2.23
   9   7   9    3.59    0.92
   9   7   9    3.55    1.22
   9   7  10    8.38    1.36
   9   7  10    8.99    1.88
   9   7  11  167.71   10.32
  -9  -7 -11  156.33    9.92
   9   7  11  154.49    8.75
   9   7  12   39.41    3.96
  -9  -7 -12   37.41    3.76
   9   7  12   32.90    2.76
   9   7  13   14.12    2.31
  -9  -7 -13   12.53    2.03
   9   7  13   13.30    1.54
   9   7  14    0.08    0.51
  -9  -7 -14   -0.55    0.82
   9   7  15    0.75    0.49
  -9  -7 -15    1.85    0.96
   9   7  16    6.74    0.91
  -9  -7 -16    5.71    1.32
   9   7  17    5.25    0.78
  -9  -7 -17    5.25    1.19
  -9  -7 -18  159.06    8.87
   9   7  18  158.66    9.01
  -9  -7 -19   12.07    1.41
   9   7  19   14.36    1.46
   9   8  -9   38.33    2.67
   9   8  -8    1.84    0.56
   9   8  -8    3.21    0.67
   9   8  -8    2.89    1.14
   9   8  -7   22.75    2.05
   9   8  -7   28.78    2.25
   9   8  -7   24.28    2.31
   9   8  -6    1.04    0.62
   9   8  -6    0.84    0.72
   9   8  -6    2.04    0.77
   9   8  -6    1.30    0.95
   9   8  -5   50.99    3.92
   9   8  -5   52.80    3.69
   9   8  -5   47.20    3.65
   9   8  -4    6.07    1.30
   9   8  -4    5.82    1.25
   9   8  -4    5.69    1.19
   9   8  -4    3.50    0.97
   9   8  -3    3.80    1.12
   9   8  -3    4.02    1.13
   9   8  -3    2.74    0.96
   9   8  -3    5.14    1.10
   9   8  -2  240.81   13.18
   9   8  -2  245.57   12.56
   9   8  -2  209.71   12.29
   9   8  -2  227.16   12.21
   9   8  -1   -0.80    0.78
   9   8  -1    0.20    0.89
   9   8  -1   -0.19    0.90
   9   8  -1    0.13    0.82
   9   8  -1   -0.12    0.59
   9   8   0   11.98    1.63
   9   8   0   15.28    2.28
   9   8   0   15.50    2.18
   9   8   0   14.38    1.91
   9   8   1    7.32    1.24
   9   8   1    4.77    1.38
   9   8   1    6.71    1.57
   9   8   1    6.63    1.35
   9   8   2    0.86    0.65
   9   8   2    1.75    0.92
   9   8   2    0.66    0.78
   9   8   2    1.02    0.79
   9   8   3   29.81    3.02
   9   8   3   33.33    3.54
   9   8   3   32.17    3.38
   9   8   3   30.72    2.63
   9   8   4    1.32    0.65
   9   8   4    1.63    0.96
   9   8   4    0.89    0.90
   9   8   4    1.38    0.85
   9   8   5  111.28    7.08
   9   8   5   97.37    7.35
   9   8   5  106.63    7.19
   9   8   5  108.03    6.30
   9   8   6   13.24    1.90
   9   8   6   15.26    2.09
   9   8   6   11.91    2.10
   9   8   6   14.24    2.05
   9   8   6   13.38    1.59
   9   8   7   14.99    2.14
   9   8   7   15.44    2.13
   9   8   7   14.23    2.25
   9   8   7   15.01    1.65
   9   8   8    5.94    1.03
   9   8   8    4.74    1.40
   9   8   8    4.95    1.30
   9   8   8    5.17    1.30
   9   8   9    5.97    1.04
   9   8   9    8.16    1.75
   9   8   9    7.15    1.50
   9   8  10   99.44    7.16
   9   8  10   93.82    5.62
   9   8  11    0.08    0.53
   9   8  11    0.48    0.96
   9   8  12   39.35    4.06
  -9  -8 -12   35.87    3.49
   9   8  12   34.80    2.62
   9   8  13   14.12    2.37
  -9  -8 -13   14.86    2.12
   9   8  13   13.22    1.38
   9   8  14    2.90    0.64
   9   8  14    5.26    1.54
  -9  -8 -14    2.73    0.99
  -9  -8 -15    0.30    0.66
  -9  -8 -16   27.35    2.70
  -9  -8 -17  100.46    6.21
  -9  -8 -18   23.20    2.14
   9   8  18   21.33    2.10
  -9  -8 -19    1.58    0.53
   9   8  19    0.38    0.42
   9   9  -8    7.58    1.24
   9   9  -7    6.41    0.93
   9   9  -7    6.19    1.21
   9   9  -6    1.51    0.66
   9   9  -6    0.78    0.76
   9   9  -5    4.75    1.12
   9   9  -5    3.25    0.92
   9   9  -4   15.98    1.95
   9   9  -4   14.74    1.54
   9   9  -4   10.90    1.58
   9   9  -3   89.72    5.87
   9   9  -3   84.17    5.03
   9   9  -3   74.00    5.22
   9   9  -2   35.49    3.30
   9   9  -2   31.32    2.57
   9   9  -2   26.88    2.69
   9   9  -1   49.77    4.20
   9   9  -1   47.78    3.37
   9   9  -1   51.45    4.19
   9   9  -1   36.67    3.36
   9   9   0   48.09    4.37
   9   9   0   52.10    4.36
   9   9   0   45.13    3.44
   9   9   1    0.97    0.58
   9   9   1    1.53    0.91
   9   9   1    0.82    0.86
   9   9   1    0.86    0.66
   9   9   2   22.49    2.83
   9   9   2   20.87    2.68
   9   9   2   17.14    1.92
   9   9   2   18.16    1.79
   9   9   3    8.58    1.17
   9   9   3    6.97    1.71
   9   9   3    5.29    1.51
   9   9   4   66.11    4.64
   9   9   4   64.44    5.54
   9   9   4   70.09    5.46
   9   9   4   64.81    4.15
   9   9   5    6.28    1.01
   9   9   5    7.43    1.36
   9   9   5    7.11    1.82
   9   9   5    7.97    1.63
   9   9   6    4.67    0.87
   9   9   6    6.85    1.32
   9   9   6    7.54    1.72
   9   9   6    7.04    1.56
   9   9   7   10.90    1.79
   9   9   7   12.42    1.68
   9   9   7    9.51    1.93
   9   9   7    6.04    1.52
   9   9   7    9.29    1.16
   9   9   8   26.73    3.00
   9   9   8   27.40    2.64
   9   9   8   22.70    3.00
   9   9   9   19.37    2.67
   9   9   9   21.09    2.20
   9   9   9   12.64    2.22
   9   9  10   13.49    2.25
   9   9  10   14.15    1.78
   9   9  10    9.76    1.88
   9   9  11   85.62    6.34
   9   9  11   70.51    4.99
   9   9  12    0.73    0.98
  -9  -9 -12    0.77    0.75
   9   9  13    7.83    1.86
  -9  -9 -13    6.84    1.40
   9   9  14    0.48    0.97
  -9  -9 -14    0.99    0.77
   9   9  15   -0.22    0.89
  -9  -9 -15    1.83    0.77
  -9  -9 -16   23.93    2.33
  -9  -9 -17   23.99    2.25
  -9  -9 -18   11.09    1.32
   9   9  18   10.44    1.04
  -9  -9 -19    0.11    0.33
   9  10  -7    2.89    0.90
   9  10  -6    4.41    0.79
   9  10  -6    4.08    0.98
   9  10  -5   40.64    2.98
   9  10  -4   88.06    5.43
   9  10  -4   75.84    4.98
   9  10  -3    0.87    0.67
   9  10  -3    0.52    0.53
   9  10  -2    5.76    1.34
   9  10  -2    5.49    1.25
   9  10  -2    3.39    0.90
   9  10  -1   11.67    1.90
   9  10  -1   13.13    1.99
   9  10   0    5.38    1.37
   9  10   0    3.61    1.23
   9  10   1   16.82    2.42
   9  10   1   16.34    2.35
   9  10   2   19.59    2.70
   9  10   2   19.95    2.66
   9  10   2   19.57    1.80
   9  10   3   32.53    3.63
   9  10   3   34.98    3.60
   9  10   3   30.70    2.44
   9  10   4   -0.24    0.85
   9  10   4    0.65    0.99
   9  10   4    0.34    0.48
   9  10   5    1.65    0.67
   9  10   5    0.98    1.06
   9  10   5    1.07    1.01
   9  10   6   27.06    2.38
   9  10   6   29.73    3.55
   9  10   6   26.45    3.08
   9  10   7   11.24    1.40
   9  10   7    8.88    2.07
   9  10   7    7.24    1.60
   9  10   8   22.49    2.08
   9  10   8   18.90    2.89
   9  10   8   20.10    2.54
   9  10   9    8.91    1.72
   9  10   9    5.13    1.06
   9  10   9    4.68    1.57
   9  10  10   38.38    3.79
   9  10  10   30.88    2.60
   9  10  10   30.79    3.58
   9  10  11   12.15    2.16
   9  10  11    7.34    1.18
   9  10  11    8.35    1.68
   9  10  12    2.60    1.30
   9  10  12    2.99    0.78
  -9 -10 -12    2.98    0.99
   9  10  13   18.71    2.65
   9  10  13   17.68    1.71
  -9 -10 -13   16.19    2.02
   9  10  14    0.20    0.85
   9  10  14    0.95    0.50
  -9 -10 -14    0.62    0.67
   9  10  15    5.00    1.35
  -9 -10 -15    4.85    1.04
   9  10  16    1.34    0.91
  -9 -10 -16    1.69    0.66
  -9 -10 -17    2.75    0.76
   9  11  -5    2.05    0.55
   9  11  -5    1.04    0.57
   9  11  -4    0.43    0.47
   9  11  -3    8.60    1.15
   9  11  -2   20.41    2.19
   9  11  -2   12.76    1.43
   9  11  -1    7.12    1.50
   9  11  -1    9.28    1.56
   9  11   0   40.33    3.75
   9  11   0   40.39    3.70
   9  11   1   11.49    1.99
   9  11   1   11.18    1.90
   9  11   2    1.30    1.03
   9  11   2    2.41    1.03
   9  11   3   -0.23    0.72
   9  11   3    1.46    0.90
   9  11   4    1.67    1.07
   9  11   4    2.12    1.16
   9  11   5   24.87    3.23
   9  11   5   25.27    3.06
   9  11   6    1.25    1.12
   9  11   6    3.12    1.23
   9  11   7   10.59    2.21
   9  11   7   10.35    1.89
   9  11   8    5.00    1.49
   9  11   8    4.45    1.14
   9  11   9    1.95    1.15
   9  11  10    7.74    1.62
   9  11  10    5.71    1.62
   9  11  11    7.06    1.59
   9  11  11    4.80    1.40
   9  11  12    9.93    1.79
  -9 -11 -12   13.68    1.69
   9  11  12    9.57    1.71
   9  11  13   31.32    3.12
  -9 -11 -13   28.63    2.64
   9  11  14   17.60    2.22
   9  11  15    9.01    1.44
   9  11  16    3.92    0.96
   9  12  -4    1.64    0.46
   9  12  -3   25.61    2.20
   9  12  -1   40.81    3.41
   9  12   0   15.60    2.10
   9  12   0   13.38    1.96
   9  12   1    7.32    1.60
   9  12   1    5.07    1.35
   9  12   2    0.80    1.02
   9  12   2    1.09    0.89
   9  12   3    1.94    1.13
   9  12   3    1.32    0.99
   9  12   4    5.23    1.49
   9  12   4    2.06    1.03
   9  12   5    2.07    1.12
   9  12   5    0.72    0.83
   9  12   6   12.06    2.25
   9  12   6   13.98    2.03
   9  12   7    2.87    1.18
   9  12   7    0.15    0.64
   9  12   8    0.84    1.02
   9  12   8    2.97    0.87
   9  12   9    1.56    0.95
   9  12  10   57.16    4.71
   9  12  11    0.77    0.76
   9  12  12   13.06    1.72
   9  12  12   10.58    1.65
   9  12  13   11.97    1.57
   9  12  13   10.05    1.38
   9  12  14    9.25    1.37
   9  12  15    1.99    0.66
  -9 -12 -15    1.99    0.61
   9  12  16   -0.13    0.30
  -9 -12 -16    0.54    0.32
   9  13  -1    9.13    1.15
   9  13   0    2.56    0.77
   9  13   1    1.32    0.69
   9  13   2    7.01    1.29
   9  13   2    7.86    1.36
   9  13   3    3.91    1.20
   9  13   3    3.16    0.97
   9  13   4   14.62    2.04
   9  13   4   12.49    1.78
   9  13   5   11.59    1.91
   9  13   5   12.71    1.69
   9  13   6    5.42    1.33
   9  13   6    3.43    0.96
   9  13   7   10.62    1.72
   9  13   7    5.74    1.12
   9  13   8    2.83    0.99
   9  13   8    1.88    0.61
   9  13   9   40.60    3.49
   9  13  10    0.12    0.52
  -9 -13 -11   13.76    1.48
   9  13  11   11.38    1.54
   9  13  12    1.20    0.59
  -9 -13 -12    1.47    0.55
  -9 -13 -13    5.20    0.82
  -9 -13 -14    0.41    0.31
   9  14   3   10.64    1.21
   9  14   4    3.76    0.87
   9  14   4    4.39    0.79
   9  14   5   12.07    1.47
   9  14   5   11.43    1.28
   9  14   6    1.40    0.63
   9  14   6    1.30    0.47
   9  14   7    0.94    0.54
   9  14   8   14.37    1.63
   9  14   9    2.01    0.67
  -9 -14  -9    1.85    0.55
   9  14  10   13.04    1.52
  -9 -14 -10   12.81    1.33
  10  -3  -3    9.84    1.13
 -10   3   2    1.92    0.46
  10  -3  -2    2.22    0.45
  10  -3  -2    1.32    0.60
  10  -3  -1   34.83    2.30
  10  -3  -1   37.77    2.65
  10  -3   0    1.66    0.42
  10  -3   0    0.97    0.51
  10  -3   1    7.76    0.87
  10  -3   1    7.42    1.04
  10  -3   2   12.92    1.15
  10  -3   2   13.57    1.39
  10  -3   3    0.15    0.28
  10  -3   3    0.46    0.40
  10  -3   4   16.62    1.30
  10  -3   5    0.75    0.31
 -10   3  -6   34.57    2.45
 -10   3  -7   -0.05    0.38
 -10   3  -8    3.67    0.70
  10  -2  -6   12.74    1.25
  10  -2  -5    2.07    0.49
  10  -2  -5    1.79    0.59
  10  -2  -4   25.82    1.96
  10  -2  -4   28.07    2.23
  10  -2  -3    1.40    0.52
  10  -2  -3    1.97    0.65
  10  -2  -2   72.90    4.12
  10  -2  -2   65.80    4.43
  10  -2  -1   -0.06    0.44
  10  -2  -1    0.35    0.51
  10  -2   0    7.60    1.01
  10  -2   0    7.95    1.18
  10  -2   1   12.86    1.32
  10  -2   1   11.23    1.47
  10  -2   2    1.67    0.59
  10  -2   2    1.33    0.66
  10  -2   3   42.43    2.85
  10  -2   4    0.57    0.45
  10  -2   5   42.43    2.84
  10  -2   6    1.11    0.46
  10  -2   7    6.83    0.90
  10  -2   8   12.70    1.21
  10  -2   9    0.65    0.30
 -10   2 -10   53.57    3.51
  10  -1  -7    1.45    0.43
  10  -1  -7    1.43    0.50
  10  -1  -6    1.75    0.50
  10  -1  -6    0.42    0.50
  10  -1  -5   19.74    1.67
  10  -1  -5   19.28    1.90
  10  -1  -4    5.19    0.86
  10  -1  -4    3.63    0.92
  10  -1  -3   52.67    3.32
  10  -1  -3   48.62    3.67
  10  -1  -2    0.29    0.53
  10  -1  -2   -0.11    0.68
  10  -1  -2    0.64    0.39
  10  -1  -1   26.71    2.04
  10  -1  -1   26.81    2.38
  10  -1   0   65.67    3.82
  10  -1   0   63.30    4.26
  10  -1   1   21.13    1.81
  10  -1   1   19.93    2.07
  10  -1   2   50.41    3.10
  10  -1   2   42.61    3.32
  10  -1   3   29.33    2.30
  10  -1   3   24.07    1.95
  10  -1   4   39.11    2.70
  10  -1   4   28.99    2.25
  10  -1   5    1.28    0.50
  10  -1   5    2.86    0.78
  10  -1   6    2.37    0.55
  10  -1   6    1.78    0.71
  10  -1   7   28.32    2.17
  10  -1   7   24.38    1.84
  10  -1   8    0.26    0.33
  10  -1   8    0.07    0.44
  10  -1   9   23.09    1.78
  10  -1   9   19.23    1.46
  10  -1  10    1.89    0.56
  10  -1  11   28.97    2.00
 -10   1 -11   30.45    2.66
  10  -1  12    0.75    0.31
 -10   1 -12    0.56    0.44
  10   0  -8   13.82    1.38
  10   0  -7    0.72    0.49
  10   0  -6    8.76    1.30
  10   0  -5    2.36    0.86
  10   0  -5    1.13    0.52
  10   0  -4   46.32    2.97
  10   0  -4   48.88    3.52
  10   0  -3    7.44    1.07
  10   0  -3    5.60    1.18
  10   0  -3    4.70    0.88
  10   0  -2   39.27    2.77
  10   0  -2   33.95    3.14
  10   0  -2   33.93    2.62
  10   0  -1   13.73    1.52
  10   0  -1   11.59    1.80
  10   0  -1   10.85    1.35
  10   0   0    0.08    0.53
  10   0   0    0.18    0.60
  10   0   0    0.14    0.77
  10   0   1   69.02    4.20
  10   0   1   54.64    4.41
  10   0   1   61.66    3.97
  10   0   2    3.54    0.87
  10   0   2    4.44    1.05
  10   0   2    5.81    1.24
  10   0   3  174.38    8.52
  10   0   3  134.66    8.02
  10   0   4    4.60    0.88
  10   0   4    3.71    0.94
  10   0   5    0.83    0.58
  10   0   5    1.04    0.71
  10   0   6   36.54    2.83
  10   0   6   39.60    2.73
  10   0   7    3.01    0.70
  10   0   8    8.65    1.09
  10   0   9    0.43    0.45
  10   0  10   32.37    2.24
  10   0  11    1.71    0.49
  10   0  12    0.16    0.30
 -10   0 -12    0.56    0.50
  10   0  13   17.22    1.24
  10   1  -8    0.54    0.39
  10   1  -8    0.33    0.43
  10   1  -7   31.36    2.14
  10   1  -7   30.69    2.43
  10   1  -6   11.94    1.32
  10   1  -6   14.07    1.68
  10   1  -6   12.21    1.18
  10   1  -6   10.65    1.22
  10   1  -5   10.09    1.19
  10   1  -5    8.55    1.46
  10   1  -5    6.67    0.99
  10   1  -5    7.24    1.04
  10   1  -4    2.03    0.99
  10   1  -4    2.70    0.64
  10   1  -4    2.62    0.74
  10   1  -3   11.45    1.78
  10   1  -3   10.53    1.24
  10   1  -3   12.65    1.48
  10   1  -2   28.37    2.83
  10   1  -2   26.49    2.13
  10   1  -2   25.63    2.30
  10   1  -1    3.15    0.92
  10   1  -1    3.68    1.09
  10   1  -1    3.66    0.79
  10   1   0   63.65    4.77
  10   1   0   66.65    4.14
  10   1   0   68.37    4.39
  10   1   1    5.17    1.06
  10   1   1    6.43    1.35
  10   1   1    5.45    0.95
  10   1   2    9.84    1.33
  10   1   2    6.43    1.04
  10   1   3    2.79    0.84
  10   1   3    4.15    0.84
  10   1   4    5.13    1.06
  10   1   5   73.70    4.44
  10   1   5   69.87    4.28
  10   1   6   -0.18    0.55
  10   1   6   -0.25    0.50
  10   1   7   17.40    1.69
  10   1   7   19.79    1.83
  10   1   8    1.66    0.71
  10   1   8    0.69    0.50
  10   1   9    6.75    1.05
  10   1   9    6.78    0.95
  10   1  10    2.09    0.64
  10   1  10    2.52    0.60
  10   1  11   20.87    1.78
 -10  -1 -12   25.58    2.33
  10   1  12   34.14    2.26
  10   1  13    8.24    0.96
  10   1  14    1.08    0.39
  10   2  -8   64.84    3.66
  10   2  -8   60.79    3.96
  10   2  -8   56.55    3.41
  10   2  -7    5.56    0.90
  10   2  -7    5.62    1.18
  10   2  -7    6.45    0.87
  10   2  -6   11.33    1.29
  10   2  -6   10.11    1.57
  10   2  -6   12.96    1.31
  10   2  -6    9.45    1.24
  10   2  -5    0.47    0.52
  10   2  -5    0.53    0.67
  10   2  -5    0.64    0.57
  10   2  -5    0.32    0.60
  10   2  -4    3.52    0.85
  10   2  -4    3.28    0.85
  10   2  -4    4.21    1.14
  10   2  -4    3.09    0.81
  10   2  -3   24.83    2.19
  10   2  -3   26.91    2.69
  10   2  -3   23.41    2.09
  10   2  -3   25.02    2.38
  10   2  -3   27.32    2.36
  10   2  -2   10.02    1.37
  10   2  -2    8.58    1.23
  10   2  -2    7.67    1.45
  10   2  -2    7.27    1.16
  10   2  -2    8.68    1.35
  10   2  -1   63.47    4.10
  10   2  -1   52.97    4.28
  10   2  -1   62.51    3.95
  10   2  -1   55.06    4.12
  10   2  -1   61.40    4.09
  10   2   0    0.10    0.70
  10   2   0    1.26    0.66
  10   2   0   -0.12    0.62
  10   2   0    1.00    0.55
  10   2   0    0.45    0.57
  10   2   1    2.47    0.83
  10   2   1    0.56    0.60
  10   2   1    0.92    0.57
  10   2   2   55.21    3.87
  10   2   2   55.28    3.68
  10   2   2   49.67    3.69
  10   2   3   24.82    2.32
  10   2   3   22.51    2.20
  10   2   3   26.15    2.31
  10   2   4   27.80    2.50
  10   2   4   23.47    2.29
  10   2   4   28.92    2.45
  10   2   5    1.81    0.76
  10   2   5    2.05    0.75
  10   2   6   34.26    2.93
  10   2   6   40.13    2.94
  10   2   7    1.18    0.68
  10   2   7    1.79    0.70
  10   2   8    0.10    0.59
  10   2   8    0.72    0.53
  10   2   9   17.59    1.81
  10   2   9   17.22    1.82
  10   2  10   51.31    3.57
  10   2  10   53.54    3.58
  10   2  11   24.06    2.15
  10   2  11   30.64    2.32
  10   2  12    7.01    1.01
  10   2  12    8.64    1.13
  10   2  13    0.21    0.44
  10   2  13    0.63    0.40
  10   2  14    0.43    0.49
  10   2  14    0.58    0.33
  10   2  15    0.52    0.42
  10   2  16    9.02    0.91
  10   3  -9   13.04    1.14
  10   3  -8    7.81    0.99
  10   3  -8    9.48    1.28
  10   3  -8    9.86    1.03
  10   3  -7   57.88    3.83
  10   3  -7   60.27    4.25
  10   3  -7   71.20    3.92
  10   3  -6    1.90    0.72
  10   3  -6    5.71    1.18
  10   3  -6    4.45    0.86
  10   3  -6    2.63    0.83
  10   3  -6    3.08    0.77
  10   3  -5    0.97    0.61
  10   3  -5    0.12    0.64
  10   3  -5    1.11    0.62
  10   3  -5    0.84    0.63
  10   3  -5    0.68    0.62
  10   3  -4   17.01    1.73
  10   3  -4   15.65    1.96
  10   3  -4   16.21    1.67
  10   3  -4   17.36    1.89
  10   3  -4   16.27    1.76
  10   3  -3    3.93    1.02
  10   3  -3    4.38    0.93
  10   3  -3    4.90    1.16
  10   3  -3    6.38    1.03
  10   3  -3    4.66    1.01
  10   3  -2   47.37    3.29
  10   3  -2   40.13    3.42
  10   3  -2   44.31    3.21
  10   3  -2   45.82    3.48
  10   3  -2   45.91    3.41
  10   3  -1    5.09    1.09
  10   3  -1    3.83    0.94
  10   3  -1    4.35    1.08
  10   3  -1    5.34    1.05
  10   3  -1    6.22    1.17
  10   3   0    3.60    0.98
  10   3   0    2.86    0.90
  10   3   0    1.60    0.73
  10   3   0    2.36    0.81
  10   3   1    1.86    0.88
  10   3   1    3.03    0.94
  10   3   1    2.65    0.84
  10   3   1    1.95    0.75
  10   3   2   62.16    4.31
  10   3   2   59.21    4.17
  10   3   2   64.64    4.28
  10   3   3   30.52    2.54
  10   3   3   24.66    2.42
  10   3   3   21.38    2.16
  10   3   3   28.75    2.47
  10   3   4   17.81    1.96
  10   3   4   17.54    2.03
  10   3   4   20.08    2.01
  10   3   5   28.13    2.65
  10   3   5   30.84    2.60
  10   3   6    9.86    1.50
  10   3   6   11.36    1.51
  10   3   7    1.51    0.72
  10   3   7    2.09    0.80
  10   3   8   14.05    1.83
  10   3   8   19.96    1.95
  10   3   9   19.36    2.14
  10   3   9   25.11    2.21
  10   3  10    5.22    1.09
  10   3  10    5.56    1.10
  10   3  11    6.00    1.13
  10   3  11    5.80    1.07
  10   3  12    8.12    1.20
  10   3  12    8.04    1.26
  10   3  13    0.95    0.61
  10   3  13   -0.09    0.59
  10   3  14   28.31    2.35
  10   3  14   35.56    2.51
  10   3  15    1.23    0.56
  10   3  15    1.20    0.48
  10   3  16   18.71    1.57
  10   3  16   28.43    1.89
  10   3  17   38.05    2.35
  10   4  -9    0.47    0.34
  10   4  -8   10.76    1.12
  10   4  -7    3.92    0.86
  10   4  -7    6.06    0.90
  10   4  -6    4.38    0.94
  10   4  -6    5.35    0.98
  10   4  -6    6.55    1.10
  10   4  -6    3.96    0.88
  10   4  -5   10.72    1.48
  10   4  -5   11.71    1.64
  10   4  -5   18.59    1.70
  10   4  -5   16.31    1.80
  10   4  -5   17.60    1.77
  10   4  -4   28.61    2.55
  10   4  -4   33.25    2.58
  10   4  -4   35.63    2.83
  10   4  -4   32.90    2.69
  10   4  -3   23.58    2.26
  10   4  -3   31.44    2.42
  10   4  -3   26.88    2.50
  10   4  -3   24.28    2.40
  10   4  -2    0.22    0.66
  10   4  -2    0.68    0.52
  10   4  -2    0.10    0.56
  10   4  -2    0.13    0.54
  10   4  -1    3.51    1.03
  10   4  -1    2.13    0.79
  10   4  -1    3.27    0.86
  10   4  -1    2.68    0.85
  10   4   0   20.85    2.12
  10   4   0   24.66    2.24
  10   4   0   22.83    2.32
  10   4   0   23.40    2.31
  10   4   1   11.79    1.58
  10   4   1   12.97    1.64
  10   4   1   14.19    1.71
  10   4   1   12.76    1.67
  10   4   2   11.50    1.62
  10   4   2    9.25    1.47
  10   4   2   11.20    1.56
  10   4   2   10.63    1.49
  10   4   3    3.78    1.02
  10   4   3    2.33    0.89
  10   4   3    2.31    0.88
  10   4   3    3.12    0.83
  10   4   4   10.35    1.51
  10   4   4   14.01    1.83
  10   4   4   13.29    1.69
  10   4   5    0.40    0.63
  10   4   6    0.54    0.70
  10   4   7   21.10    2.30
  10   4   8   31.70    2.92
  10   4   9    0.13    0.71
  10   4  10   13.17    1.75
  10   4  11    2.51    0.93
  10   4  12    4.65    1.10
  10   4  13   13.95    1.74
  10   4  14   19.50    1.97
  10   4  15   40.25    2.98
  10   4  16    0.14    0.51
  10   4  17   12.34    1.21
  10   5  -9    0.68    0.36
  10   5  -8    7.54    0.91
  10   5  -7    1.92    0.65
  10   5  -6   22.92    1.98
  10   5  -6   22.55    2.05
  10   5  -5   13.20    1.53
  10   5  -5   14.23    1.65
  10   5  -4    4.07    0.93
  10   5  -4    2.91    0.84
  10   5  -3    2.69    0.82
  10   5  -3    1.76    0.75
  10   5  -2    0.87    0.63
  10   5  -2    1.31    0.74
  10   5  -2    0.40    0.71
  10   5  -1   16.64    1.78
  10   5  -1   16.46    1.81
  10   5  -1   18.42    2.03
  10   5   0    1.48    0.67
  10   5   0    0.82    0.50
  10   5   0    2.61    0.84
  10   5   0    0.83    0.71
  10   5   1   11.83    1.58
  10   5   1   14.30    1.73
  10   5   1   13.75    1.81
  10   5   2   26.36    2.60
  10   5   2   34.71    2.96
  10   5   2   33.22    2.88
  10   5   3    4.14    1.03
  10   5   3    2.81    0.97
  10   5   3    3.25    0.96
  10   5   4   27.95    2.62
  10   5   4   24.85    2.29
  10   5   5    8.10    1.41
  10   5   5    9.24    1.55
  10   5   6    6.67    1.30
  10   5   6    7.56    1.41
  10   5   7   29.77    2.90
  10   5   7   29.69    2.74
  10   5   8   23.29    2.47
  10   5   8   21.61    2.29
  10   5   9    3.53    0.97
  10   5   9    1.89    0.90
  10   5  10   16.43    2.01
  10   5  10   15.00    1.85
  10   5  11    1.63    0.85
  10   5  11    0.70    0.69
  10   5  12    3.45    0.98
  10   5  12    4.75    1.15
  10   5  13    9.04    1.26
  10   5  14   10.65    1.33
  10   5  15    0.14    0.47
  10   5  16   16.65    1.71
  10   5  16   14.28    1.36
  10   5  17   12.85    1.34
  10   5  17   12.44    1.10
  10   6  -8    0.42    0.36
  10   6  -7   11.43    1.26
  10   6  -5    9.49    1.33
  10   6  -5    9.36    1.32
  10   6  -4    5.01    1.07
  10   6  -4    3.39    0.95
  10   6  -3    9.44    1.51
  10   6  -3    8.40    1.29
  10   6  -2    0.96    0.80
  10   6  -2    0.11    0.44
  10   6  -2    0.14    0.67
  10   6  -1   13.60    1.73
  10   6  -1   13.94    1.85
  10   6   0   13.56    1.78
  10   6   0   16.61    2.07
  10   6   0   20.14    2.17
  10   6   1   65.06    4.47
  10   6   1   60.65    4.16
  10   6   2   10.40    1.60
  10   6   2    8.57    1.27
  10   6   2    7.78    1.29
  10   6   2   10.17    1.61
  10   6   3    0.76    0.81
  10   6   3    0.29    0.59
  10   6   3    0.42    0.65
  10   6   4   36.81    3.08
  10   6   4   48.64    3.59
  10   6   4   43.86    3.48
  10   6   5    3.02    0.95
  10   6   5    1.76    0.69
  10   6   6  100.16    6.11
  10   6   6   97.20    5.82
  10   6   7   18.91    2.28
  10   6   7   18.30    2.05
 -10  -6  -8    8.33    1.42
  10   6   8   11.43    1.62
  10   6   9   10.10    1.49
  10   6   9    8.24    1.64
 -10  -6  -9    7.14    1.26
  10   6  10    0.76    0.71
  10   6  10   -0.31    0.73
 -10  -6 -10    0.13    0.55
  10   6  11  107.80    6.91
  10   6  11  119.22    6.42
  10   6  12    1.31    0.62
  10   6  12    1.49    0.92
 -10  -6 -12    0.51    0.63
 -10  -6 -13   97.94    6.60
  10   6  13  119.24    6.36
  10   6  14    1.04    0.54
 -10  -6 -14    0.91    0.57
 -10  -6 -15   15.37    1.73
  10   6  15   16.16    1.49
  10   6  16   99.04    5.47
  10   6  16   98.26    4.90
  10   6  17   21.07    1.77
  10   6  17   18.71    1.41
  10   6  18   18.66    1.47
  10   7  -7    7.65    0.94
  10   7  -7    8.27    0.96
  10   7  -6    1.07    0.56
  10   7  -5    5.12    0.97
  10   7  -4    0.49    0.43
  10   7  -4    0.44    0.58
  10   7  -4    0.11    0.52
  10   7  -4   -0.56    0.57
  10   7  -3   20.91    2.12
  10   7  -3   21.67    2.10
  10   7  -3   24.73    2.35
  10   7  -3   21.96    2.23
  10   7  -2   25.73    2.52
  10   7  -2   29.77    2.54
  10   7  -2   31.89    2.89
  10   7  -2   29.45    2.67
  10   7  -1   22.65    2.33
  10   7  -1   24.56    2.30
  10   7  -1   24.40    2.41
  10   7   0   25.63    2.62
  10   7   0   31.97    2.66
  10   7   0   26.72    2.60
  10   7   1   12.14    1.71
  10   7   1   13.01    1.74
  10   7   1   13.19    1.71
  10   7   2   13.72    1.84
  10   7   2   16.00    1.90
  10   7   3   77.09    5.25
  10   7   3   66.57    4.96
  10   7   3   78.61    4.96
  10   7   4    6.16    1.20
  10   7   4    8.65    1.53
  10   7   5   78.55    5.50
  10   7   5   79.17    5.11
  10   7   6   -0.21    0.70
  10   7   7   57.73    3.97
  10   7   8    3.75    1.01
 -10  -7  -8    3.73    1.07
  10   7   9    0.09    0.63
 -10  -7  -9    0.59    0.66
 -10  -7 -10  130.12    8.13
  10   7  10  133.18    7.40
  10   7  11    6.08    1.01
 -10  -7 -11    6.32    1.34
 -10  -7 -12   74.71    5.70
  10   7  12   86.99    4.95
  10   7  13    3.09    0.73
 -10  -7 -13    2.53    0.99
 -10  -7 -14    5.68    1.31
  10   7  14    8.49    1.00
 -10  -7 -15   42.17    3.49
  10   7  15   43.44    2.73
  10   7  16    2.06    0.47
 -10  -7 -16    0.96    0.68
 -10  -7 -17   51.80    3.46
  10   8  -7    0.36    0.29
  10   8  -6    1.90    0.57
  10   8  -6    2.03    0.56
  10   8  -5   21.44    1.87
  10   8  -4    0.19    0.43
  10   8  -4    0.25    0.63
  10   8  -4    0.62    0.52
  10   8  -3    8.86    1.30
  10   8  -3    9.49    1.36
  10   8  -3   11.86    1.55
  10   8  -3    9.65    1.22
  10   8  -2    0.12    0.49
  10   8  -2    0.58    0.54
  10   8  -1   51.43    4.09
  10   8  -1   63.23    4.11
  10   8  -1   56.48    3.86
  10   8   0    0.86    0.58
  10   8   0    0.28    0.52
  10   8   0    1.46    0.74
  10   8   1   11.51    1.77
  10   8   1   14.10    1.79
  10   8   1   14.63    1.66
  10   8   2   58.56    4.59
  10   8   2   67.20    4.46
  10   8   2   60.17    4.11
  10   8   3    6.36    1.07
  10   8   3    7.46    1.36
  10   8   4   42.03    3.46
  10   8   4   37.48    3.37
  10   8   4   37.83    2.94
  10   8   5   -0.09    0.56
  10   8   5    1.01    0.80
  10   8   5    1.01    0.69
  10   8   6    8.37    1.17
  10   8   6    7.34    1.50
  10   8   7   49.33    3.85
  10   8   7   45.32    3.23
  10   8   8    0.24    0.44
  10   8   8    0.42    0.70
  10   8   9   73.69    4.95
  10   8   9   65.07    4.18
  10   8  10   13.28    1.86
 -10  -8 -10   12.63    1.92
  10   8  10   11.83    1.33
  10   8  11   -0.13    0.47
  10   8  11    0.62    0.76
 -10  -8 -11    1.40    0.87
  10   8  12   11.77    1.57
 -10  -8 -12    9.39    1.62
  10   8  12    9.19    1.09
  10   8  13    6.08    1.11
 -10  -8 -13    3.76    1.05
  10   8  14   33.87    2.66
 -10  -8 -14   29.38    2.81
  10   8  15    0.96    0.55
 -10  -8 -15    0.98    0.58
 -10  -8 -16   37.30    2.97
  10   8  16   40.11    2.72
  10   8  17    8.25    0.95
 -10  -8 -17    8.10    1.08
  10   9  -6    8.46    0.92
  10   9  -4  116.67    6.55
  10   9  -3    0.99    0.57
  10   9  -3    1.12    0.55
  10   9  -2   53.31    3.93
  10   9  -2   58.29    3.59
  10   9  -1    1.14    0.81
  10   9  -1    3.73    0.83
  10   9   0   -0.42    0.66
  10   9   0   -0.25    0.51
  10   9   1   25.99    2.71
  10   9   1   29.66    2.37
  10   9   2    2.78    0.97
  10   9   2    2.68    0.85
  10   9   3   84.62    6.16
  10   9   3  100.17    5.73
  10   9   4    1.92    0.83
  10   9   4    3.11    0.82
  10   9   5   10.66    1.53
  10   9   5    9.49    1.64
  10   9   6   90.90    5.33
  10   9   6   68.98    5.40
  10   9   7    0.55    0.61
  10   9   7   -0.43    0.75
  10   9   8  100.14    6.14
  10   9   9    8.10    1.29
  10   9  10   17.33    1.91
 -10  -9 -10   17.64    2.19
  10   9  11    1.46    0.63
 -10  -9 -11    0.67    0.66
  10   9  12    5.15    0.99
 -10  -9 -12    5.79    1.18
  10   9  13   42.22    3.07
 -10  -9 -13   46.87    3.55
  10   9  14    0.43    0.46
 -10  -9 -14    1.08    0.62
 -10  -9 -15   11.61    1.46
  10   9  15    8.85    1.09
 -10  -9 -16   14.09    1.49
  10   9  16   12.28    1.17
 -10  -9 -17   22.12    1.85
  10  10  -4    3.57    0.70
  10  10  -3   14.19    1.56
  10  10  -3   17.77    1.74
  10  10  -2   20.25    1.98
  10  10  -1    0.58    0.53
  10  10   0   33.66    2.94
  10  10   1    1.83    0.89
  10  10   2   25.30    2.69
  10  10   3   14.66    1.98
  10  10   3   14.11    1.38
  10  10   4   13.93    2.01
  10  10   4   15.04    1.46
  10  10   5   41.75    3.85
  10  10   5   48.11    3.11
  10  10   6    2.09    0.92
  10  10   7   86.48    4.97
  10  10   7   75.47    5.63
  10  10   8    9.68    1.18
  10  10   8    6.82    1.35
  10  10   9   20.81    1.86
  10  10  10    3.71    0.78
  10  10  11   15.29    1.49
 -10 -10 -11   16.01    1.87
  10  10  12   47.40    3.32
 -10 -10 -12   68.89    4.16
  10  10  13    0.11    0.36
 -10 -10 -13    0.31    0.52
 -10 -10 -14   28.92    2.43
 -10 -10 -15   11.53    1.39
 -10 -10 -16    0.44    0.37
  10  11  -3   35.73    2.50
  10  11  -2    0.08    0.37
  10  11  -1   37.84    2.95
  10  11   0    0.11    0.51
  10  11   1   15.29    1.90
  10  11   2   13.24    1.83
  10  11   3   -0.30    0.78
  10  11   4   24.70    2.71
  10  11   5    2.70    1.03
  10  11   6   33.08    3.24
  10  11   7    2.96    1.01
  10  11   8    6.53    1.40
  10  11   9   28.66    2.75
 -10 -11 -11   50.05    3.60
 -10 -11 -12    4.81    0.94
 -10 -11 -13   61.53    4.04
 -10 -11 -14   20.03    1.81
 -10 -11 -15    0.85    0.42
  10  12  -1   -0.07    0.30
  10  12   0   29.38    2.38
  10  12   1    0.31    0.44
  10  12   2    3.37    0.93
  10  12   3   55.23    4.09
  10  12   4    0.79    0.72
  10  12   5   15.29    1.94
  10  12   6    0.26    0.51
  10  12   7    2.11    0.84
  10  12   8   40.16    3.27
  10  12   9    1.55    0.62
  10  12  10   32.41    2.88
 -10 -12 -10   60.31    3.41
 -10 -12 -11    8.90    1.19
 -10 -12 -12   33.27    2.53
 -10 -12 -13    3.75    0.71
 -10 -12 -14    7.69    1.03
  10  13   2   22.08    1.81
  10  13   3    0.42    0.41
  10  13   4   41.73    2.95
  10  13   5    9.06    1.17
  10  13   6    9.52    1.21
  10  13   7    9.39    1.24
  10  13   8    9.74    1.21
 -10 -13  -9   37.71    2.71
 -10 -13 -10    5.58    0.86
 -10 -13 -11   11.23    1.24
  11  -1   0    0.04    0.24
  11  -1   1    0.30    0.30
  11  -1   2    5.88    0.75
  11  -1   3   -0.04    0.30
  11  -1   4    0.51    0.30
  11  -1   5    1.28    0.39
  11   0  -3    1.00    0.32
  11   0  -2    5.76    0.76
  11   0  -1    5.95    0.81
  11   0   0   11.90    1.17
  11   0   1    0.84    0.49
  11   0   2    3.06    0.53
  11   0   2    3.78    0.67
  11   0   3    0.04    0.32
  11   0   3    0.05    0.41
  11   0   4    1.58    0.44
  11   0   4    1.76    0.54
  11   0   5   31.56    2.07
  11   0   5   25.36    1.77
  11   0   6    0.63    0.39
  11   0   7   24.67    1.82
  11   0   8    2.60    0.50
  11   0   9    0.42    0.31
  11   1  -4    1.90    0.47
  11   1  -3    2.32    0.51
  11   1  -2    0.46    0.34
  11   1  -1   54.93    3.32
  11   1   0   -0.21    0.41
  11   1   1   77.70    4.50
  11   1   2   16.49    1.53
  11   1   3    0.88    0.46
  11   1   4   19.02    1.65
  11   1   5    0.17    0.41
  11   1   6   33.33    2.29
  11   1   6   26.47    2.06
  11   1   7    3.53    0.64
  11   1   7    3.28    0.73
  11   1   8    1.48    0.46
  11   1   8    1.07    0.52
  11   1   9   46.08    2.98
  11   1   9   49.15    2.90
  11   1  10    1.21    0.37
  11   1  10    0.67    0.43
  11   1  11   58.96    3.36
  11   2  -4   13.11    1.19
  11   2  -4   12.46    1.14
  11   2  -3    0.67    0.42
  11   2  -3    0.26    0.28
  11   2  -3    0.45    0.39
  11   2  -2   28.58    2.01
  11   2  -2   25.26    1.83
  11   2  -2   24.50    1.97
  11   2  -1    0.57    0.46
  11   2  -1    0.12    0.42
  11   2  -1   -0.05    0.41
  11   2   0   11.50    1.27
  11   2   0   10.34    1.10
  11   2   0   10.52    1.26
  11   2   1   88.97    5.01
  11   2   1   97.20    5.12
  11   2   2    0.79    0.64
  11   2   2    0.80    0.59
  11   2   2    0.76    0.48
  11   2   3   74.09    4.26
  11   2   3   61.04    3.90
  11   2   3   72.89    4.22
  11   2   4   -0.14    0.44
  11   2   4    0.63    0.51
  11   2   4    0.22    0.40
  11   2   5   41.89    2.78
  11   2   5   39.65    2.67
  11   2   6    5.37    0.86
  11   2   6    3.56    0.67
  11   2   7    7.21    0.87
  11   2   7    8.46    1.05
  11   2   8   28.57    2.03
  11   2   8   39.14    2.44
  11   2   9    8.29    1.01
  11   2  10  126.03    6.65
  11   2  11    0.05    0.38
  11   2  12   19.96    1.48
  11   3  -5   14.04    1.14
  11   3  -4   -0.14    0.33
  11   3  -4   -0.04    0.33
  11   3  -4   -0.35    0.44
  11   3  -3   17.18    1.51
  11   3  -3   20.48    1.58
  11   3  -3   17.52    1.60
  11   3  -2    2.93    0.72
  11   3  -2    2.89    0.64
  11   3  -2    2.87    0.65
  11   3  -1    0.88    0.56
  11   3  -1    0.65    0.50
  11   3  -1    0.30    0.44
  11   3   0   53.99    3.62
  11   3   0   60.98    3.62
  11   3   0   59.68    3.79
  11   3   1   17.77    1.74
  11   3   1   21.30    1.79
  11   3   1   21.08    1.89
  11   3   2  103.86    5.94
  11   3   2  100.33    5.80
  11   3   2  109.16    6.03
  11   3   3   14.47    1.49
  11   3   3   11.89    1.33
  11   3   3   12.54    1.47
  11   3   4   31.41    2.45
  11   3   4   28.94    2.24
  11   3   4   31.89    2.45
  11   3   5    3.28    0.81
  11   3   5    3.25    0.82
  11   3   5    2.91    0.72
  11   3   6    1.96    0.73
  11   3   6    1.33    0.69
  11   3   7   72.57    4.51
  11   3   7   70.96    4.43
  11   3   7   78.82    4.52
  11   3   8    0.73    0.54
  11   3   8    1.23    0.60
  11   3   8    1.07    0.53
  11   3   9   17.55    1.61
  11   3   9   16.51    1.54
  11   3   9   17.78    1.63
  11   3  10    1.62    0.59
  11   3  10    1.38    0.54
  11   3  11    6.69    0.89
  11   3  11    9.40    1.08
  11   3  12   33.92    2.39
  11   3  12   50.85    2.76
  11   3  13   -0.04    0.42
  11   4  -5    1.22    0.46
  11   4  -4   27.29    1.91
  11   4  -4   22.89    1.92
  11   4  -3    5.04    0.80
  11   4  -3    4.35    0.82
  11   4  -2    7.12    1.03
  11   4  -2    6.04    0.89
  11   4  -2    6.49    0.96
  11   4  -1   13.70    1.45
  11   4  -1   15.90    1.51
  11   4  -1   15.55    1.58
  11   4  -1   16.70    1.64
  11   4   0    2.78    0.79
  11   4   0    2.48    0.68
  11   4   0    3.95    0.78
  11   4   0    2.19    0.63
  11   4   1   53.32    3.74
  11   4   1   64.38    3.84
  11   4   1   65.97    4.05
  11   4   2    3.94    0.97
  11   4   2    4.54    0.93
  11   4   2    5.43    0.93
  11   4   3   45.39    3.36
  11   4   3   54.34    3.42
  11   4   3   53.48    3.55
  11   4   4    8.74    1.26
  11   4   4   11.23    1.29
  11   4   4   11.50    1.40
  11   4   5   11.23    1.44
  11   4   5   13.27    1.50
  11   4   6   73.59    4.75
  11   4   6   75.80    4.82
  11   4   6   84.14    4.86
  11   4   7    0.51    0.60
  11   4   7    0.25    0.53
  11   4   7   -0.09    0.57
  11   4   8   34.43    2.81
  11   4   8   42.77    2.98
  11   4   8   44.79    3.00
  11   4   9   16.83    1.65
  11   4   9   18.81    1.70
  11   4  10    4.93    0.90
  11   4  10    3.69    0.81
  11   4  11   26.33    2.18
  11   4  11   30.17    2.27
  11   4  12   -0.06    0.46
  11   4  12    0.57    0.46
  11   4  13   81.89    4.91
  11   4  13   99.03    5.08
  11   4  14   13.30    1.23
  11   5  -5   33.32    2.23
  11   5  -4    8.18    1.00
  11   5  -4    8.99    1.05
  11   5  -3    0.92    0.50
  11   5  -3    0.59    0.47
  11   5  -2   28.84    2.16
  11   5  -2   27.34    2.21
  11   5  -1    0.36    0.51
  11   5  -1   -0.08    0.44
  11   5   0   26.57    2.13
  11   5   0   25.09    2.13
  11   5   1    0.80    0.65
  11   5   1    0.41    0.46
  11   5   2   51.73    3.56
  11   5   2   58.18    3.70
  11   5   2   56.87    3.61
  11   5   3   86.74    5.45
  11   5   3  103.91    5.63
  11   5   4    1.01    0.59
  11   5   5   25.65    2.24
  11   5   5   29.58    2.46
  11   5   6    0.09    0.61
  11   5   6    1.01    0.66
  11   5   7   74.17    4.83
  11   5   7   88.98    5.17
  11   5   8    4.32    0.87
  11   5   8    5.84    1.07
  11   5   9   19.30    1.78
  11   5   9   23.46    2.13
  11   5  10   35.19    2.66
  11   5  10   46.46    3.12
  11   5  11    0.87    0.62
  11   5  12   32.60    2.50
  11   5  13    0.71    0.45
  11   5  14   12.55    1.31
  11   5  14   15.38    1.28
  11   5  15   36.36    2.20
  11   6  -5   26.94    1.91
  11   6  -4   -0.06    0.35
  11   6  -3   39.17    2.72
  11   6  -3   38.86    2.72
  11   6  -2    0.14    0.46
  11   6  -2    0.08    0.40
  11   6  -2    0.44    0.49
  11   6  -1   35.36    2.51
  11   6  -1   33.03    2.55
  11   6  -1   31.97    2.59
  11   6   0    4.36    0.94
  11   6   0    5.88    0.96
  11   6   0    5.45    0.93
  11   6   1   10.46    1.50
  11   6   1   11.44    1.38
  11   6   1   13.39    1.44
  11   6   2  122.79    6.65
  11   6   2  109.22    6.50
  11   6   2  117.69    6.79
  11   6   3   14.67    1.59
  11   6   3   13.81    1.46
  11   6   3   14.85    1.72
  11   6   4  100.96    6.07
  11   6   5    8.00    1.19
  11   6   5    5.93    1.12
  11   6   6   36.43    2.86
  11   6   6   31.61    2.69
  11   6   7    3.60    0.86
  11   6   7    2.59    0.90
  11   6   8    9.84    1.31
  11   6   8    9.48    1.39
  11   6   9   90.19    5.47
  11   6   9   83.86    5.17
  11   6  10    1.47    0.60
  11   6  10    1.75    0.80
  11   6  11   88.45    5.42
  11   6  11   88.02    5.08
  11   6  12    6.47    0.91
  11   6  12    7.73    1.14
  11   6  13   31.26    2.43
  11   6  13   29.63    2.09
  11   6  14   49.90    3.23
  11   6  14   47.08    2.85
  11   6  15    4.77    0.75
  11   7  -5    0.13    0.26
  11   7  -4   17.83    1.51
  11   7  -4   19.23    1.53
  11   7  -3    5.75    0.87
  11   7  -3    5.78    0.86
  11   7  -2   33.35    2.44
  11   7  -2   31.35    2.42
  11   7  -1   14.58    1.49
  11   7  -1   13.37    1.47
  11   7   0   15.20    1.62
  11   7   0   16.44    1.70
  11   7   1    9.76    1.32
  11   7   1    9.41    1.22
  11   7   2    3.25    0.86
  11   7   2    1.96    0.66
  11   7   3  173.63    9.45
  11   7   3  182.53    9.62
  11   7   4    1.23    0.74
  11   7   5   25.31    2.19
  11   7   6   22.71    2.04
  11   7   7    9.34    1.25
  11   7   8   51.95    3.42
  11   7   9    0.77    0.50
  11   7  10   92.00    5.20
  11   7  11   -0.23    0.53
  11   7  12   25.58    1.85
  11   7  13   15.63    1.26
  11   7  14    0.19    0.24
  11   8  -4    0.05    0.29
  11   8  -3   28.02    1.97
  11   8  -3   26.97    1.98
  11   8  -2    8.33    1.05
  11   8  -2    7.84    1.01
  11   8  -1   16.93    1.52
  11   8  -1   14.79    1.47
  11   8  -1   11.94    1.24
  11   8   0   15.25    1.57
  11   8   0   16.02    1.59
  11   8   0   13.87    1.36
  11   8   1    6.05    0.90
  11   8   1    7.49    1.07
  11   8   1    5.52    0.96
  11   8   2   61.83    4.08
  11   8   2   64.93    4.11
  11   8   2   62.66    3.92
  11   8   3   21.17    1.98
  11   8   3   20.80    1.90
  11   8   3   18.77    1.75
  11   8   4   42.46    3.13
  11   8   4   45.42    3.02
  11   8   4   39.58    2.86
  11   8   5   44.50    3.17
  11   8   5   39.95    2.82
  11   8   6    0.26    0.43
  11   8   7   36.53    2.91
  11   8   7   35.41    2.49
  11   8   8    0.24    0.41
  11   8   8   -0.20    0.56
  11   8   9   49.16    3.42
  11   8   9   45.14    2.90
  11   8  10    1.14    0.44
  11   8  10    1.52    0.74
 -11  -8 -10    1.60    0.62
  11   8  11    0.41    0.49
 -11  -8 -11    0.32    0.45
  11   8  12    8.34    1.09
 -11  -8 -12    3.55    0.84
  11   8  13   14.97    1.43
  11   8  14   20.29    1.63
  11   8  15    3.81    0.55
  11   9  -3   12.77    1.16
  11   9  -2    2.73    0.59
  11   9  -1   40.46    2.61
  11   9  -1   47.69    2.97
  11   9   0    9.36    0.98
  11   9   0   10.60    1.17
  11   9   1    8.06    0.96
  11   9   1   10.97    1.22
  11   9   2    0.07    0.30
  11   9   2    0.56    0.52
  11   9   2    0.09    0.53
  11   9   3   17.45    1.44
  11   9   3   14.64    1.51
  11   9   4   70.15    4.19
  11   9   4   69.65    4.33
  11   9   5    3.65    0.80
 -11  -9  -6   34.05    3.08
  11   9   6   59.90    3.25
 -11  -9  -7    1.37    0.62
  11   9   8   22.02    1.85
 -11  -9  -8   15.50    1.88
  11   9   9    5.88    0.94
 -11  -9  -9    5.42    1.02
  11   9  10    0.13    0.41
 -11  -9 -10   -0.45    0.62
  11   9  11   51.30    3.06
 -11  -9 -11   39.38    3.18
  11   9  12   15.59    1.37
 -11  -9 -12   13.15    1.50
  11   9  13   10.28    1.02
  11  10  -1   -0.11    0.33
  11  10   0    7.73    1.11
  11  10   0   19.94    1.50
  11  10   1    4.39    0.80
  11  10   1    9.09    1.11
  11  10   2    0.60    0.38
  11  10   2    1.49    0.55
  11  10   3    3.94    0.74
  11  10   3    5.50    0.90
  11  10   4   -0.14    0.37
  11  10   4   -0.22    0.45
  11  10   5   46.90    2.82
  11  10   6    2.85    0.54
 -11 -10  -7    3.45    0.84
  11  10   7    6.22    0.76
 -11 -10  -8    2.97    0.80
  11  10   8    3.94    0.62
 -11 -10  -9    4.36    0.88
  11  10   9    4.06    0.62
 -11 -10 -10   36.78    2.81
 -11 -10 -11    1.26    0.55
 -11 -10 -12    3.22    0.67
 -11 -11  -6    3.37    0.70
 -11 -11  -7    4.87    0.85
 -11 -11  -8    6.60    1.02
 -11 -11  -9   25.05    2.07
 -11 -11 -10    4.64    0.80
  12   3   2    9.21    0.99
  12   3   3    0.16    0.33
  12   3   4    8.35    0.95
  12   3   5   15.45    1.25
  12   3   5   16.92    1.40
  12   3   6    0.31    0.28
  12   3   7    3.57    0.57
  12   4   0    1.30    0.42
  12   4   1    0.04    0.33
  12   4   2    1.51    0.47
  12   4   2    1.46    0.39
  12   4   3    0.34    0.39
  12   4   3   -0.04    0.27
  12   4   4   23.24    1.65
  12   4   4   25.63    1.88
  12   4   5    2.53    0.59
  12   4   5    2.02    0.46
  12   4   6    8.59    0.84
  12   4   6    9.14    1.00
  12   4   7    0.83    0.38
  12   4   8    0.99    0.38
  12   4   9    8.12    0.89
  12   5   0    0.68    0.29
  12   5   1    6.58    0.77
  12   5   2   15.18    1.31
  12   5   3   36.50    2.37
  12   5   4   -0.05    0.32
  12   5   5    5.98    0.80
  12   5   6    1.67    0.45
  12   5   7    0.69    0.37
  12   5   8    2.97    0.54
  12   5   9    1.46    0.41
  12   6   0    0.59    0.32
  12   6   1    4.83    0.66
  12   6   1    4.42    0.71
  12   6   2   15.86    1.33
  12   6   2   15.36    1.39
  12   6   3    1.23    0.50
  12   6   3    0.83    0.44
  12   6   4    9.53    1.01
  12   6   4    8.57    1.08
  12   6   5    1.53    0.51
  12   6   5    0.31    0.45
  12   6   6    2.62    0.59
  12   6   6    2.01    0.53
  12   6   7    3.70    0.68
  12   6   7    2.69    0.64
  12   6   8    1.94    0.53
  12   6   8    1.51    0.50
  12   6   9    1.23    0.43
  12   6   9    1.05    0.39
  12   6  10    0.11    0.27
  12   6  10    0.41    0.35
  12   7   2   -0.12    0.34
  12   7   3    6.96    0.87
  12   7   4    4.34    0.70
  12   7   5    1.31    0.45
  12   7   6   10.39    1.12
  12   7   6    9.67    1.03
  12   7   7   18.95    1.58
  12   7   7   18.36    1.46
  12   7   8    1.62    0.44
  12   7   8    3.11    0.58
  12   7   9    2.75    0.59
  12   7  10    0.30    0.35
  12   8   2    0.27    0.30
  12   8   3    0.65    0.40
  12   8   4    5.70    0.80
  12   8   5    5.61    0.80
  12   8   6   12.92    1.19
  12   8   7    2.68    0.53
  12   8   8    0.74    0.41
   0   0   0    0.00    0.00


TITL jmwel3_Cu in P-1
REM P-1 (#2 in standard setting)
CELL 1.54184   9.779882  12.715821  18.994885  75.6718  77.2135  68.1331
ZERR    4.00   0.000293   0.000453   0.000595   0.0029   0.0026   0.0031
LATT  1
SFAC C H N O Se
UNIT 96.00 100.00 12.00 8.00 4.00
TREF
HKLF 4
END
_computing_structure_solution     'SHELXT 2018/2 (Sheldrick, 2018)'
;
_shelx_hkl_checksum                15302
_olex2_submission_special_instructions  'No special instructions were received'
